@<TRIPOS>MOLECULE
3AO
   19    19     1     0     0
SMALL
bcc


@<TRIPOS>ATOM
      1 CAA         3.0380   -0.6210   -0.1020 c3        1 3AO     -0.197100
      2 OAC         2.2250    1.5720    0.3710 o         1 3AO     -0.537100
      3 CAD        -1.0750   -1.8740    0.0600 ca        1 3AO     -0.107000
      4 CAE        -2.1070   -0.9470   -0.0350 ca        1 3AO     -0.166000
      5 CAF         0.2540   -1.4620    0.1140 ca        1 3AO     -0.138000
      6 CAG        -0.4680    0.8460   -0.0130 ca        1 3AO     -0.138000
      7 CAH         1.9570    0.3860    0.1380 c         1 3AO      0.576700
      8 CAI        -1.8200    0.4370   -0.0810 ca        1 3AO      0.128600
      9 CAJ         0.5580   -0.0970    0.0770 ca        1 3AO     -0.137600
     10 HAA         4.0280   -0.1110   -0.1990 hc        1 3AO      0.065033
     11 HAAA        3.0850   -1.3330    0.7580 hc        1 3AO      0.065033
     12 HAAB        2.8300   -1.1950   -1.0370 hc        1 3AO      0.065033
     13 HNAB       -3.7370    1.0760    0.0400 hn        1 3AO      0.391800
     14 HNAA       -2.6090    2.2990    0.0180 hn        1 3AO      0.391800
     15 HAD        -1.3140   -2.9480    0.0920 ha        1 3AO      0.134000
     16 HAE        -3.1490   -1.2980   -0.0810 ha        1 3AO      0.134000
     17 HAF         1.0550   -2.2120    0.1910 ha        1 3AO      0.134000
     18 HAG        -0.2030    1.9160   -0.0340 ha        1 3AO      0.155000
     19 NAB        -2.8400    1.3740   -0.2730 nh        1 3AO     -0.818200
@<TRIPOS>BOND
     1    1    7 1   
     2    1   10 1   
     3    1   11 1   
     4    1   12 1   
     5    2    7 2   
     6    3    4 ar  
     7    3    5 ar  
     8    3   15 1   
     9    4    8 ar  
    10    4   16 1   
    11    5    9 ar  
    12    5   17 1   
    13    6    8 ar  
    14    6    9 ar  
    15    6   18 1   
    16    7    9 1   
    17    8   19 1   
    18   13   19 1   
    19   14   19 1   
@<TRIPOS>SUBSTRUCTURE
     1 3AO         1 TEMP              0 ****  ****    0 ROOT
