@<TRIPOS>MOLECULE
3AO
   20    19     1     0     0
SMALL
bcc


@<TRIPOS>ATOM
      1 CAA         0.3010   -0.0720   -0.4910 c3        1 3AO     -0.262000
      2 OAC         2.3750    1.1300   -0.7800 o         1 3AO     -0.235000
      3 CAD         1.9080   -2.8530    1.4930 c1        1 3AO      0.322000
      4 CAE         4.2570    1.2320    4.0510 c3        1 3AO     -0.271000
      5 CAF         2.1390   -1.5950    1.3420 c1        1 3AO     -0.621000
      6 CAG         3.0400    0.6560    1.9310 c3        1 3AO     -0.212000
      7 CAH         1.6870    0.3300   -0.1440 c2        1 3AO      0.237000
      8 CAI         3.8520    0.1620    3.0900 c2        1 3AO      0.221000
      9 CAJ         2.2810   -0.3090    1.0920 c2        1 3AO      0.157000
     10 HAA        -0.4090    0.2720    0.3030 hc        1 3AO      0.132667
     11 HAAA        0.2340   -1.1870   -0.5690 hc        1 3AO      0.132667
     12 HAAB       -0.0020    0.3820   -1.4680 hc        1 3AO      0.132667
     13 HNAB        3.7490    1.2250    1.2420 hc        1 3AO      0.196500
     14 HNAA        4.7730   -1.3650    4.0470 hn        1 3AO      0.291000
     15 HAD         4.5330    2.1640    3.4900 hc        1 3AO      0.156000
     16 HAE         5.1200    0.9430    4.7030 hc        1 3AO      0.156000
     17 HAF         3.3810    1.4720    4.7140 hc        1 3AO      0.156000
     18 HAG         2.3080    1.4260    2.3250 hc        1 3AO      0.196500
     19 HAB3        3.9120   -1.8230    2.6330 hn        1 3AO      0.291000
     20 NAB         4.2090   -1.0880    3.2620 n3        1 3AO     -0.176000
@<TRIPOS>BOND
     1    1    7 1   
     2    1   10 1   
     3    1   11 1   
     4    1   12 1   
     5    2    7 1   
     6    3    5 1   
     7    4    8 1   
     8    4   15 1   
     9    4   16 1   
    10    4   17 1   
    11    5    9 1   
    12    6    8 1   
    13    6    9 1   
    14    6   13 1   
    15    6   18 1   
    16    7    9 1   
    17    8   20 1   
    18   14   20 1   
    19   19   20 1   
@<TRIPOS>SUBSTRUCTURE
     1 3AO         1 TEMP              0 ****  ****    0 ROOT
