@<TRIPOS>MOLECULE
3AO
   19    18     1     0     0
SMALL
bcc


@<TRIPOS>ATOM
      1 CAA         0.3660   -0.2690   -0.8650 c3        1 3AO     -0.198100
      2 OAC         2.1840    0.7960    0.2630 o         1 3AO     -0.583100
      3 CAD         1.6200   -0.0560    3.9490 c2        1 3AO     -0.243100
      4 CAE         6.1390    0.0820    3.8190 ce        1 3AO     -0.373100
      5 CAF         1.2290   -0.3680    2.7550 c1        1 3AO      0.055200
      6 CAG         4.8120   -0.2010    4.1710 c1        1 3AO      0.113200
      7 CAH         1.2200    0.0190    0.3310 c         1 3AO      0.594300
      8 CAI         5.1680    0.4460    2.9030 ce        1 3AO     -0.058100
      9 CAJ         0.8290   -0.6950    1.5530 ce        1 3AO     -0.319300
     10 HAA        -0.7030   -0.0460   -0.6280 hc        1 3AO      0.065033
     11 HAAA        0.4540   -1.3500   -1.1350 hc        1 3AO      0.065033
     12 HAAB        0.6840    0.3500   -1.7380 hc        1 3AO      0.065033
     13 HNAB        3.8950    1.0250    1.4610 hn        1 3AO      0.452300
     14 HNAA        5.5480    1.3260    1.1320 hn        1 3AO      0.452300
     15 HAD         7.1890    0.0670    4.0290 ha        1 3AO      0.181000
     16 HAE         1.0550    0.6380    4.5900 ha        1 3AO      0.175000
     17 HAF         2.5640   -0.4490    4.3840 ha        1 3AO      0.175000
     18 HAG         0.1520   -1.5540    1.4040 ha        1 3AO      0.148000
     19 NAB         4.8500    0.9910    1.7520 nv        1 3AO     -0.766600
@<TRIPOS>BOND
     1    1    7 1   
     2    1   10 1   
     3    1   11 1   
     4    1   12 1   
     5    2    7 2   
     6    3    5 2   
     7    3   16 1   
     8    3   17 1   
     9    4    6 2   
    10    4    8 1   
    11    4   15 1   
    12    5    9 2   
    13    6    8 2   
    14    7    9 1   
    15    8   19 1   
    16    9   18 1   
    17   13   19 1   
    18   14   19 1   
@<TRIPOS>SUBSTRUCTURE
     1 3AO         1 TEMP              0 ****  ****    0 ROOT
