@<TRIPOS>MOLECULE
3AO
   19    16     1     0     0
SMALL
bcc


@<TRIPOS>ATOM
      1 CAA        -2.6070   -0.0960   -1.6810 c3        1 3AO     -0.197100
      2 NAB         2.0930    1.9950    1.1190 n3        1 3AO     -0.792400
      3 OAC        -0.6180   -0.9050   -2.6760 o         1 3AO     -0.537100
      4 CAD         0.8120   -1.4630    1.3930 c1        1 3AO     -0.065000
      5 CAE         1.5380   -0.3100    1.6470 c1        1 3AO     -0.108500
      6 CAF        -0.1260   -1.4810    0.3730 c1        1 3AO     -0.065000
      7 CAG         0.3880    0.8080   -0.1390 c1        1 3AO     -0.080500
      8 CAH        -1.1450   -0.4850   -1.6650 c         1 3AO      0.525300
      9 CAI         1.3260    0.8250    0.8810 c1        1 3AO      0.102800
     10 CAJ        -0.3380   -0.3450   -0.3930 cg        1 3AO     -0.086200
     11 HAA        -2.8040    0.4630   -0.9000 hc        1 3AO      0.065033
     12 HAAA       -2.8030    0.4060   -2.5000 hc        1 3AO      0.065033
     13 HAAB       -3.1610   -0.9040   -1.6520 hc        1 3AO      0.065033
     14 HNAB        2.7950    1.9700    1.7040 hn        1 3AO      0.391800
     15 HNAA        1.8920    2.7700    0.6780 hn        1 3AO      0.391800
     16 HAD         0.9610   -2.2630    1.9320 ha        1 3AO      0.076500
     17 HAE         2.1990   -0.2980    2.3650 ha        1 3AO      0.076500
     18 HAF        -0.6380   -2.2930    0.1940 ha        1 3AO      0.076500
     19 HAG         0.2380    1.6070   -0.6790 ha        1 3AO      0.097500
@<TRIPOS>BOND
     1    1    8 1   
     2    1   11 1   
     3    1   12 1   
     4    1   13 1   
     5    2    9 1   
     6    2   14 1   
     7    2   15 1   
     8    3    8 2   
     9    4    6 3   
    10    4   16 1   
    11    5    9 3   
    12    5   17 1   
    13    6   18 1   
    14    7   10 3   
    15    7   19 1   
    16    8   10 1   
@<TRIPOS>SUBSTRUCTURE
     1 3AO         1 TEMP              0 ****  ****    0 ROOT
