@<TRIPOS>MOLECULE
3AP
   14    14     1     0     0
SMALL
bcc


@<TRIPOS>ATOM
      1 N1         -0.0210    0.1350   -0.0090 na        1 3AP     -0.016100
      2 C2          1.3390    0.1230   -0.0180 ca        1 3AP     -0.171300
      3 C3          2.0820   -0.0070    1.1970 ca        1 3AP      0.221600
      4 C4          1.3310   -0.1220    2.4120 ca        1 3AP     -0.111000
      5 C5         -0.0500   -0.1050    2.3730 ca        1 3AP     -0.087000
      6 C6         -0.7260    0.0260    1.1420 ca        1 3AP     -0.088300
      7 N3          3.4390   -0.0190    1.1840 nh        1 3AP     -0.832200
      8 HN1        -0.5070    0.2290   -0.8870 hn        1 3AP      0.343700
      9 H2          1.8370    0.2170   -1.0020 h4        1 3AP      0.206000
     10 H4          1.8570   -0.2250    3.3780 ha        1 3AP      0.188000
     11 H5         -0.6470   -0.1920    3.2980 ha        1 3AP      0.200000
     12 H6         -1.8330    0.0430    1.0790 h4        1 3AP      0.213000
     13 HN31        3.9450   -0.1100    2.0340 hn        1 3AP      0.466300
     14 HN32        3.9410    0.0620    0.3330 hn        1 3AP      0.466300
@<TRIPOS>BOND
     1    1    2 1   
     2    1    6 2   
     3    1    8 1   
     4    2    3 ar  
     5    2    9 1   
     6    3    4 ar  
     7    3    7 1   
     8    4    5 ar  
     9    4   10 1   
    10    5    6 ar  
    11    5   11 1   
    12    6   12 1   
    13    7   13 1   
    14    7   14 1   
@<TRIPOS>SUBSTRUCTURE
     1 3AP         1 TEMP              0 ****  ****    0 ROOT
