@<TRIPOS>MOLECULE
3AP
   14    11     1     0     0
SMALL
bcc


@<TRIPOS>ATOM
      1 N1         -1.1840    0.0110   -1.1960 n1        1 3AP     -0.504200
      2 C2          0.1790    0.0110   -1.1960 c1        1 3AP     -0.089500
      3 C3          0.8730    0.0110    0.0040 c1        1 3AP      0.195800
      4 C4          0.1900    0.0110    1.1870 c1        1 3AP     -0.041500
      5 C5         -1.1750    0.0110    1.1860 c1        1 3AP     -0.041500
      6 C6         -1.8660    0.0110   -0.0160 c1        1 3AP      0.319300
      7 N3          2.2910   -0.0300    0.0040 n3        1 3AP     -0.806400
      8 HN1        -1.6400    0.0110   -1.9860 hn        1 3AP      0.457400
      9 H2          0.6670    0.0110   -2.0410 ha        1 3AP      0.148500
     10 H4          0.6780    0.0110    2.0320 ha        1 3AP      0.136500
     11 H5         -1.6640    0.0110    2.0300 ha        1 3AP      0.136500
     12 H6         -2.8430    0.0110   -0.0170 ha        1 3AP      0.155500
     13 HN31        2.7240   -0.8330    0.0040 hn        1 3AP      0.466300
     14 HN32        2.7700    0.7460    0.0030 hn        1 3AP      0.466300
@<TRIPOS>BOND
     1    1    6 3   
     2    1    8 1   
     3    2    3 3   
     4    2    9 1   
     5    3    7 1   
     6    4    5 3   
     7    4   10 1   
     8    5   11 1   
     9    6   12 1   
    10    7   13 1   
    11    7   14 1   
@<TRIPOS>SUBSTRUCTURE
     1 3AP         1 TEMP              0 ****  ****    0 ROOT
