@<TRIPOS>MOLECULE
3AP
   14    14     1     0     0
SMALL
bcc


@<TRIPOS>ATOM
      1 N1         -0.0150    0.1210   -0.0160 na        1 3AP     -0.016100
      2 C2          1.3450    0.1320   -0.0160 ca        1 3AP     -0.171300
      3 C3          2.0820    0.0090    1.2030 ca        1 3AP      0.221600
      4 C4          1.3250   -0.1250    2.4130 ca        1 3AP     -0.111000
      5 C5         -0.0560   -0.1300    2.3640 ca        1 3AP     -0.087000
      6 C6         -0.7260   -0.0050    1.1300 ca        1 3AP     -0.088300
      7 N3          3.4390    0.0200    1.1990 nv        1 3AP     -0.832200
      8 HN1        -0.4980    0.2100   -0.8970 hn        1 3AP      0.343700
      9 H2          1.8480    0.2390   -0.9970 h4        1 3AP      0.206000
     10 H4          1.8470   -0.2230    3.3820 ha        1 3AP      0.188000
     11 H5         -0.6580   -0.2320    3.2850 ha        1 3AP      0.200000
     12 H6         -1.8320   -0.0060    1.0590 h4        1 3AP      0.213000
     13 HN31        3.9450    0.1130    0.3510 hn        1 3AP      0.466300
     14 HN32        3.9410   -0.0660    2.0520 hn        1 3AP      0.466300
@<TRIPOS>BOND
     1    1    2 1   
     2    1    6 2   
     3    1    8 1   
     4    2    3 ar  
     5    2    9 1   
     6    3    4 ar  
     7    3    7 1   
     8    4    5 ar  
     9    4   10 1   
    10    5    6 ar  
    11    5   11 1   
    12    6   12 1   
    13    7   13 1   
    14    7   14 1   
@<TRIPOS>SUBSTRUCTURE
     1 3AP         1 TEMP              0 ****  ****    0 ROOT
