@<TRIPOS>MOLECULE
3AP
   15    15     1     0     0
SMALL
bcc


@<TRIPOS>ATOM
      1 N1         -0.0480   -0.0870   -0.0260 na        1 3AP     -0.066100
      2 C2          1.3160   -0.1060   -0.0390 ca        1 3AP      0.019700
      3 C3          2.0340   -0.0010    1.1730 ca        1 3AP     -0.072400
      4 C4          1.3290    0.1220    2.3970 ca        1 3AP      0.020000
      5 C5         -0.0650    0.1370    2.3680 ca        1 3AP     -0.107000
      6 C6         -0.7450    0.0310    1.1410 ca        1 3AP      0.055700
      7 N3          3.4930   -0.0170    1.1660 n4        1 3AP     -0.708000
      8 HN1        -0.5490   -0.1640   -0.9100 hn        1 3AP      0.387700
      9 H2          1.8060   -0.2060   -1.0370 h4        1 3AP      0.240000
     10 H4          1.8560    0.2060    3.3710 ha        1 3AP      0.223000
     11 H5         -0.6540    0.2330    3.3060 ha        1 3AP      0.250000
     12 H6         -1.8630    0.0400    1.0780 h4        1 3AP      0.263000
     13 HN31        3.8550    0.9010    1.4760 hn        1 3AP      0.497800
     14 HN32        3.8380   -0.7460    1.8140 hn        1 3AP      0.497800
     15 H33         3.8600   -0.2160    0.2220 hn        1 3AP      0.497800
@<TRIPOS>BOND
     1    1    2 1   
     2    1    6 2   
     3    1    8 1   
     4    2    3 ar  
     5    2    9 1   
     6    3    4 ar  
     7    3    7 1   
     8    4    5 ar  
     9    4   10 1   
    10    5    6 ar  
    11    5   11 1   
    12    6   12 1   
    13    7   13 1   
    14    7   14 1   
    15    7   15 1   
@<TRIPOS>SUBSTRUCTURE
     1 3AP         1 TEMP              0 ****  ****    0 ROOT
