@<TRIPOS>MOLECULE
3AP
   14    14     1     0     0
SMALL
bcc


@<TRIPOS>ATOM
      1 N1         -1.1510   -1.1320    0.0000 na        1 3AP     -0.016100
      2 C2          0.2080   -1.1850    0.0010 ca        1 3AP     -0.171300
      3 C3          0.9920    0.0110    0.0010 ca        1 3AP      0.221600
      4 C4          0.2830    1.2560    0.0000 ca        1 3AP     -0.111000
      5 C5         -1.0990    1.2620   -0.0000 ca        1 3AP     -0.087000
      6 C6         -1.8160    0.0480   -0.0000 ca        1 3AP     -0.088300
      7 N3          2.3480   -0.0470    0.0010 nh        1 3AP     -0.832200
      8 HN1        -1.6670   -1.9980    0.0010 hn        1 3AP      0.343700
      9 H2          0.6730   -2.1910    0.0010 h4        1 3AP      0.206000
     10 H4          0.8420    2.2090   -0.0000 ha        1 3AP      0.188000
     11 H5         -1.6650    2.2110   -0.0010 ha        1 3AP      0.200000
     12 H6         -2.9250    0.0200   -0.0000 h4        1 3AP      0.213000
     13 HN31        2.8820    0.7900    0.0010 hn        1 3AP      0.466300
     14 HN32        2.8210   -0.9190    0.0010 hn        1 3AP      0.466300
@<TRIPOS>BOND
     1    1    2 1   
     2    1    6 2   
     3    1    8 1   
     4    2    3 ar  
     5    2    9 1   
     6    3    4 ar  
     7    3    7 1   
     8    4    5 ar  
     9    4   10 1   
    10    5    6 ar  
    11    5   11 1   
    12    6   12 1   
    13    7   13 1   
    14    7   14 1   
@<TRIPOS>SUBSTRUCTURE
     1 3AP         1 TEMP              0 ****  ****    0 ROOT
