@<TRIPOS>MOLECULE
3AQ
   17    17     1     0     0
SMALL
bcc


@<TRIPOS>ATOM
      1 C01        -0.0420    0.0670   -0.0600 ca        1 3AQ     -0.078000
      2 C02         1.3660   -0.1470    2.3480 ca        1 3AQ     -0.184500
      3 C03        -0.0260   -0.1350    2.3500 ca        1 3AQ     -0.078000
      4 C04         1.3470    0.0570   -0.0850 ca        1 3AQ     -0.184500
      5 C06        -2.8040   -1.3260    1.1280 c1        1 3AQ      0.211700
      6 N          -3.2730   -2.3900    1.1000 n1        1 3AQ     -0.371800
      7 C07         2.0500   -0.0510    1.1280 ca        1 3AQ      0.134100
      8 C          -0.7380   -0.0280    1.1520 ca        1 3AQ     -0.130300
      9 H1         -0.5990    0.1480   -1.0070 ha        1 3AQ      0.137500
     10 H2          1.9230   -0.2320    3.2920 ha        1 3AQ      0.145500
     11 H3         -0.5680   -0.2120    3.3060 ha        1 3AQ      0.137500
     12 H4          1.9030    0.1300   -1.0300 ha        1 3AQ      0.145500
     13 H5         -2.5940    0.5260    2.0930 hc        1 3AQ      0.078200
     14 H6         -2.6110    0.5830    0.2760 hc        1 3AQ      0.078200
     15 H7          3.7780   -0.1470    1.9390 ho        1 3AQ      0.421000
     16 C05        -2.2290    0.0030    1.1640 c3        1 3AQ      0.032000
     17 O           3.4220   -0.0530    1.0430 oh        1 3AQ     -0.494100
@<TRIPOS>BOND
     1    1    4 ar  
     2    1    8 ar  
     3    1    9 1   
     4    2    3 ar  
     5    2    7 ar  
     6    2   10 1   
     7    3    8 ar  
     8    3   11 1   
     9    4    7 ar  
    10    4   12 1   
    11    5    6 3   
    12    5   16 1   
    13    7   17 1   
    14    8   16 1   
    15   13   16 1   
    16   14   16 1   
    17   15   17 1   
@<TRIPOS>SUBSTRUCTURE
     1 3AQ         1 TEMP              0 ****  ****    0 ROOT
