@<TRIPOS>MOLECULE
3AQ
   17    17     1     0     0
SMALL
bcc


@<TRIPOS>ATOM
      1 C01         0.0240    0.0650    0.0420 ca        1 3AQ     -0.078000
      2 C02         1.3540    0.0690    2.5080 ca        1 3AQ     -0.184500
      3 C03        -0.0330   -0.0000    2.4600 ca        1 3AQ     -0.078000
      4 C04         1.4140    0.1350    0.0690 ca        1 3AQ     -0.184500
      5 C06        -2.6920   -1.4150    1.0860 c1        1 3AQ      0.211700
      6 N          -3.0960   -2.5010    0.9990 n1        1 3AQ     -0.371800
      7 C07         2.0770    0.1360    1.3040 ca        1 3AQ      0.134100
      8 C          -0.7070   -0.0020    1.2320 ca        1 3AQ     -0.130300
      9 H1         -0.5010    0.0620   -0.9260 ha        1 3AQ      0.137500
     10 H2          1.8940    0.0710    3.4660 ha        1 3AQ      0.145500
     11 H3         -0.6050   -0.0550    3.3990 ha        1 3AQ      0.137500
     12 H4          1.9860    0.1860   -0.8680 ha        1 3AQ      0.145500
     13 H5         -2.6230    0.4060    2.1300 hc        1 3AQ      0.078200
     14 H6         -2.5820    0.5360    0.3180 hc        1 3AQ      0.078200
     15 H7          3.8170    0.2310    0.5200 ho        1 3AQ      0.421000
     16 C05        -2.1970   -0.0570    1.1950 c3        1 3AQ      0.032000
     17 O           3.4450    0.2060    1.4140 oh        1 3AQ     -0.494100
@<TRIPOS>BOND
     1    1    4 ar  
     2    1    8 ar  
     3    1    9 1   
     4    2    3 ar  
     5    2    7 ar  
     6    2   10 1   
     7    3    8 ar  
     8    3   11 1   
     9    4    7 ar  
    10    4   12 1   
    11    5    6 3   
    12    5   16 1   
    13    7   17 1   
    14    8   16 1   
    15   13   16 1   
    16   14   16 1   
    17   15   17 1   
@<TRIPOS>SUBSTRUCTURE
     1 3AQ         1 TEMP              0 ****  ****    0 ROOT
