@<TRIPOS>MOLECULE
3AR
   35    34     1     0     0
SMALL
bcc


@<TRIPOS>ATOM
      1 N          -3.9470    1.8840    0.2690 n3        1 3AR     -0.898800
      2 CA         -3.6850    0.5750   -0.3120 c3        1 3AR      0.007500
      3 C          -4.8770   -0.4470   -0.2230 c         1 3AR      0.894600
      4 O          -5.9820   -0.0180    0.1980 o         1 3AR     -0.825300
      5 CB         -2.4640   -0.1100    0.3000 c3        1 3AR     -0.066400
      6 CG         -1.1820    0.6200   -0.0430 c3        1 3AR     -0.089400
      7 CD         -0.0060   -0.2800    0.3310 c3        1 3AR      0.004300
      8 NE          1.2780    0.3280    0.0280 nh        1 3AR     -0.385100
      9 CZ          2.4750   -0.3220    0.1870 cz        1 3AR      0.504300
     10 NH1         3.6510    0.3170   -0.1780 nh        1 3AR     -0.410200
     11 NH2         2.5130   -1.5940    0.7170 nh        1 3AR     -0.506200
     12 C1          4.9590   -0.2710   -0.0030 c3        1 3AR      0.025300
     13 C2          6.0850    0.6580   -0.4580 c3        1 3AR     -0.093400
     14 C3          7.4150   -0.0200   -0.2500 c3        1 3AR     -0.099100
     15 OXT        -4.6310   -1.6290   -0.5920 o         1 3AR     -0.825300
     16 H          -4.7680    2.2510   -0.1840 hn        1 3AR      0.340300
     17 H2         -4.1970    1.7550    1.2340 hn        1 3AR      0.340300
     18 HA         -3.4900    0.7340   -1.4120 h1        1 3AR      0.040700
     19 HB2        -2.4430   -1.1570   -0.1100 hc        1 3AR      0.058700
     20 HB3        -2.5740   -0.1800    1.4130 hc        1 3AR      0.058700
     21 HG2        -1.1340    1.5910    0.5130 hc        1 3AR      0.060200
     22 HG3        -1.1610    0.8490   -1.1410 hc        1 3AR      0.060200
     23 HD2        -0.0990   -1.2500   -0.2400 h1        1 3AR      0.066200
     24 HD3        -0.0490   -0.5020    1.4370 h1        1 3AR      0.066200
     25 HE          1.2610    1.2520   -0.3550 hn        1 3AR      0.319700
     26 HH1         3.6060    1.2460   -0.5370 hn        1 3AR      0.315700
     27 HH21        1.6670   -2.0680    0.9450 hn        1 3AR      0.322200
     28 HH22        3.3730   -2.0820    0.8060 hn        1 3AR      0.322200
     29 H11         5.0170   -1.2280   -0.6000 h1        1 3AR      0.059200
     30 H12         5.1140   -0.5210    1.0880 h1        1 3AR      0.059200
     31 H21         6.0540    1.6160    0.1260 hc        1 3AR      0.060700
     32 H22         5.9580    0.9160   -1.5420 hc        1 3AR      0.060700
     33 H31         7.5740   -0.2660    0.8280 hc        1 3AR      0.050700
     34 H32         7.4780   -0.9650   -0.8420 hc        1 3AR      0.050700
     35 H33         8.2400    0.6580   -0.5820 hc        1 3AR      0.050700
@<TRIPOS>BOND
     1    1    2 1   
     2    1   16 1   
     3    1   17 1   
     4    2    3 1   
     5    2    5 1   
     6    2   18 1   
     7    3    4 1   
     8    3   15 1   
     9    5    6 1   
    10    5   19 1   
    11    5   20 1   
    12    6    7 1   
    13    6   21 1   
    14    6   22 1   
    15    7    8 1   
    16    7   23 1   
    17    7   24 1   
    18    8    9 2   
    19    8   25 1   
    20    9   10 1   
    21    9   11 1   
    22   10   12 1   
    23   10   26 1   
    24   11   27 1   
    25   11   28 1   
    26   12   13 1   
    27   12   29 1   
    28   12   30 1   
    29   13   14 1   
    30   13   31 1   
    31   13   32 1   
    32   14   33 1   
    33   14   34 1   
    34   14   35 1   
@<TRIPOS>SUBSTRUCTURE
     1 3AR         1 TEMP              0 ****  ****    0 ROOT
