@<TRIPOS>MOLECULE
3AS
   46    49     1     0     0
SMALL
bcc


@<TRIPOS>ATOM
      1 C1         -0.0070   -0.1760   -0.0520 ca        1 3AS      0.103100
      2 C2          1.3930   -0.0840   -0.0510 ca        1 3AS     -0.162000
      3 C3          2.0740    0.0330    1.1580 ca        1 3AS     -0.059300
      4 C4          1.3340    0.0690    2.3580 ca        1 3AS      0.085100
      5 O5          2.0680    0.2110    3.5270 os        1 3AS     -0.327900
      6 C6          1.4160   -0.3800    4.6700 c3        1 3AS      0.202400
      7 C8          2.3110   -0.1740    5.8540 ca        1 3AS     -0.129300
      8 C9          2.2140   -1.0650    6.9310 ca        1 3AS     -0.076000
      9 C10         3.0220   -0.9130    8.0520 ca        1 3AS     -0.186500
     10 C11         3.9460    0.1460    8.0880 ca        1 3AS      0.131100
     11 O12         4.7180    0.2450    9.2210 oh        1 3AS     -0.495100
     12 C13         4.0560    1.0400    7.0140 ca        1 3AS     -0.186500
     13 C14         3.2350    0.8730    5.9010 ca        1 3AS     -0.076000
     14 C15         0.0240    0.2130    4.8790 c3        1 3AS     -0.084700
     15 C17        -0.8540    0.0610    3.6260 c3        1 3AS     -0.010400
     16 C19        -0.0670    0.0010    2.3580 ca        1 3AS     -0.101300
     17 C20        -0.7400   -0.1350    1.1400 ca        1 3AS     -0.133000
     18 C21        -1.8180    1.2470    3.6360 c3        1 3AS     -0.120400
     19 C22        -1.2480    2.3080    4.6220 c3        1 3AS      0.406600
     20 F23        -1.0140    3.5240    4.0130 f         1 3AS     -0.241800
     21 F24        -2.1680    2.6640    5.5900 f         1 3AS     -0.241800
     22 C25         0.0420    1.6920    5.2310 c3        1 3AS     -0.118400
     23 C26         3.5590    0.1410    1.2260 c3        1 3AS      0.177700
     24 O27         4.1090   -0.1860   -0.0520 os        1 3AS     -0.427600
     25 C28         5.5260   -0.1310   -0.0530 c3        1 3AS      0.118700
     26 O29        -0.7360   -0.3090   -1.2140 oh        1 3AS     -0.499100
     27 H2          1.9600   -0.1130   -0.9940 ha        1 3AS      0.159000
     28 H6          1.3060   -1.4860    4.4660 h1        1 3AS      0.059700
     29 H9          1.4920   -1.8950    6.8920 ha        1 3AS      0.143000
     30 H10         2.9530   -1.6030    8.9040 ha        1 3AS      0.145000
     31 H12         5.3050    1.0090    9.1170 ho        1 3AS      0.421000
     32 H13         4.7830    1.8630    7.0480 ha        1 3AS      0.145000
     33 H14         3.3160    1.5670    5.0490 ha        1 3AS      0.143000
     34 H15        -0.4560   -0.3570    5.7230 hc        1 3AS      0.068700
     35 H17        -1.4430   -0.8960    3.7050 hc        1 3AS      0.069700
     36 H20        -1.8370   -0.2050    1.1080 ha        1 3AS      0.152000
     37 H211       -1.9270    1.7000    2.6200 hc        1 3AS      0.079700
     38 H212       -2.8290    0.9270    3.9910 hc        1 3AS      0.079700
     39 H251        0.9380    2.1930    4.7820 hc        1 3AS      0.082200
     40 H252        0.0610    1.8510    6.3360 hc        1 3AS      0.082200
     41 H261        3.9620   -0.5650    2.0030 h1        1 3AS      0.048700
     42 H262        3.8530    1.1910    1.5020 h1        1 3AS      0.048700
     43 H281        5.8810    0.9000    0.1950 h1        1 3AS      0.034700
     44 H282        5.8140   -0.4060   -1.0980 h1        1 3AS      0.034700
     45 H283        5.9490   -0.8650    0.6770 h1        1 3AS      0.034700
     46 H29        -0.1130   -0.3270   -1.9540 ho        1 3AS      0.421000
@<TRIPOS>BOND
     1    1    2 ar  
     2    1   17 ar  
     3    1   26 1   
     4    2    3 ar  
     5    2   27 1   
     6    3    4 ar  
     7    3   23 1   
     8    4    5 1   
     9    4   16 ar  
    10    5    6 1   
    11    6    7 1   
    12    6   14 1   
    13    6   28 1   
    14    7    8 ar  
    15    7   13 ar  
    16    8    9 ar  
    17    8   29 1   
    18    9   10 ar  
    19    9   30 1   
    20   10   11 1   
    21   10   12 ar  
    22   11   31 1   
    23   12   13 ar  
    24   12   32 1   
    25   13   33 1   
    26   14   15 1   
    27   14   22 1   
    28   14   34 1   
    29   15   16 1   
    30   15   18 1   
    31   15   35 1   
    32   16   17 ar  
    33   17   36 1   
    34   18   19 1   
    35   18   37 1   
    36   18   38 1   
    37   19   20 1   
    38   19   21 1   
    39   19   22 1   
    40   22   39 1   
    41   22   40 1   
    42   23   24 1   
    43   23   41 1   
    44   23   42 1   
    45   24   25 1   
    46   25   43 1   
    47   25   44 1   
    48   25   45 1   
    49   26   46 1   
@<TRIPOS>SUBSTRUCTURE
     1 3AS         1 TEMP              0 ****  ****    0 ROOT
