@<TRIPOS>MOLECULE
3AS
   46    44     1     0     0
SMALL
bcc


@<TRIPOS>ATOM
      1 C1         -1.7750   -0.3250   -3.8290 c1        1 3AS      0.058000
      2 C2         -0.3320   -0.2190   -3.8430 c1        1 3AS     -0.162000
      3 C3          0.3870   -0.0570   -2.6190 c1        1 3AS     -0.052000
      4 C4         -0.3040   -0.0020   -1.4170 c1        1 3AS      0.040000
      5 O5          0.4340   -0.2710   -0.0560 os        1 3AS     -0.211000
      6 C6         -0.2650   -0.8700    0.8880 c3        1 3AS      0.084000
      7 C8          0.5770   -0.7810    2.2650 c2        1 3AS     -0.122000
      8 C9          1.6580    0.1050    2.3680 c1        1 3AS     -0.063000
      9 C10         2.3990    0.1710    3.5440 c1        1 3AS     -0.216000
     10 C11         2.0670   -0.6480    4.6300 c1        1 3AS      0.086000
     11 O12         2.7080   -0.4380    5.9020 oh        1 3AS     -0.249000
     12 C13         0.9970   -1.5280    4.5320 c1        1 3AS     -0.157000
     13 C14         0.2440   -1.5920    3.3310 c2        1 3AS     -0.089000
     14 C15        -1.6280   -0.3370    1.1570 c3        1 3AS     -0.124000
     15 C17        -2.5310   -0.1690   -0.0130 c3        1 3AS     -0.057000
     16 C19        -1.8300   -0.1160   -1.4130 c1        1 3AS     -0.094000
     17 C20        -2.4970   -0.2690   -2.5830 c2        1 3AS     -0.133000
     18 C21        -3.1330    1.0900    0.1920 c3        1 3AS     -0.199000
     19 C22        -2.0560    1.9830    1.0740 c3        1 3AS      0.264000
     20 F23        -1.1210    2.4950    0.2740 f         1 3AS     -0.170500
     21 F24        -2.7300    3.0170    1.7550 f         1 3AS     -0.170500
     22 C25        -1.5390    1.2010    1.8930 c3        1 3AS     -0.197000
     23 C26         1.9630   -0.0630   -2.6250 c3        1 3AS      0.020000
     24 O27         2.4180    0.4380   -3.8290 os        1 3AS     -0.284000
     25 C28         3.8600    0.1990   -4.0650 c3        1 3AS     -0.071000
     26 O29        -2.4630   -0.4890   -5.0140 o         1 3AS     -0.253000
     27 H2          0.1730   -0.2600   -4.7330 ha        1 3AS      0.159000
     28 H6         -0.3490   -1.7650    0.6560 h1        1 3AS      0.099000
     29 H9          1.8920    0.6780    1.6140 ha        1 3AS      0.151000
     30 H10         3.1700    0.8040    3.6130 ha        1 3AS      0.137000
     31 H12         3.5830   -0.7800    5.8730 ho        1 3AS      0.220000
     32 H13         0.7480   -2.1380    5.3390 ha        1 3AS      0.153000
     33 H14        -0.5220   -2.2180    3.2560 ha        1 3AS      0.135000
     34 H15        -2.0860   -0.9750    1.8180 hc        1 3AS      0.108000
     35 H17        -3.2020   -0.8570   -0.0110 hc        1 3AS      0.109000
     36 H20        -3.4190   -0.3390   -2.5830 ha        1 3AS      0.152000
     37 H211       -3.3070    1.5370   -0.6920 hc        1 3AS      0.119000
     38 H212       -3.9990    0.9840    0.7050 hc        1 3AS      0.119000
     39 H251       -2.0280    1.2020    2.6740 hc        1 3AS      0.121500
     40 H252       -0.6160    1.4410    2.0310 hc        1 3AS      0.121500
     41 H261        2.3060    0.5120   -1.8680 h1        1 3AS      0.088000
     42 H262        2.2850   -0.9670   -2.5130 h1        1 3AS      0.088000
     43 H281        4.0300   -0.8210   -4.1690 h1        1 3AS      0.074000
     44 H282        4.3540    0.5270   -3.3350 h1        1 3AS      0.074000
     45 H283        4.1220    0.6320   -4.8310 h1        1 3AS      0.074000
     46 H29        -2.6450    0.2740   -5.3430 ho        1 3AS      0.220000
@<TRIPOS>BOND
     1    1    2 1   
     2    1   17 1   
     3    2   27 1   
     4    3    4 1   
     5    3   23 1   
     6    4    5 1   
     7    5    6 1   
     8    6    7 1   
     9    6   14 1   
    10    6   28 1   
    11    7    8 1   
    12    7   13 1   
    13    8   29 1   
    14    9   10 1   
    15    9   30 1   
    16   10   11 1   
    17   11   31 1   
    18   12   13 1   
    19   12   32 1   
    20   13   33 1   
    21   14   15 1   
    22   14   22 1   
    23   14   34 1   
    24   15   16 1   
    25   15   18 1   
    26   15   35 1   
    27   16   17 1   
    28   17   36 1   
    29   18   19 1   
    30   18   37 1   
    31   18   38 1   
    32   19   20 1   
    33   19   21 1   
    34   19   22 1   
    35   22   39 1   
    36   22   40 1   
    37   23   24 1   
    38   23   41 1   
    39   23   42 1   
    40   24   25 1   
    41   25   43 1   
    42   25   44 1   
    43   25   45 1   
    44   26   46 1   
@<TRIPOS>SUBSTRUCTURE
     1 3AS         1 TEMP              0 ****  ****    0 ROOT
