@<TRIPOS>MOLECULE
3AS
   46    49     1     0     0
SMALL
bcc


@<TRIPOS>ATOM
      1 C1         -0.0350   -0.1560   -0.0490 ca        1 3AS      0.103100
      2 C2          1.3650   -0.0830   -0.0660 ca        1 3AS     -0.162000
      3 C3          2.0640    0.0200    1.1330 ca        1 3AS     -0.059300
      4 C4          1.3430    0.0620    2.3440 ca        1 3AS      0.085100
      5 O5          2.0940    0.1900    3.5030 os        1 3AS     -0.327900
      6 C6          1.4510   -0.3960    4.6520 c3        1 3AS      0.202400
      7 C8          2.3650   -0.2070    5.8240 ca        1 3AS     -0.129300
      8 C9          2.2710   -1.1010    6.9000 ca        1 3AS     -0.076000
      9 C10         3.0960   -0.9630    8.0090 ca        1 3AS     -0.186500
     10 C11         4.0350    0.0830    8.0360 ca        1 3AS      0.131100
     11 O12         4.8250    0.1680    9.1580 oh        1 3AS     -0.495100
     12 C13         4.1430    0.9790    6.9630 ca        1 3AS     -0.186500
     13 C14         3.3040    0.8280    5.8620 ca        1 3AS     -0.076000
     14 C15         0.0700    0.2150    4.8830 c3        1 3AS     -0.084700
     15 C17        -0.8270    0.0790    3.6420 c3        1 3AS     -0.010400
     16 C19        -0.0600    0.0130    2.3630 ca        1 3AS     -0.101300
     17 C20        -0.7510   -0.1080    1.1540 ca        1 3AS     -0.133000
     18 C21        -1.7750    1.2790    3.6700 c3        1 3AS     -0.120400
     19 C22        -1.1770    2.3280    4.6510 c3        1 3AS      0.406600
     20 F23        -0.9340    3.5430    4.0430 f         1 3AS     -0.241800
     21 F24        -2.0780    2.6930    5.6330 f         1 3AS     -0.241800
     22 C25         0.1130    1.6920    5.2390 c3        1 3AS     -0.118400
     23 C26         3.5520    0.1070    1.1800 c3        1 3AS      0.177700
     24 O27         4.0800   -0.2240   -0.1060 os        1 3AS     -0.427600
     25 C28         5.4970   -0.1900   -0.1260 c3        1 3AS      0.118700
     26 O29        -0.7830   -0.2750   -1.2010 oh        1 3AS     -0.499100
     27 H2          1.9190   -0.1170   -1.0180 ha        1 3AS      0.159000
     28 H6          1.3230   -1.4990    4.4460 h1        1 3AS      0.059700
     29 H9          1.5370   -1.9210    6.8680 ha        1 3AS      0.143000
     30 H10         3.0300   -1.6550    8.8600 ha        1 3AS      0.145000
     31 H12         5.4200    0.9240    9.0490 ho        1 3AS      0.421000
     32 H13         4.8810    1.7920    6.9910 ha        1 3AS      0.145000
     33 H14         3.3820    1.5230    5.0110 ha        1 3AS      0.143000
     34 H15        -0.4060   -0.3510    5.7310 hc        1 3AS      0.068700
     35 H17        -1.4290   -0.8690    3.7260 hc        1 3AS      0.069700
     36 H20        -1.8490   -0.1630    1.1370 ha        1 3AS      0.152000
     37 H211       -2.7850    0.9710    4.0370 hc        1 3AS      0.079700
     38 H212       -1.8910    1.7360    2.6560 hc        1 3AS      0.079700
     39 H251        1.0090    2.1830    4.7800 hc        1 3AS      0.082200
     40 H252        0.1500    1.8470    6.3450 hc        1 3AS      0.082200
     41 H261        3.8640    1.1530    1.4540 h1        1 3AS      0.048700
     42 H262        3.9560   -0.6060    1.9500 h1        1 3AS      0.048700
     43 H281        5.9200   -0.9320    0.5960 h1        1 3AS      0.034700
     44 H282        5.8700    0.8350    0.1180 h1        1 3AS      0.034700
     45 H283        5.7660   -0.4670   -1.1760 h1        1 3AS      0.034700
     46 H29        -0.1700   -0.2980   -1.9500 ho        1 3AS      0.421000
@<TRIPOS>BOND
     1    1    2 ar  
     2    1   17 ar  
     3    1   26 1   
     4    2    3 ar  
     5    2   27 1   
     6    3    4 ar  
     7    3   23 1   
     8    4    5 1   
     9    4   16 ar  
    10    5    6 1   
    11    6    7 1   
    12    6   14 1   
    13    6   28 1   
    14    7    8 ar  
    15    7   13 ar  
    16    8    9 ar  
    17    8   29 1   
    18    9   10 ar  
    19    9   30 1   
    20   10   11 1   
    21   10   12 ar  
    22   11   31 1   
    23   12   13 ar  
    24   12   32 1   
    25   13   33 1   
    26   14   15 1   
    27   14   22 1   
    28   14   34 1   
    29   15   16 1   
    30   15   18 1   
    31   15   35 1   
    32   16   17 ar  
    33   17   36 1   
    34   18   19 1   
    35   18   37 1   
    36   18   38 1   
    37   19   20 1   
    38   19   21 1   
    39   19   22 1   
    40   22   39 1   
    41   22   40 1   
    42   23   24 1   
    43   23   41 1   
    44   23   42 1   
    45   24   25 1   
    46   25   43 1   
    47   25   44 1   
    48   25   45 1   
    49   26   46 1   
@<TRIPOS>SUBSTRUCTURE
     1 3AS         1 TEMP              0 ****  ****    0 ROOT
