@<TRIPOS>MOLECULE
3AS
   46    49     1     0     0
SMALL
bcc


@<TRIPOS>ATOM
      1 C1         -4.0240    0.1470    0.7260 ca        1 3AS      0.103100
      2 C2         -3.6640   -1.1050    0.2060 ca        1 3AS     -0.162000
      3 C3         -2.3190   -1.4040    0.0020 ca        1 3AS     -0.059300
      4 C4         -1.3480   -0.4310    0.3130 ca        1 3AS      0.085100
      5 O5         -0.0280   -0.7790    0.0640 os        1 3AS     -0.327900
      6 C6          0.9010   -0.1030    0.9360 c3        1 3AS      0.202400
      7 C8          2.2770   -0.5750    0.5790 ca        1 3AS     -0.129300
      8 C9          3.2810   -0.5210    1.5560 ca        1 3AS     -0.076000
      9 C10         4.5720   -0.9450    1.2700 ca        1 3AS     -0.186500
     10 C11         4.8590   -1.4400   -0.0140 ca        1 3AS      0.131100
     11 O12         6.1540   -1.8470   -0.2380 oh        1 3AS     -0.495100
     12 C13         3.8630   -1.5060   -0.9980 ca        1 3AS     -0.186500
     13 C14         2.5750   -1.0710   -0.6940 ca        1 3AS     -0.076000
     14 C15         0.7560    1.4130    0.8270 c3        1 3AS     -0.084700
     15 C17        -0.6810    1.8710    1.1210 c3        1 3AS     -0.010400
     16 C19        -1.7070    0.8310    0.8110 ca        1 3AS     -0.101300
     17 C20        -3.0580    1.1140    1.0300 ca        1 3AS     -0.133000
     18 C21        -0.9000    3.1410    0.2980 c3        1 3AS     -0.120400
     19 C22         0.2150    3.1960   -0.7860 c3        1 3AS      0.406600
     20 F23        -0.2960    3.2320   -2.0680 f         1 3AS     -0.241800
     21 F24         0.9210    4.3840   -0.7450 f         1 3AS     -0.241800
     22 C25         1.1230    1.9600   -0.5440 c3        1 3AS     -0.118400
     23 C26        -1.8730   -2.7140   -0.5530 c3        1 3AS      0.177700
     24 O27        -2.9720   -3.6270   -0.5370 os        1 3AS     -0.427600
     25 C28        -2.6100   -4.9070   -1.0270 c3        1 3AS      0.118700
     26 O29        -5.3360    0.4960    0.9660 oh        1 3AS     -0.499100
     27 H2         -4.4310   -1.8570   -0.0330 ha        1 3AS      0.159000
     28 H6          0.6590   -0.4090    1.9960 h1        1 3AS      0.059700
     29 H9          3.0460   -0.1370    2.5610 ha        1 3AS      0.143000
     30 H10         5.3680   -0.9040    2.0270 ha        1 3AS      0.145000
     31 H12         6.2150   -2.1610   -1.1520 ho        1 3AS      0.421000
     32 H13         4.0950   -1.8970   -1.9980 ha        1 3AS      0.145000
     33 H14         1.7820   -1.1230   -1.4570 ha        1 3AS      0.143000
     34 H15         1.4410    1.8690    1.5950 hc        1 3AS      0.068700
     35 H17        -0.7700    2.1200    2.2160 hc        1 3AS      0.069700
     36 H20        -3.3710    2.0890    1.4320 ha        1 3AS      0.152000
     37 H211       -1.9030    3.1460   -0.1950 hc        1 3AS      0.079700
     38 H212       -0.8200    4.0470    0.9480 hc        1 3AS      0.079700
     39 H251        2.1990    2.2560   -0.5930 hc        1 3AS      0.082200
     40 H252        0.9260    1.1950   -1.3390 hc        1 3AS      0.082200
     41 H261       -1.5160   -2.5770   -1.6110 h1        1 3AS      0.048700
     42 H262       -1.0280   -3.1270    0.0640 h1        1 3AS      0.048700
     43 H281       -2.2650   -4.8400   -2.0880 h1        1 3AS      0.034700
     44 H282       -1.8070   -5.3590   -0.3940 h1        1 3AS      0.034700
     45 H283       -3.5500   -5.5080   -0.9560 h1        1 3AS      0.034700
     46 H29        -5.8930   -0.2560    0.7170 ho        1 3AS      0.421000
@<TRIPOS>BOND
     1    1    2 ar  
     2    1   17 ar  
     3    1   26 1   
     4    2    3 ar  
     5    2   27 1   
     6    3    4 ar  
     7    3   23 1   
     8    4    5 1   
     9    4   16 ar  
    10    5    6 1   
    11    6    7 1   
    12    6   14 1   
    13    6   28 1   
    14    7    8 ar  
    15    7   13 ar  
    16    8    9 ar  
    17    8   29 1   
    18    9   10 ar  
    19    9   30 1   
    20   10   11 1   
    21   10   12 ar  
    22   11   31 1   
    23   12   13 ar  
    24   12   32 1   
    25   13   33 1   
    26   14   15 1   
    27   14   22 1   
    28   14   34 1   
    29   15   16 1   
    30   15   18 1   
    31   15   35 1   
    32   16   17 ar  
    33   17   36 1   
    34   18   19 1   
    35   18   37 1   
    36   18   38 1   
    37   19   20 1   
    38   19   21 1   
    39   19   22 1   
    40   22   39 1   
    41   22   40 1   
    42   23   24 1   
    43   23   41 1   
    44   23   42 1   
    45   24   25 1   
    46   25   43 1   
    47   25   44 1   
    48   25   45 1   
    49   26   46 1   
@<TRIPOS>SUBSTRUCTURE
     1 3AS         1 TEMP              0 ****  ****    0 ROOT
