@<TRIPOS>MOLECULE
3AU
   45    46     1     0     0
SMALL
bcc


@<TRIPOS>ATOM
      1 P           6.0090    0.1670    0.8820 p5        1 3AU      1.334900
      2 N1         -0.2670    0.5750   -0.1540 n         1 3AU     -0.379000
      3 C2         -1.6530    0.7910   -0.3830 c         1 3AU      0.805500
      4 O2         -2.0360    1.3680   -1.4270 o         1 3AU     -0.659500
      5 N3         -2.5830    0.3740    0.5990 n         1 3AU     -0.486400
      6 C4         -2.1630   -0.2920    1.7730 c         1 3AU      0.715700
      7 O4         -2.9990   -0.6020    2.6460 o         1 3AU     -0.660500
      8 C5         -0.7310   -0.5630    1.9010 cc        1 3AU     -0.372200
      9 C6          0.1470   -0.1330    0.9560 cd        1 3AU      0.078600
     10 C1'         0.7080    1.0350   -1.1580 c3        1 3AU      0.269500
     11 C10        -3.9900    0.7120    0.4260 c3        1 3AU      0.096000
     12 C11        -4.9170   -0.4610    0.1050 c3        1 3AU     -0.082400
     13 C12        -6.3610    0.0240   -0.0630 c3        1 3AU      0.029500
     14 C13        -7.2310   -1.1500   -0.6210 c         1 3AU      0.889600
     15 C2'         1.4490    2.3510   -0.7460 c3        1 3AU      0.101100
     16 O2'         1.3230    3.2860   -1.7960 oh        1 3AU     -0.608800
     17 C3'         2.8990    1.9070   -0.4520 c3        1 3AU      0.127100
     18 O3'         3.7810    2.7720   -1.1280 oh        1 3AU     -0.683800
     19 O30        -8.2940   -1.4580   -0.0030 o         1 3AU     -0.853300
     20 O31        -6.8570   -1.7130   -1.6870 o         1 3AU     -0.853300
     21 C4'         3.0100    0.4700   -0.9930 c3        1 3AU      0.051100
     22 O4'         1.6850    0.0250   -1.3740 os        1 3AU     -0.437600
     23 N40        -6.9130    0.6540    1.1310 n3        1 3AU     -0.902800
     24 C5'         3.6390   -0.5260    0.0120 c3        1 3AU      0.227400
     25 O5'         4.9760   -0.6770   -0.2380 os        1 3AU     -0.559200
     26 OP1         5.5500   -0.3830    2.2010 o         1 3AU     -0.931833
     27 OP2         7.3900   -0.1780    0.4160 o         1 3AU     -0.931833
     28 H5         -0.4080   -1.1170    2.7880 ha        1 3AU      0.165000
     29 H6          1.2440   -0.3210    1.0170 h4        1 3AU      0.206000
     30 H1'         0.1510    1.1750   -2.1310 h2        1 3AU      0.102700
     31 H10        -4.3210    1.1850    1.3950 h1        1 3AU      0.062700
     32 H10A       -4.0750    1.4770   -0.3970 h1        1 3AU      0.062700
     33 H11        -4.6170   -0.9550   -0.8560 hc        1 3AU      0.061200
     34 H11A       -4.8570   -1.2260    0.9210 hc        1 3AU      0.061200
     35 H12        -6.3700    0.8210   -0.8650 h1        1 3AU      0.040700
     36 H2'         0.9780    2.8420    0.1450 h1        1 3AU      0.067700
     37 HO2'        2.1120    3.2130   -2.3490 ho        1 3AU      0.423000
     38 H3'         3.1100    1.9370    0.6520 h1        1 3AU      0.101700
     39 HO3'        4.6730    2.5880   -0.7410 ho        1 3AU      0.513000
     40 H4'         3.6110    0.4590   -1.9430 h1        1 3AU      0.074700
     41 HN40       -7.9100    0.5000    1.1220 hn        1 3AU      0.332300
     42 HN4A       -6.5580    0.1810    1.9440 hn        1 3AU      0.332300
     43 H5'         3.4640   -0.1690    1.0670 h1        1 3AU     -0.000800
     44 H5'A        3.1100   -1.5140   -0.1320 h1        1 3AU     -0.000800
     45 O11         5.5310    1.5780    0.5960 o         1 3AU     -0.931833
@<TRIPOS>BOND
     1    1   25 1   
     2    1   26 1   
     3    1   27 1   
     4    1   45 1   
     5    2    3 1   
     6    2    9 1   
     7    2   10 1   
     8    3    4 2   
     9    3    5 1   
    10    5    6 1   
    11    5   11 1   
    12    6    7 2   
    13    6    8 1   
    14    8    9 2   
    15    8   28 1   
    16    9   29 1   
    17   10   15 1   
    18   10   22 1   
    19   10   30 1   
    20   11   12 1   
    21   11   31 1   
    22   11   32 1   
    23   12   13 1   
    24   12   33 1   
    25   12   34 1   
    26   13   14 1   
    27   13   23 1   
    28   13   35 1   
    29   14   19 1   
    30   14   20 1   
    31   15   16 1   
    32   15   17 1   
    33   15   36 1   
    34   16   37 1   
    35   17   18 1   
    36   17   21 1   
    37   17   38 1   
    38   18   39 1   
    39   21   22 1   
    40   21   24 1   
    41   21   40 1   
    42   23   41 1   
    43   23   42 1   
    44   24   25 1   
    45   24   43 1   
    46   24   44 1   
@<TRIPOS>SUBSTRUCTURE
     1 3AU         1 TEMP              0 ****  ****    0 ROOT
