@<TRIPOS>MOLECULE
3AU
   45    45     1     0     0
SMALL
bcc


@<TRIPOS>ATOM
      1 P          -3.9680   -3.3180    0.9510 p3        1 3AU      2.527000
      2 N1          0.0100    0.4110    1.0650 n         1 3AU     -0.268000
      3 C2          0.6810   -0.0720   -0.1680 c2        1 3AU      0.396000
      4 O2          1.2760   -1.1550   -0.1640 o         1 3AU     -0.384000
      5 N3          0.5890    0.7060   -1.4060 n         1 3AU     -0.314000
      6 C4         -0.2920    1.8470   -1.4780 c2        1 3AU      0.356000
      7 O4         -0.4410    2.4260   -2.5190 o         1 3AU     -0.386000
      8 C5         -1.0430    2.2770   -0.2740 c2        1 3AU     -0.348000
      9 C6         -0.8720    1.5430    1.0040 c2        1 3AU      0.074000
     10 C1'         0.3690   -0.1490    2.3410 c3        1 3AU      0.115000
     11 C10         1.3090    0.2820   -2.5780 c3        1 3AU     -0.021000
     12 C11         2.3070    1.3790   -2.9850 c3        1 3AU     -0.160000
     13 C12         3.2300    0.8560   -4.0950 c3        1 3AU     -0.118000
     14 C13         2.7180    1.3330   -5.4420 c2        1 3AU      0.309000
     15 C2'        -0.6330    0.3330    3.4490 c3        1 3AU     -0.009000
     16 O2'         0.0430    0.7310    4.5510 oh        1 3AU     -0.336000
     17 C3'        -1.4940   -0.8680    3.7670 c3        1 3AU      0.015000
     18 O3'        -1.1240   -1.4370    5.1140 oh        1 3AU     -0.410000
     19 O30         2.3840    0.4950   -6.3220 o         1 3AU     -0.588000
     20 O31         2.6440    2.5730   -5.6870 o         1 3AU     -0.588000
     21 C4'        -1.2290   -1.7390    2.8140 c3        1 3AU     -0.059000
     22 O4'         0.2520   -1.4180    2.3130 os        1 3AU     -0.296000
     23 N40         4.5190    1.3420   -3.8930 n3        1 3AU     -0.336000
     24 C5'        -2.2040   -1.5770    1.6860 c3        1 3AU      0.079000
     25 O5'        -2.4610   -2.8420    1.0950 o         1 3AU     -0.722000
     26 OP1        -4.5020   -3.7210    2.3110 o         1 3AU     -1.251667
     27 OP2        -4.8090   -2.1790    0.3940 o         1 3AU     -1.251667
     28 H5         -1.6620    3.0740   -0.3200 ha        1 3AU      0.166000
     29 H6         -1.2730    1.8880    1.8160 h4        1 3AU      0.201000
     30 H1'         1.2910    0.1050    2.5800 h2        1 3AU      0.147000
     31 H10         1.8010   -0.5590   -2.3800 h1        1 3AU      0.103000
     32 H10A        0.6920    0.1300   -3.2920 h1        1 3AU      0.103000
     33 H11         2.8520    1.6370   -2.1970 hc        1 3AU      0.099500
     34 H11A        1.8100    2.1720   -3.3170 hc        1 3AU      0.099500
     35 H12         3.2430   -0.1030   -4.0780 h1        1 3AU      0.080000
     36 H2'        -1.2020    1.0830    3.0990 h1        1 3AU      0.109000
     37 HO2'       -0.2980    1.4810    4.8500 ho        1 3AU      0.223000
     38 H3'        -2.4470   -0.6210    3.7490 h1        1 3AU      0.139000
     39 HO3'       -1.8140   -1.3270    5.6880 ho        1 3AU      0.312000
     40 H4'        -1.2730   -2.6520    3.1690 h1        1 3AU      0.114000
     41 HN40        5.0760    0.6400   -3.5910 hn        1 3AU      0.128000
     42 HN4A        4.8480    1.6760   -4.6830 hn        1 3AU      0.128000
     43 H5'        -1.8310   -0.9820    1.0220 h1        1 3AU      0.038500
     44 H5'A       -3.0380   -1.2000    2.0280 h1        1 3AU      0.038500
     45 O11        -4.0340   -4.5010    0.0120 o         1 3AU     -1.251667
@<TRIPOS>BOND
     1    1   26 1   
     2    1   27 1   
     3    1   45 1   
     4    2    3 1   
     5    2    9 1   
     6    2   10 1   
     7    3    4 1   
     8    3    5 1   
     9    5    6 1   
    10    5   11 1   
    11    6    7 1   
    12    6    8 1   
    13    8    9 1   
    14    8   28 1   
    15    9   29 1   
    16   10   15 1   
    17   10   22 1   
    18   10   30 1   
    19   11   12 1   
    20   11   31 1   
    21   11   32 1   
    22   12   13 1   
    23   12   33 1   
    24   12   34 1   
    25   13   14 1   
    26   13   23 1   
    27   13   35 1   
    28   14   19 1   
    29   14   20 1   
    30   15   16 1   
    31   15   17 1   
    32   15   36 1   
    33   16   37 1   
    34   17   18 1   
    35   17   21 1   
    36   17   38 1   
    37   18   39 1   
    38   21   22 1   
    39   21   24 1   
    40   21   40 1   
    41   23   41 1   
    42   23   42 1   
    43   24   25 1   
    44   24   43 1   
    45   24   44 1   
@<TRIPOS>SUBSTRUCTURE
     1 3AU         1 TEMP              0 ****  ****    0 ROOT
