@<TRIPOS>MOLECULE
3AV
   20    19     1     0     0
SMALL
bcc


@<TRIPOS>ATOM
      1 C01         0.7060   -0.7050   -0.7250 c3        1 3AV     -0.189000
      2 C02         4.4470    0.3410   -0.0760 c2        1 3AV     -0.261000
      3 C03         4.0170   -0.5400    0.8550 c1        1 3AV      0.208000
      4 C04         6.2710   -0.1420   -1.5380 c2        1 3AV      0.380000
      5 C05         5.6570   -1.5400   -3.5090 c1        1 3AV      0.317000
      6 C06         2.2530    1.2500   -0.6330 c2        1 3AV     -0.170000
      7 C07         5.3610   -0.8540   -2.4220 c2        1 3AV     -0.552000
      8 O01         5.8120    0.4330   -0.3650 os        1 3AV     -0.169000
      9 C08         1.6160    0.1460    0.0800 c2        1 3AV     -0.063000
     10 C09         3.5920    1.3430   -0.7020 c2        1 3AV     -0.105000
     11 C           1.8600   -0.0850    1.3870 c2        1 3AV     -0.192000
     12 H1          1.2470   -1.1300   -1.6070 hc        1 3AV      0.091667
     13 H2         -0.1480   -0.0900   -1.1040 hc        1 3AV      0.091667
     14 H3          0.2960   -1.5500   -0.1200 hc        1 3AV      0.091667
     15 H4          1.4310   -0.9480    1.9140 ha        1 3AV      0.139500
     16 H5          4.1050    2.1670   -1.2220 ha        1 3AV      0.155000
     17 H6          1.5890    1.9770   -1.1240 ha        1 3AV      0.153000
     18 H7          4.2820   -0.8090   -2.1420 ha        1 3AV      0.220000
     19 H8          2.4070    0.6270    2.0270 ha        1 3AV      0.139500
     20 O           7.4800    0.0360   -1.6840 o         1 3AV     -0.289000
@<TRIPOS>BOND
     1    1    9 1   
     2    1   12 1   
     3    1   13 1   
     4    1   14 1   
     5    2    3 1   
     6    2    8 1   
     7    2   10 1   
     8    4    7 1   
     9    4    8 1   
    10    4   20 1   
    11    5    7 1   
    12    6    9 1   
    13    6   10 1   
    14    6   17 1   
    15    7   18 1   
    16    9   11 1   
    17   10   16 1   
    18   11   15 1   
    19   11   19 1   
@<TRIPOS>SUBSTRUCTURE
     1 3AV         1 TEMP              0 ****  ****    0 ROOT
