@<TRIPOS>MOLECULE
3AW
   16    16     1     0     0
SMALL
bcc


@<TRIPOS>ATOM
      1 N1         -0.0430   -0.0090   -0.0750 nb        1 3AW     -0.822000
      2 C6          1.3180    0.0090   -0.0060 ca        1 3AW      0.728300
      3 C5          2.0780    0.0230   -1.3140 c3        1 3AW     -0.139400
      4 NAA         2.0650    0.0160    1.1370 nb        1 3AW     -0.822000
      5 C2         -0.6950    0.0010    1.1590 ca        1 3AW      0.921900
      6 CAI         1.3290   -0.0180    2.3200 ca        1 3AW      0.921900
      7 NAH        -0.0560   -0.0150    2.3890 nb        1 3AW     -0.848000
      8 NAI         2.0310   -0.1130    3.5150 nv        1 3AW     -0.940500
      9 N3         -2.0820    0.0830    1.1550 nv        1 3AW     -0.940500
     10 H51C        2.7610   -0.8610   -1.3570 hc        1 3AW      0.064033
     11 H52C        2.6910    0.9560   -1.3740 hc        1 3AW      0.064033
     12 H53C        1.3830   -0.0110   -2.1870 hc        1 3AW      0.064033
     13 H31N       -2.5550   -0.0950    0.3020 hn        1 3AW      0.437550
     14 H32N       -2.5630   -0.1030    2.0020 hn        1 3AW      0.437550
     15 HAI1        1.5400    0.0600    4.3590 hn        1 3AW      0.437550
     16 HAI2        3.0040    0.0760    3.4970 hn        1 3AW      0.437550
@<TRIPOS>BOND
     1    1    2 ar  
     2    1    5 ar  
     3    2    3 1   
     4    2    4 ar  
     5    3   10 1   
     6    3   11 1   
     7    3   12 1   
     8    4    6 ar  
     9    5    7 ar  
    10    5    9 1   
    11    6    7 ar  
    12    6    8 1   
    13    8   15 1   
    14    8   16 1   
    15    9   13 1   
    16    9   14 1   
@<TRIPOS>SUBSTRUCTURE
     1 3AW         1 TEMP              0 ****  ****    0 ROOT
