@<TRIPOS>MOLECULE
3AW
   16    16     1     0     0
SMALL
bcc


@<TRIPOS>ATOM
      1 N1         -0.0410   -0.0180   -0.0760 nb        1 3AW     -0.824000
      2 C6          1.3200    0.0000   -0.0060 ca        1 3AW      0.728300
      3 C5          2.0800    0.0100   -1.3130 c3        1 3AW     -0.139400
      4 NAA         2.0660    0.0070    1.1370 nb        1 3AW     -0.824000
      5 C2         -0.6950   -0.0350    1.1570 ca        1 3AW      0.924900
      6 CAI         1.3280   -0.0110    2.3210 ca        1 3AW      0.924900
      7 NAH        -0.0570   -0.0040    2.3880 nb        1 3AW     -0.852000
      8 NAI         2.0280   -0.0780    3.5170 nh        1 3AW     -0.945000
      9 N3         -2.0790   -0.1250    1.1530 nh        1 3AW     -0.945000
     10 H51C        1.3940    0.1680   -2.1790 hc        1 3AW      0.063700
     11 H52C        2.6000   -0.9720   -1.4360 hc        1 3AW      0.063700
     12 H53C        2.8450    0.8250   -1.3020 hc        1 3AW      0.063700
     13 H31N       -2.5660    0.0290    2.0010 hn        1 3AW      0.439800
     14 H32N       -2.5570    0.0280    0.2990 hn        1 3AW      0.439800
     15 HAI1        1.5360    0.0800    4.3620 hn        1 3AW      0.439800
     16 HAI2        3.0040    0.0960    3.5000 hn        1 3AW      0.439800
@<TRIPOS>BOND
     1    1    2 ar  
     2    1    5 ar  
     3    2    3 1   
     4    2    4 ar  
     5    3   10 1   
     6    3   11 1   
     7    3   12 1   
     8    4    6 ar  
     9    5    7 ar  
    10    5    9 1   
    11    6    7 ar  
    12    6    8 1   
    13    8   15 1   
    14    8   16 1   
    15    9   13 1   
    16    9   14 1   
@<TRIPOS>SUBSTRUCTURE
     1 3AW         1 TEMP              0 ****  ****    0 ROOT
