@<TRIPOS>MOLECULE
3AW
   18    18     1     0     0
SMALL
bcc


@<TRIPOS>ATOM
      1 N1         -0.0320   -0.0130   -0.0740 nb        1 3AW     -0.658500
      2 C6          1.3530   -0.0290   -0.0390 ca        1 3AW      0.809300
      3 C5          2.0950   -0.0860   -1.3420 c3        1 3AW     -0.177400
      4 NAA         2.0750    0.0060    1.1370 nb        1 3AW     -0.658500
      5 C2         -0.6540    0.0410    1.1370 ca        1 3AW      0.799400
      6 CAI         1.3350    0.0590    2.2860 ca        1 3AW      0.799400
      7 NAH        -0.0390    0.0800    2.3740 nb        1 3AW     -0.704000
      8 NAI         2.0950    0.0980    3.5710 n4        1 3AW     -0.825300
      9 N3         -2.1470    0.0600    1.1330 n4        1 3AW     -0.825300
     10 H51C        3.2040   -0.1280   -1.1840 hc        1 3AW      0.130367
     11 H52C        1.7720   -0.9940   -1.9210 hc        1 3AW      0.130367
     12 H53C        1.8470    0.8240   -1.9540 hc        1 3AW      0.130367
     13 H31N       -2.4990    0.0320    0.1580 hn        1 3AW      0.508633
     14 H32N       -2.5040   -0.7610    1.6470 hn        1 3AW      0.508633
     15 HAI1        2.6790   -0.7530    3.6440 hn        1 3AW      0.508633
     16 HAI2        1.4510    0.1430    4.3780 hn        1 3AW      0.508633
     17 HAI3        2.7120    0.9290    3.5750 hn        1 3AW      0.508633
     18 H33        -2.4830    0.9230    1.5910 hn        1 3AW      0.508633
@<TRIPOS>BOND
     1    1    2 ar  
     2    1    5 ar  
     3    2    3 1   
     4    2    4 ar  
     5    3   10 1   
     6    3   11 1   
     7    3   12 1   
     8    4    6 ar  
     9    5    7 ar  
    10    5    9 1   
    11    6    7 ar  
    12    6    8 1   
    13    8   15 1   
    14    8   16 1   
    15    8   17 1   
    16    9   13 1   
    17    9   14 1   
    18    9   18 1   
@<TRIPOS>SUBSTRUCTURE
     1 3AW         1 TEMP              0 ****  ****    0 ROOT
