@<TRIPOS>MOLECULE
3AW
   16    16     1     0     0
SMALL
bcc


@<TRIPOS>ATOM
      1 N1          0.7190   -1.2160    0.0010 nb        1 3AW     -0.824000
      2 C6          1.3380    0.0000    0.0080 ca        1 3AW      0.728300
      3 C5          2.8500   -0.0000    0.0120 c3        1 3AW     -0.139400
      4 NAA         0.7190    1.2160    0.0010 nb        1 3AW     -0.824000
      5 C2         -0.6750   -1.1670   -0.0220 ca        1 3AW      0.924900
      6 CAI        -0.6750    1.1670   -0.0220 ca        1 3AW      0.924900
      7 NAH        -1.4240    0.0000   -0.0060 nb        1 3AW     -0.851000
      8 NAI        -1.3610    2.3700   -0.1030 nh        1 3AW     -0.944500
      9 N3         -1.3620   -2.3700   -0.1030 nh        1 3AW     -0.944500
     10 H51C        3.2050    0.0000   -1.0480 hc        1 3AW      0.063700
     11 H52C        3.2450    0.9090    0.5270 hc        1 3AW      0.063700
     12 H53C        3.2450   -0.9090    0.5260 hc        1 3AW      0.063700
     13 H31N       -0.8610   -3.2080    0.0630 hn        1 3AW      0.439800
     14 H32N       -2.3400   -2.3660    0.0500 hn        1 3AW      0.439800
     15 HAI1       -0.8610    3.2080    0.0630 hn        1 3AW      0.439800
     16 HAI2       -2.3400    2.3670    0.0500 hn        1 3AW      0.439800
@<TRIPOS>BOND
     1    1    2 ar  
     2    1    5 ar  
     3    2    3 1   
     4    2    4 ar  
     5    3   10 1   
     6    3   11 1   
     7    3   12 1   
     8    4    6 ar  
     9    5    7 ar  
    10    5    9 1   
    11    6    7 ar  
    12    6    8 1   
    13    8   15 1   
    14    8   16 1   
    15    9   13 1   
    16    9   14 1   
@<TRIPOS>SUBSTRUCTURE
     1 3AW         1 TEMP              0 ****  ****    0 ROOT
