@<TRIPOS>MOLECULE
3AW
   16    12     1     0     0
SMALL
bcc


@<TRIPOS>ATOM
      1 N1         -0.7700   -0.0080   -0.9890 n1        1 3AW     -0.309500
      2 C6          0.5720   -0.0080   -0.9890 c1        1 3AW      0.108000
      3 C5          1.3280    0.0210   -2.2990 c2        1 3AW     -0.163000
      4 NAA         1.2420   -0.0080    0.1730 n1        1 3AW     -0.295000
      5 C2         -1.4400   -0.0080    0.1730 c1        1 3AW      0.203000
      6 CAI         0.5720   -0.0080    1.3340 c1        1 3AW      0.203000
      7 NAH        -0.7700   -0.0080    1.3340 n1        1 3AW     -0.309500
      8 NAI         1.2810   -0.0130    2.5630 n3        1 3AW     -0.338000
      9 N3         -2.8590   -0.0110    0.1730 n3        1 3AW     -0.338000
     10 H51C        1.1100    0.8400   -2.7820 ha        1 3AW      0.103333
     11 H52C        2.2870   -0.0070   -2.1210 ha        1 3AW      0.103333
     12 H53C        1.0740   -0.7520   -2.8380 ha        1 3AW      0.103333
     13 H31N       -3.3150   -0.0590   -0.6160 hn        1 3AW      0.232750
     14 H32N       -3.3150    0.0440    0.9610 hn        1 3AW      0.232750
     15 HAI1        1.9400    0.5990    2.7110 hn        1 3AW      0.232750
     16 HAI2        1.0620   -0.6140    3.2130 hn        1 3AW      0.232750
@<TRIPOS>BOND
     1    1    5 1   
     2    2    4 1   
     3    3   10 1   
     4    3   11 1   
     5    3   12 1   
     6    5    9 1   
     7    6    7 1   
     8    6    8 1   
     9    8   15 1   
    10    8   16 1   
    11    9   13 1   
    12    9   14 1   
@<TRIPOS>SUBSTRUCTURE
     1 3AW         1 TEMP              0 ****  ****    0 ROOT
