@<TRIPOS>MOLECULE
3AX
   11    11     1     0     0
SMALL
bcc


@<TRIPOS>ATOM
      1 N2         -0.0500   -0.1780    0.0800 nv        1 3AX     -0.781200
      2 C1          1.3350   -0.0440   -0.0280 cc        1 3AX      0.082300
      3 N1          2.2150    0.2740    1.0470 na        1 3AX     -0.043600
      4 N3          3.4960    0.1990    0.6620 nc        1 3AX     -0.528800
      5 C3          3.5050   -0.0510   -0.6670 cd        1 3AX      0.323200
      6 C2          2.1580   -0.2150   -1.1640 cd        1 3AX     -0.346300
      7 H1         -0.5060    0.0650   -0.7760 hn        1 3AX      0.389800
      8 H2         -0.4500    0.2960    0.8620 hn        1 3AX      0.389800
      9 H3          1.9960    0.1560    2.0100 hn        1 3AX      0.308700
     10 H4          4.4290   -0.1080   -1.2420 h4        1 3AX      0.040100
     11 H5          1.8540   -0.4310   -2.1790 ha        1 3AX      0.166000
@<TRIPOS>BOND
     1    1    2 1   
     2    1    7 1   
     3    1    8 1   
     4    2    3 1   
     5    2    6 2   
     6    3    4 1   
     7    3    9 1   
     8    4    5 2   
     9    5    6 1   
    10    5   10 1   
    11    6   11 1   
@<TRIPOS>SUBSTRUCTURE
     1 3AX         1 TEMP              0 ****  ****    0 ROOT
