@<TRIPOS>MOLECULE
3AX
   11    11     1     0     0
SMALL
bcc


@<TRIPOS>ATOM
      1 N2          2.1270   -0.0260    0.2000 nh        1 3AX     -0.781200
      2 C1          0.7410   -0.0750    0.0540 cc        1 3AX      0.082300
      3 N1         -0.1110    1.0580   -0.0940 na        1 3AX     -0.043600
      4 N3         -1.4020    0.6990   -0.0770 nc        1 3AX     -0.528800
      5 C3         -1.4450   -0.6520   -0.0350 cd        1 3AX      0.323200
      6 C2         -0.1120   -1.2030    0.0490 cd        1 3AX     -0.346300
      7 H1          2.5620   -0.8460   -0.1730 hn        1 3AX      0.389800
      8 H2          2.5490    0.8100   -0.1480 hn        1 3AX      0.389800
      9 H3          0.1330    1.9850    0.1700 hn        1 3AX      0.308700
     10 H4         -2.3850   -1.2050   -0.0640 h4        1 3AX      0.040100
     11 H5          0.1650   -2.2470    0.1070 ha        1 3AX      0.166000
@<TRIPOS>BOND
     1    1    2 1   
     2    1    7 1   
     3    1    8 1   
     4    2    3 1   
     5    2    6 2   
     6    3    4 1   
     7    3    9 1   
     8    4    5 2   
     9    5    6 1   
    10    5   10 1   
    11    6   11 1   
@<TRIPOS>SUBSTRUCTURE
     1 3AX         1 TEMP              0 ****  ****    0 ROOT
