@<TRIPOS>MOLECULE
3AX
   11     8     1     0     0
SMALL
bcc


@<TRIPOS>ATOM
      1 N2         -1.8310    0.0000    0.1220 nh        1 3AX     -0.451100
      2 C1         -0.4120    0.0000    0.1220 ce        1 3AX      0.282200
      3 N1          0.3820    0.0000    1.2140 ne        1 3AX     -0.363300
      4 N3          1.6870    0.0000    0.7910 nf        1 3AX     -0.132000
      5 C3          1.6880    0.0000   -0.5590 ch        1 3AX     -0.119000
      6 C2          0.3910    0.0000   -0.9820 cg        1 3AX     -0.284200
      7 H1         -2.2870    0.7900    0.1250 hn        1 3AX      0.223700
      8 H2         -2.2870   -0.7900    0.1250 hn        1 3AX      0.223700
      9 H3          0.1000    0.0000    2.0810 DU        1 3AX      0.206333
     10 H4          2.4790    0.0000   -1.1310 DU        1 3AX      0.206333
     11 H5          0.0900    0.0000   -1.9100 DU        1 3AX      0.206333
@<TRIPOS>BOND
     1    1    2 2   
     2    1    7 1   
     3    1    8 1   
     4    2    3 1   
     5    2    6 1   
     6    3    4 2   
     7    4    5 1   
     8    5    6 3   
@<TRIPOS>SUBSTRUCTURE
     1 3AX         1 TEMP              0 ****  ****    0 ROOT
