@<TRIPOS>MOLECULE
3AX
   12    12     1     0     0
SMALL
bcc


@<TRIPOS>ATOM
      1 N2         -0.0650    0.0340    0.0540 n4        1 3AX     -0.665000
      2 C1          1.3750    0.0050   -0.0180 cc        1 3AX     -0.168700
      3 N1          2.2510   -0.0650    1.0950 na        1 3AX      0.019400
      4 N3          3.5090   -0.0750    0.7010 nc        1 3AX     -0.401800
      5 C3          3.5300   -0.0150   -0.6640 cd        1 3AX      0.321200
      6 C2          2.1880    0.0380   -1.1780 cd        1 3AX     -0.175300
      7 H1         -0.4280    0.0850   -0.9080 hn        1 3AX      0.474133
      8 H2         -0.4220   -0.8190    0.5040 hn        1 3AX      0.474133
      9 H3          2.0150   -0.1030    2.0640 hn        1 3AX      0.355700
     10 H4          4.4680   -0.0110   -1.2300 h4        1 3AX      0.092100
     11 H5          1.8840    0.0920   -2.2210 ha        1 3AX      0.200000
     12 H23        -0.3850    0.8580    0.5800 hn        1 3AX      0.474133
@<TRIPOS>BOND
     1    1    2 1   
     2    1    7 1   
     3    1    8 1   
     4    1   12 1   
     5    2    3 1   
     6    2    6 2   
     7    3    4 1   
     8    3    9 1   
     9    4    5 2   
    10    5    6 1   
    11    5   10 1   
    12    6   11 1   
@<TRIPOS>SUBSTRUCTURE
     1 3AX         1 TEMP              0 ****  ****    0 ROOT
