@<TRIPOS>MOLECULE
3AX
   11    11     1     0     0
SMALL
bcc


@<TRIPOS>ATOM
      1 N2         -0.0480   -0.1750    0.0970 nh        1 3AX     -0.781200
      2 C1          1.3350   -0.0440   -0.0230 cc        1 3AX      0.082300
      3 N1          2.2250    0.2800    1.0420 na        1 3AX     -0.043600
      4 N3          3.5030    0.2020    0.6470 nc        1 3AX     -0.528800
      5 C3          3.5000   -0.0550   -0.6820 cd        1 3AX      0.323200
      6 C2          2.1490   -0.2210   -1.1660 cd        1 3AX     -0.346300
      7 H1         -0.4410    0.3040    0.8800 hn        1 3AX      0.389800
      8 H2         -0.5110    0.0630   -0.7570 hn        1 3AX      0.389800
      9 H3          2.0140    0.1670    2.0080 hn        1 3AX      0.308700
     10 H4          4.4200   -0.1170   -1.2640 h4        1 3AX      0.040100
     11 H5          1.8360   -0.4430   -2.1770 ha        1 3AX      0.166000
@<TRIPOS>BOND
     1    1    2 1   
     2    1    7 1   
     3    1    8 1   
     4    2    3 1   
     5    2    6 2   
     6    3    4 1   
     7    3    9 1   
     8    4    5 2   
     9    5    6 1   
    10    5   10 1   
    11    6   11 1   
@<TRIPOS>SUBSTRUCTURE
     1 3AX         1 TEMP              0 ****  ****    0 ROOT
