@<TRIPOS>MOLECULE
3AY
   16    16     1     0     0
SMALL
bcc


@<TRIPOS>ATOM
      1 NAA        -0.0210   -0.1590    0.0100 nh        1 3AY     -0.940500
      2 C6          1.3690   -0.0520   -0.0090 ca        1 3AY      0.721200
      3 C5          2.0740    0.0910    1.2180 ca        1 3AY     -0.529600
      4 N1          2.0190   -0.1480   -1.2120 nb        1 3AY     -0.836000
      5 C2          3.4010   -0.1150   -1.1620 ca        1 3AY      0.918900
      6 NAH         4.0790   -0.1050   -2.3920 nh        1 3AY     -0.924500
      7 N3          4.1760   -0.0210   -0.0210 nb        1 3AY     -0.836000
      8 C4          3.4960    0.0740    1.1650 ca        1 3AY      0.721200
      9 NAI         4.2240    0.0920    2.3540 nh        1 3AY     -0.940500
     10 HAA1       -0.5000   -0.0590   -0.8550 hn        1 3AY      0.414800
     11 HAA2       -0.4640    0.2510    0.7970 hn        1 3AY      0.414800
     12 H5          1.5430    0.1700    2.1720 ha        1 3AY      0.146000
     13 HAH1        5.0390   -0.3610   -2.3610 hn        1 3AY      0.420800
     14 HAH2        3.5680   -0.4480   -3.1730 hn        1 3AY      0.420800
     15 HAI1        3.7570    0.5010    3.1280 hn        1 3AY      0.414800
     16 HAI2        5.1990    0.2790    2.2910 hn        1 3AY      0.414800
@<TRIPOS>BOND
     1    1    2 1   
     2    1   10 1   
     3    1   11 1   
     4    2    3 ar  
     5    2    4 ar  
     6    3    8 ar  
     7    3   12 1   
     8    4    5 ar  
     9    5    6 1   
    10    5    7 ar  
    11    6   13 1   
    12    6   14 1   
    13    7    8 ar  
    14    8    9 1   
    15    9   15 1   
    16    9   16 1   
@<TRIPOS>SUBSTRUCTURE
     1 3AY         1 TEMP              0 ****  ****    0 ROOT
