@<TRIPOS>MOLECULE
3AY
   16    16     1     0     0
SMALL
bcc


@<TRIPOS>ATOM
      1 NAA         2.4280    1.3490   -0.1550 nh        1 3AY     -0.940500
      2 C6          1.2160    0.6690   -0.0400 ca        1 3AY      0.721200
      3 C5          0.0000    1.4070   -0.0360 ca        1 3AY     -0.529600
      4 N1          1.2340   -0.7010    0.0040 nb        1 3AY     -0.836000
      5 C2         -0.0000   -1.3250    0.0360 ca        1 3AY      0.918900
      6 NAH        -0.0000   -2.7210    0.1890 nh        1 3AY     -0.924500
      7 N3         -1.2340   -0.7010    0.0030 nb        1 3AY     -0.836000
      8 C4         -1.2160    0.6690   -0.0410 ca        1 3AY      0.721200
      9 NAI        -2.4280    1.3490   -0.1570 nh        1 3AY     -0.940500
     10 HAA1        2.4140    2.2900    0.1610 hn        1 3AY      0.414800
     11 HAA2        3.2590    0.8410    0.0420 hn        1 3AY      0.414800
     12 H5          0.0000    2.5010   -0.0690 ha        1 3AY      0.146000
     13 HAH1       -0.8410   -3.1860   -0.0650 hn        1 3AY      0.420800
     14 HAH2        0.8410   -3.1860   -0.0640 hn        1 3AY      0.420800
     15 HAI1       -2.4140    2.2900    0.1590 hn        1 3AY      0.414800
     16 HAI2       -3.2590    0.8410    0.0400 hn        1 3AY      0.414800
@<TRIPOS>BOND
     1    1    2 1   
     2    1   10 1   
     3    1   11 1   
     4    2    3 ar  
     5    2    4 ar  
     6    3    8 ar  
     7    3   12 1   
     8    4    5 ar  
     9    5    6 1   
    10    5    7 ar  
    11    6   13 1   
    12    6   14 1   
    13    7    8 ar  
    14    8    9 1   
    15    9   15 1   
    16    9   16 1   
@<TRIPOS>SUBSTRUCTURE
     1 3AY         1 TEMP              0 ****  ****    0 ROOT
