@<TRIPOS>MOLECULE
3AY
   16    16     1     0     0
SMALL
bcc


@<TRIPOS>ATOM
      1 NAA        -0.0050   -0.3770    0.0600 nv        1 3AY     -0.937500
      2 C6          1.3720   -0.1550    0.0160 ca        1 3AY      0.718700
      3 C5          2.0910   -0.0010    1.2340 ca        1 3AY     -0.526600
      4 N1          1.9980   -0.1430   -1.2030 nb        1 3AY     -0.836500
      5 C2          3.3780   -0.0420   -1.1760 ca        1 3AY      0.920900
      6 NAH         4.0470   -0.1730   -2.4030 nv        1 3AY     -0.927500
      7 N3          4.1650    0.1220   -0.0510 nb        1 3AY     -0.836500
      8 C4          3.5020    0.1520    1.1480 ca        1 3AY      0.718700
      9 NAI         4.2320    0.4100    2.3110 nv        1 3AY     -0.937500
     10 HAA1       -0.4630   -0.0120    0.8610 hn        1 3AY      0.413050
     11 HAA2       -0.5070   -0.2980   -0.7950 hn        1 3AY      0.413050
     12 H5          1.5770    0.0030    2.2000 ha        1 3AY      0.146000
     13 HAH1        4.9760    0.1770   -2.4360 hn        1 3AY      0.422800
     14 HAH2        3.4990   -0.0300   -3.2190 hn        1 3AY      0.422800
     15 HAI1        5.2210    0.3170    2.2530 hn        1 3AY      0.413050
     16 HAI2        3.8220    0.0590    3.1450 hn        1 3AY      0.413050
@<TRIPOS>BOND
     1    1    2 1   
     2    1   10 1   
     3    1   11 1   
     4    2    3 ar  
     5    2    4 ar  
     6    3    8 ar  
     7    3   12 1   
     8    4    5 ar  
     9    5    6 1   
    10    5    7 ar  
    11    6   13 1   
    12    6   14 1   
    13    7    8 ar  
    14    8    9 1   
    15    9   15 1   
    16    9   16 1   
@<TRIPOS>SUBSTRUCTURE
     1 3AY         1 TEMP              0 ****  ****    0 ROOT
