@<TRIPOS>MOLECULE
3AY
   19    19     1     0     0
SMALL
bcc


@<TRIPOS>ATOM
      1 NAA        -0.0980   -0.0500   -0.0330 n4        1 3AY     -0.838300
      2 C6          1.3800   -0.0180   -0.0070 ca        1 3AY      0.591200
      3 C5          2.0770   -0.0430    1.2310 ca        1 3AY     -0.251600
      4 N1          2.0200    0.0340   -1.2110 nb        1 3AY     -0.605000
      5 C2          3.3900    0.0630   -1.1730 ca        1 3AY      0.816900
      6 NAH         4.1090    0.1200   -2.4800 n4        1 3AY     -0.822300
      7 N3          4.1650    0.0430   -0.0370 nb        1 3AY     -0.605000
      8 C4          3.4990   -0.0090    1.1480 ca        1 3AY      0.591200
      9 NAI         4.3100   -0.0310    2.3840 n4        1 3AY     -0.838300
     10 HAA1       -0.4720    0.8040   -0.4980 hn        1 3AY      0.522300
     11 HAA2       -0.4740   -0.0970    0.9290 hn        1 3AY      0.522300
     12 H5          1.5500   -0.0860    2.2070 ha        1 3AY      0.243000
     13 HAH1        3.4350    0.1320   -3.2720 hn        1 3AY      0.527800
     14 HAH2        4.7270   -0.7100   -2.5770 hn        1 3AY      0.527800
     15 HAI1        4.1200   -0.9040    2.9110 hn        1 3AY      0.522300
     16 HAI2        4.0690    0.7870    2.9750 hn        1 3AY      0.522300
     17 HAA3       -0.4360   -0.8780   -0.5670 hn        1 3AY      0.522300
     18 HAH3        4.6920    0.9800   -2.5220 hn        1 3AY      0.527800
     19 HAI3        5.3320    0.0070    2.1770 hn        1 3AY      0.522300
@<TRIPOS>BOND
     1    1    2 1   
     2    1   10 1   
     3    1   11 1   
     4    1   17 1   
     5    2    3 ar  
     6    2    4 ar  
     7    3    8 ar  
     8    3   12 1   
     9    4    5 ar  
    10    5    6 1   
    11    5    7 ar  
    12    6   13 1   
    13    6   14 1   
    14    6   18 1   
    15    7    8 ar  
    16    8    9 1   
    17    9   15 1   
    18    9   16 1   
    19    9   19 1   
@<TRIPOS>SUBSTRUCTURE
     1 3AY         1 TEMP              0 ****  ****    0 ROOT
