@<TRIPOS>MOLECULE
3AY
   16    14     1     0     0
SMALL
bcc


@<TRIPOS>ATOM
      1 NAA        -2.7050    0.0100   -0.1320 n3        1 3AY     -0.334000
      2 C6         -1.2860    0.0100   -0.1320 c2        1 3AY      0.196000
      3 C5         -0.6040    0.0100    1.0500 c2        1 3AY     -0.396000
      4 N1         -0.6150    0.0100   -1.2930 n1        1 3AY     -0.310000
      5 C2          0.7470    0.0100   -1.2930 c1        1 3AY      0.202000
      6 NAH         1.4560    0.0110   -2.5220 n3        1 3AY     -0.325000
      7 N3          1.4300    0.0100   -0.1140 n1        1 3AY     -0.311000
      8 C4          0.7610    0.0100    1.0490 c1        1 3AY      0.199000
      9 NAI         1.4710   -0.0300    2.2760 n3        1 3AY     -0.336000
     10 HAA1       -3.1610   -0.7790   -0.1620 hn        1 3AY      0.207500
     11 HAA2       -3.1610    0.8000   -0.1170 hn        1 3AY      0.207500
     12 H5         -1.0920    0.0100    1.8960 ha        1 3AY      0.146000
     13 HAH1        1.1980    0.5680   -3.1970 hn        1 3AY      0.218000
     14 HAH2        2.1530   -0.5640   -2.6470 hn        1 3AY      0.218000
     15 HAI1        1.6720   -0.8320    2.6610 hn        1 3AY      0.209000
     16 HAI2        1.7350    0.7460    2.6760 hn        1 3AY      0.209000
@<TRIPOS>BOND
     1    1    2 1   
     2    1   10 1   
     3    1   11 1   
     4    2    3 1   
     5    2    4 1   
     6    3    8 1   
     7    3   12 1   
     8    5    6 1   
     9    5    7 1   
    10    6   13 1   
    11    6   14 1   
    12    8    9 1   
    13    9   15 1   
    14    9   16 1   
@<TRIPOS>SUBSTRUCTURE
     1 3AY         1 TEMP              0 ****  ****    0 ROOT
