@<TRIPOS>MOLECULE
3AZ
   19    16     1     0     0
SMALL
bcc


@<TRIPOS>ATOM
      1 C           0.8390   -0.0730   -2.9120 c1        1 3AZ      0.356000
      2 N           1.0270    0.8290    2.7160 n3        1 3AZ     -0.339000
      3 O           1.2110    1.0480   -3.4560 o         1 3AZ     -0.566500
      4 C1          0.0130   -0.2180    0.7530 c1        1 3AZ     -0.159000
      5 C2          0.7350   -0.1800   -0.4500 c1        1 3AZ     -0.105000
      6 C3          0.0770   -0.0630   -1.6350 c1        1 3AZ     -0.103000
      7 C4         -1.3420    0.0200   -1.6540 c2        1 3AZ     -0.104000
      8 C5         -2.0480   -0.0190   -0.4680 c1        1 3AZ     -0.165000
      9 C6         -1.3740   -0.1380    0.7360 c1        1 3AZ     -0.146000
     10 CA          0.7730   -0.4340    2.1200 c3        1 3AZ     -0.043000
     11 OXT         1.1920   -1.2330   -3.4680 o         1 3AZ     -0.566500
     12 HN          1.7320    1.3200    2.1800 hn        1 3AZ      0.138000
     13 HNA         0.2730    1.3110    2.7280 hn        1 3AZ      0.138000
     14 H2          1.7830   -0.2380   -0.4360 ha        1 3AZ      0.148000
     15 H4         -1.8330    0.0620   -2.5320 ha        1 3AZ      0.150000
     16 H5         -3.0300    0.0380   -0.4760 ha        1 3AZ      0.104000
     17 H6         -1.8760   -0.1660    1.5810 ha        1 3AZ      0.102000
     18 HA          1.6220   -0.8960    1.9550 h1        1 3AZ      0.080000
     19 HAA         0.2240   -0.9690    2.7160 h1        1 3AZ      0.080000
@<TRIPOS>BOND
     1    1    3 1   
     2    1   11 1   
     3    2   10 1   
     4    2   12 1   
     5    2   13 1   
     6    4    9 1   
     7    4   10 1   
     8    5    6 1   
     9    5   14 1   
    10    6    7 1   
    11    7    8 1   
    12    7   15 1   
    13    8   16 1   
    14    9   17 1   
    15   10   18 1   
    16   10   19 1   
@<TRIPOS>SUBSTRUCTURE
     1 3AZ         1 TEMP              0 ****  ****    0 ROOT
