@<TRIPOS>MOLECULE
3AZ
   19    19     1     0     0
SMALL
bcc


@<TRIPOS>ATOM
      1 C          -2.2610   -0.4580   -0.0260 c         1 3AZ      0.907200
      2 N           3.6470   -1.0040   -0.5960 n3        1 3AZ     -0.904800
      3 O          -2.3420   -1.7120    0.1030 o         1 3AZ     -0.831300
      4 C1          1.5240   -0.0410    0.3020 ca        1 3AZ     -0.169300
      5 C2          0.2530   -0.6170    0.2470 ca        1 3AZ     -0.093000
      6 C3         -0.8790    0.1770    0.0390 ca        1 3AZ     -0.125600
      7 C4         -0.7270    1.5590   -0.1120 ca        1 3AZ     -0.103000
      8 C5          0.5400    2.1390   -0.0560 ca        1 3AZ     -0.164000
      9 C6          1.6650    1.3430    0.1500 ca        1 3AZ     -0.153000
     10 OXT        -3.2530    0.3030   -0.2070 o         1 3AZ     -0.831300
     11 HN          3.1970   -1.4810   -1.3550 hn        1 3AZ      0.336800
     12 HNA         3.9020   -0.0890   -0.9210 hn        1 3AZ      0.336800
     13 H2          0.1100   -1.7040    0.3650 ha        1 3AZ      0.152000
     14 H4         -1.6300    2.1690   -0.2750 ha        1 3AZ      0.151000
     15 H5          0.6540    3.2250   -0.1740 ha        1 3AZ      0.104000
     16 H6          2.6630    1.7990    0.1990 ha        1 3AZ      0.100000
     17 HA          2.4210   -1.9340    0.8160 h1        1 3AZ      0.046200
     18 HAA         3.3270   -0.4630    1.3890 h1        1 3AZ      0.046200
     19 CA          2.7400   -0.8920    0.5250 c3        1 3AZ      0.197100
@<TRIPOS>BOND
     1    1    3 1   
     2    1    6 1   
     3    1   10 1   
     4    2   11 1   
     5    2   12 1   
     6    2   19 1   
     7    4    5 ar  
     8    4    9 ar  
     9    4   19 1   
    10    5    6 ar  
    11    5   13 1   
    12    6    7 ar  
    13    7    8 ar  
    14    7   14 1   
    15    8    9 ar  
    16    8   15 1   
    17    9   16 1   
    18   17   19 1   
    19   18   19 1   
@<TRIPOS>SUBSTRUCTURE
     1 3AZ         1 TEMP              0 ****  ****    0 ROOT
