@<TRIPOS>MOLECULE
3B0
   16    16     1     0     0
SMALL
bcc


@<TRIPOS>ATOM
      1 C01        -0.0260   -0.0660   -0.0180 ca        1 3B0     -0.324300
      2 F01         4.1600   -0.7030    0.2450 f         1 3B0     -0.239633
      3 F02         4.1230    1.2530    1.1720 f         1 3B0     -0.239633
      4 C02         2.0410    0.0010    1.2070 ca        1 3B0     -0.361600
      5 C03         1.3590   -0.0810   -0.0120 ca        1 3B0      0.000000
      6 C04         3.5530    0.0040    1.2560 c3        1 3B0      0.704200
      7 F           4.0900   -0.5260    2.4060 f         1 3B0     -0.239633
      8 C05         1.2860    0.0910    2.3920 ca        1 3B0      0.497200
      9 N01        -0.0500    0.1070    2.4310 nb        1 3B0     -0.733000
     10 C          -0.7260    0.0430    1.2290 ca        1 3B0      0.684200
     11 N          -2.1070    0.1430    1.2320 nh        1 3B0     -0.948500
     12 H1         -0.5790   -0.1270   -0.9640 ha        1 3B0      0.148000
     13 H2          1.9240   -0.1630   -0.9560 ha        1 3B0      0.154000
     14 H3          1.7910    0.1440    3.3770 h4        1 3B0      0.039100
     15 H4         -2.5790   -0.1710    0.4200 hn        1 3B0      0.429300
     16 H5         -2.5900    0.0730    2.0960 hn        1 3B0      0.429300
@<TRIPOS>BOND
     1    1    5 ar  
     2    1   10 ar  
     3    1   12 1   
     4    2    6 1   
     5    3    6 1   
     6    4    5 ar  
     7    4    6 1   
     8    4    8 ar  
     9    5   13 1   
    10    6    7 1   
    11    8    9 ar  
    12    8   14 1   
    13    9   10 ar  
    14   10   11 1   
    15   11   15 1   
    16   11   16 1   
@<TRIPOS>SUBSTRUCTURE
     1 3B0         1 TEMP              0 ****  ****    0 ROOT
