@<TRIPOS>MOLECULE
3B0
   16    16     1     0     0
SMALL
bcc


@<TRIPOS>ATOM
      1 C01        -0.0260   -0.0940   -0.0160 ca        1 3B0     -0.324300
      2 F01         4.1630   -0.7060    0.2610 f         1 3B0     -0.239633
      3 F02         4.1170    1.2690    1.1450 f         1 3B0     -0.239633
      4 C02         2.0410    0.0080    1.2070 ca        1 3B0     -0.361600
      5 C03         1.3600   -0.1030   -0.0100 ca        1 3B0      0.000000
      6 C04         3.5530    0.0200    1.2560 c3        1 3B0      0.704200
      7 F           4.0920   -0.4830    2.4170 f         1 3B0     -0.239633
      8 C05         1.2850    0.1200    2.3900 ca        1 3B0      0.497200
      9 N01        -0.0500    0.1300    2.4290 nb        1 3B0     -0.733000
     10 C          -0.7260    0.0380    1.2290 ca        1 3B0      0.684200
     11 N          -2.1070    0.1320    1.2300 nv        1 3B0     -0.948500
     12 H1         -0.5790   -0.1780   -0.9600 ha        1 3B0      0.148000
     13 H2          1.9250   -0.2020   -0.9510 ha        1 3B0      0.154000
     14 H3          1.7900    0.1970    3.3730 h4        1 3B0      0.039100
     15 H4         -2.5790   -0.2020    0.4250 hn        1 3B0      0.429300
     16 H5         -2.5910    0.0770    2.0950 hn        1 3B0      0.429300
@<TRIPOS>BOND
     1    1    5 ar  
     2    1   10 ar  
     3    1   12 1   
     4    2    6 1   
     5    3    6 1   
     6    4    5 ar  
     7    4    6 1   
     8    4    8 ar  
     9    5   13 1   
    10    6    7 1   
    11    8    9 ar  
    12    8   14 1   
    13    9   10 ar  
    14   10   11 1   
    15   11   15 1   
    16   11   16 1   
@<TRIPOS>SUBSTRUCTURE
     1 3B0         1 TEMP              0 ****  ****    0 ROOT
