@<TRIPOS>MOLECULE
3B1
   29    30     1     0     0
SMALL
bcc


@<TRIPOS>ATOM
      1 C10        -0.1140    0.1830    0.0310 ca        1 3B1     -0.133000
      2 C01         1.2780    0.1480   -0.0400 ca        1 3B1     -0.106500
      3 N01         4.3460    2.4410    0.5290 n1        1 3B1     -0.364800
      4 C02        -0.7560    0.0810    1.2650 ca        1 3B1     -0.118000
      5 C03         6.0930   -2.0330   -0.8870 c3        1 3B1      0.127400
      6 C04         2.0330    0.0090    1.1290 ca        1 3B1     -0.100300
      7 C05         5.5300   -0.9470    0.0370 c3        1 3B1      0.125300
      8 N           4.0740   -0.9940    0.1230 n3        1 3B1     -0.714600
      9 C06        -0.0040   -0.0570    2.4310 ca        1 3B1     -0.133000
     10 C07         4.1990   -3.3900   -0.5160 c3        1 3B1      0.127400
     11 C08         4.0050    1.3540    0.7550 c1        1 3B1      0.216700
     12 C09         3.5460   -0.0040    1.0780 c3        1 3B1      0.299900
     13 O           5.6200   -3.3260   -0.5280 os        1 3B1     -0.414600
     14 C11         1.3880   -0.0940    2.3660 ca        1 3B1     -0.106500
     15 C           3.5940   -2.3400    0.4210 c3        1 3B1      0.125300
     16 H1         -0.7060    0.2940   -0.8900 ha        1 3B1      0.136000
     17 H2          1.7850    0.2310   -1.0140 ha        1 3B1      0.142000
     18 H3         -1.8550    0.1110    1.3190 ha        1 3B1      0.135000
     19 H5          7.2060   -2.0980   -0.7690 h1        1 3B1      0.057200
     20 H6          5.8230    0.0580   -0.3790 h1        1 3B1      0.048700
     21 H7          6.0100   -1.0600    1.0530 h1        1 3B1      0.048700
     22 H9         -0.5080   -0.1350    3.4060 ha        1 3B1      0.136000
     23 H10         3.9680   -4.4200   -0.1380 h1        1 3B1      0.057200
     24 H11         3.8080   -3.2640   -1.5600 h1        1 3B1      0.057200
     25 H12         3.9340   -0.2270    2.1280 h1        1 3B1      0.054700
     26 H13         1.9760   -0.2000    3.2910 ha        1 3B1      0.142000
     27 H14         2.4760   -2.3420    0.2920 h1        1 3B1      0.048700
     28 H15         3.8260   -2.6360    1.4860 h1        1 3B1      0.048700
     29 H4          5.8280   -1.8190   -1.9560 h1        1 3B1      0.057200
@<TRIPOS>BOND
     1    1    2 ar  
     2    1    4 ar  
     3    1   16 1   
     4    2    6 ar  
     5    2   17 1   
     6    3   11 3   
     7    4    9 ar  
     8    4   18 1   
     9    5    7 1   
    10    5   13 1   
    11    5   19 1   
    12    5   29 1   
    13    6   12 1   
    14    6   14 ar  
    15    7    8 1   
    16    7   20 1   
    17    7   21 1   
    18    8   12 1   
    19    8   15 1   
    20    9   14 ar  
    21    9   22 1   
    22   10   13 1   
    23   10   15 1   
    24   10   23 1   
    25   10   24 1   
    26   11   12 1   
    27   12   25 1   
    28   14   26 1   
    29   15   27 1   
    30   15   28 1   
@<TRIPOS>SUBSTRUCTURE
     1 3B1         1 TEMP              0 ****  ****    0 ROOT
