@<TRIPOS>MOLECULE
3B1
   29    28     1     0     0
SMALL
bcc


@<TRIPOS>ATOM
      1 C10        -0.6630   -0.2540    0.9780 ca        1 3B1     -0.128000
      2 C01         0.6180    0.2410    0.7380 ca        1 3B1     -0.112500
      3 N01         3.2150    2.7490    1.9010 n1        1 3B1     -0.360800
      4 C02        -0.8520   -1.2860    1.8970 ca        1 3B1     -0.117000
      5 C03         7.1230   -2.7220    0.3890 c1        1 3B1     -0.170500
      6 C04         1.7160   -0.2970    1.4160 ca        1 3B1     -0.134300
      7 C05         7.4190   -3.3140    1.3850 c1        1 3B1     -0.170500
      8 N           3.5870    0.0790   -0.2170 n7        1 3B1     -0.818200
      9 C06         0.2410   -1.8220    2.5770 ca        1 3B1     -0.128000
     10 C07         4.4610   -1.4050   -2.0000 c3        1 3B1      0.132400
     11 C08         3.1650    1.6410    1.5590 c1        1 3B1      0.217700
     12 C09         3.1130    0.2300    1.1550 c3        1 3B1      0.293900
     13 O           5.8000   -0.9610   -2.0530 oh        1 3B1     -0.606800
     14 C11         1.5240   -1.3290    2.3380 ca        1 3B1     -0.112500
     15 C           3.8750   -1.2930   -0.5870 c3        1 3B1      0.111800
     16 H1         -1.5240    0.1740    0.4440 ha        1 3B1      0.137000
     17 H2          0.7630    1.0650    0.0220 ha        1 3B1      0.136000
     18 H3         -1.8630   -1.6750    2.0870 ha        1 3B1      0.136000
     19 H5          6.8640   -2.1940   -0.5000 ha        1 3B1      0.169500
     20 H6          2.9340    0.4900   -0.8600 hn        1 3B1      0.366800
     21 H7          7.6850   -3.8400    2.2670 ha        1 3B1      0.169500
     22 H9          0.0930   -2.6330    3.3050 ha        1 3B1      0.137000
     23 H10         4.6400   -1.6980    0.1390 h1        1 3B1      0.052200
     24 H11         4.5110   -2.4890   -2.2920 h1        1 3B1      0.049700
     25 H12         3.8430   -0.3300    1.8240 h1        1 3B1      0.094700
     26 H13         2.3830   -1.7540    2.8800 ha        1 3B1      0.136000
     27 H14         2.9620   -1.9540   -0.5310 h1        1 3B1      0.052200
     28 H15         3.8370   -0.8460   -2.7480 h1        1 3B1      0.049700
     29 H4          5.8150   -0.0390   -1.7680 ho        1 3B1      0.417000
@<TRIPOS>BOND
     1    1    2 ar  
     2    1    4 ar  
     3    1   16 1   
     4    2    6 ar  
     5    2   17 1   
     6    3   11 3   
     7    4    9 ar  
     8    4   18 1   
     9    5    7 3   
    10    5   19 1   
    11    6   12 1   
    12    6   14 ar  
    13    7   21 1   
    14    8   12 1   
    15    8   15 1   
    16    8   20 1   
    17    9   14 ar  
    18    9   22 1   
    19   10   13 1   
    20   10   15 1   
    21   10   24 1   
    22   10   28 1   
    23   11   12 1   
    24   12   25 1   
    25   13   29 1   
    26   14   26 1   
    27   15   23 1   
    28   15   27 1   
@<TRIPOS>SUBSTRUCTURE
     1 3B1         1 TEMP              0 ****  ****    0 ROOT
