@<TRIPOS>MOLECULE
3B3
   34    35     1     0     0
SMALL
bcc


@<TRIPOS>ATOM
      1 C1          0.0600    0.0460   -0.0240 ca        1 3B3     -0.079000
      2 C2          1.4320    0.0600   -0.0180 ca        1 3B3     -0.220300
      3 C3          2.1110    0.0330    1.2380 ca        1 3B3      0.428200
      4 N4          1.4900   -0.0280    2.4010 nb        1 3B3     -0.694000
      5 C4A         0.1090   -0.0630    2.4150 ca        1 3B3      0.353600
      6 C4B        -0.5750   -0.1650    3.6990 ca        1 3B3      0.146300
      7 N5          0.1710   -0.3560    4.8670 nu        1 3B3     -0.743600
      8 C6         -0.4060    0.0110    6.1320 c3        1 3B3      0.168800
      9 C8A        -1.9680   -0.1430    3.7190 ca        1 3B3     -0.216000
     10 C9         -2.7130   -0.0660    2.5340 ca        1 3B3     -0.019000
     11 C10        -2.0830    0.0100    1.3020 ca        1 3B3     -0.184200
     12 C1A        -0.6590    0.0010    1.2100 ca        1 3B3     -0.068300
     13 CB          0.6120   -0.0890    7.2870 c3        1 3B3      0.114100
     14 CA         -0.1760   -0.1640    8.6120 c3        1 3B3      0.095800
     15 N           0.7150   -0.0310    9.7990 nz        1 3B3     -0.831600
     16 O          -2.5450    0.6190   -0.9060 o         1 3B3     -0.198500
     17 OXT        -4.0720   -0.3310    0.1800 o         1 3B3     -0.198500
     18 N1         -2.9540    0.1020    0.0970 no        1 3B3      0.316200
     19 O16         1.4380    1.0590    7.3910 oh        1 3B3     -0.637800
     20 H1         -0.4820    0.0750   -0.9850 ha        1 3B3      0.188000
     21 H2          2.0130    0.0940   -0.9510 ha        1 3B3      0.166000
     22 H3          3.2170    0.0620    1.2710 h4        1 3B3      0.035100
     23 H5          1.1520   -0.1890    4.7840 hn        1 3B3      0.434800
     24 H6C1       -1.2570   -0.7000    6.3460 h1        1 3B3      0.064200
     25 H6C2       -0.8250    1.0610    6.1200 h1        1 3B3      0.064200
     26 H8A        -2.5270   -0.2020    4.6650 ha        1 3B3      0.140000
     27 H9         -3.8180   -0.0720    2.6020 ha        1 3B3      0.178000
     28 HB          1.2680   -1.0000    7.1770 h1        1 3B3      0.085700
     29 HAC1       -0.9260    0.6780    8.6520 hx        1 3B3      0.120700
     30 HAC2       -0.7140   -1.1530    8.6710 hx        1 3B3      0.120700
     31 HN1         0.1600    0.0060   10.6590 hn        1 3B3      0.469800
     32 HN2         1.3640   -0.8230    9.8460 hn        1 3B3      0.469800
     33 H16         1.6740    1.3590    6.5020 ho        1 3B3      0.461000
     34 HN3         1.2670    0.8350    9.7060 hn        1 3B3      0.469800
@<TRIPOS>BOND
     1    1    2 ar  
     2    1   12 ar  
     3    1   20 1   
     4    2    3 ar  
     5    2   21 1   
     6    3    4 ar  
     7    3   22 1   
     8    4    5 ar  
     9    5    6 ar  
    10    5   12 ar  
    11    6    7 1   
    12    6    9 ar  
    13    7    8 1   
    14    7   23 1   
    15    8   13 1   
    16    8   24 1   
    17    8   25 1   
    18    9   10 ar  
    19    9   26 1   
    20   10   11 ar  
    21   10   27 1   
    22   11   12 ar  
    23   11   18 1   
    24   13   14 1   
    25   13   19 1   
    26   13   28 1   
    27   14   15 1   
    28   14   29 1   
    29   14   30 1   
    30   15   31 1   
    31   15   32 1   
    32   15   34 1   
    33   16   18 1   
    34   17   18 1   
    35   19   33 1   
@<TRIPOS>SUBSTRUCTURE
     1 3B3         1 TEMP              0 ****  ****    0 ROOT
