@<TRIPOS>MOLECULE
3B3
   34    35     1     0     0
SMALL
bcc


@<TRIPOS>ATOM
      1 C1          0.0660    0.0450   -0.0220 ca        1 3B3     -0.079000
      2 C2          1.4380    0.0660   -0.0160 ca        1 3B3     -0.220300
      3 C3          2.1160    0.0460    1.2410 ca        1 3B3      0.428200
      4 N4          1.4940   -0.0150    2.4040 nb        1 3B3     -0.694000
      5 C4A         0.1130   -0.0570    2.4170 ca        1 3B3      0.353600
      6 C4B        -0.5720   -0.1600    3.7000 ca        1 3B3      0.146300
      7 N5          0.1740   -0.3440    4.8690 nh        1 3B3     -0.743600
      8 C6         -0.4060    0.0190    6.1340 c3        1 3B3      0.168800
      9 C8A        -1.9650   -0.1440    3.7190 ca        1 3B3     -0.216000
     10 C9         -2.7100   -0.0740    2.5330 ca        1 3B3     -0.019000
     11 C10        -2.0790    0.0010    1.3010 ca        1 3B3     -0.184200
     12 C1A        -0.6540   -0.0010    1.2110 ca        1 3B3     -0.068300
     13 CB          0.6080   -0.0860    7.2910 c3        1 3B3      0.114100
     14 CA         -0.1830   -0.1670    8.6130 c3        1 3B3      0.095800
     15 N           0.7040   -0.0400    9.8040 n4        1 3B3     -0.831600
     16 O          -2.5420    0.6010   -0.9100 o         1 3B3     -0.198500
     17 OXT        -4.0640   -0.3540    0.1780 o         1 3B3     -0.198500
     18 N1         -2.9490    0.0860    0.0950 no        1 3B3      0.316200
     19 O16         1.4340    1.0630    7.4030 oh        1 3B3     -0.637800
     20 H1         -0.4760    0.0680   -0.9850 ha        1 3B3      0.188000
     21 H2          2.0200    0.1000   -0.9480 ha        1 3B3      0.166000
     22 H3          3.2210    0.0810    1.2760 h4        1 3B3      0.035100
     23 H5          1.1540   -0.1700    4.7870 hn        1 3B3      0.434800
     24 H6C1       -1.2590   -0.6920    6.3430 h1        1 3B3      0.064200
     25 H6C2       -0.8240    1.0690    6.1240 h1        1 3B3      0.064200
     26 H8A        -2.5250   -0.2020    4.6640 ha        1 3B3      0.140000
     27 H9         -3.8140   -0.0850    2.5990 ha        1 3B3      0.178000
     28 HB          1.2660   -0.9960    7.1790 h1        1 3B3      0.085700
     29 HAC1       -0.9340    0.6740    8.6550 hx        1 3B3      0.120700
     30 HAC2       -0.7210   -1.1570    8.6660 hx        1 3B3      0.120700
     31 HN1         0.1470   -0.0070   10.6620 hn        1 3B3      0.469800
     32 HN2         1.3540   -0.8310    9.8490 hn        1 3B3      0.469800
     33 H16         1.6740    1.3650    6.5160 ho        1 3B3      0.461000
     34 HN3         1.2560    0.8270    9.7160 hn        1 3B3      0.469800
@<TRIPOS>BOND
     1    1    2 ar  
     2    1   12 ar  
     3    1   20 1   
     4    2    3 ar  
     5    2   21 1   
     6    3    4 ar  
     7    3   22 1   
     8    4    5 ar  
     9    5    6 ar  
    10    5   12 ar  
    11    6    7 1   
    12    6    9 ar  
    13    7    8 1   
    14    7   23 1   
    15    8   13 1   
    16    8   24 1   
    17    8   25 1   
    18    9   10 ar  
    19    9   26 1   
    20   10   11 ar  
    21   10   27 1   
    22   11   12 ar  
    23   11   18 1   
    24   13   14 1   
    25   13   19 1   
    26   13   28 1   
    27   14   15 1   
    28   14   29 1   
    29   14   30 1   
    30   15   31 1   
    31   15   32 1   
    32   15   34 1   
    33   16   18 1   
    34   17   18 1   
    35   19   33 1   
@<TRIPOS>SUBSTRUCTURE
     1 3B3         1 TEMP              0 ****  ****    0 ROOT
