@<TRIPOS>MOLECULE
3B3
   33    34     1     0     0
SMALL
bcc


@<TRIPOS>ATOM
      1 C1         -3.0880    1.4820   -0.0400 ca        1 3B3     -0.097000
      2 C2         -2.7130    2.8020   -0.0480 ca        1 3B3     -0.223300
      3 C3         -1.3210    3.1160   -0.0510 ca        1 3B3      0.401200
      4 N4         -0.3710    2.2010   -0.0600 nb        1 3B3     -0.666000
      5 C4A        -0.7290    0.8680   -0.0600 ca        1 3B3      0.325600
      6 C4B         0.3370   -0.1370   -0.0920 ca        1 3B3      0.218300
      7 N5          1.6490    0.2470   -0.1380 nh        1 3B3     -0.745600
      8 C6          2.7280   -0.7000   -0.1070 c3        1 3B3      0.176800
      9 C8A        -0.0360   -1.4920   -0.0930 ca        1 3B3     -0.275000
     10 C9         -1.3710   -1.8810   -0.0650 ca        1 3B3      0.013000
     11 C10        -2.3980   -0.9410   -0.0210 ca        1 3B3     -0.245200
     12 C1A        -2.0970    0.4540   -0.0340 ca        1 3B3     -0.045300
     13 CB          4.1100   -0.0260   -0.2240 c3        1 3B3      0.116100
     14 CA          5.1930   -1.1120   -0.0810 c3        1 3B3      0.134800
     15 N           6.5140   -0.6150   -0.3660 n3        1 3B3     -0.914800
     16 O          -4.6860   -0.7660    0.4300 o         1 3B3     -0.225500
     17 OXT        -3.9780   -2.6000   -0.2940 o         1 3B3     -0.225500
     18 N1         -3.7830   -1.4580    0.0390 no        1 3B3      0.324200
     19 O16         4.2800    0.9950    0.7410 oh        1 3B3     -0.592800
     20 H1         -4.1600    1.2240   -0.0360 ha        1 3B3      0.180000
     21 H2         -3.4540    3.6130   -0.0510 ha        1 3B3      0.152000
     22 H3         -0.9870    4.1700   -0.0500 h4        1 3B3      0.028100
     23 H5          1.8910    1.2120   -0.0660 hn        1 3B3      0.472800
     24 H6C1        2.6190   -1.4260   -0.9640 h1        1 3B3      0.051200
     25 H6C2        2.6880   -1.2920    0.8540 h1        1 3B3      0.051200
     26 H8A         0.7290   -2.2830   -0.1180 ha        1 3B3      0.146000
     27 H9         -1.6090   -2.9620   -0.0740 ha        1 3B3      0.167000
     28 HB          4.2080    0.5120   -1.2100 h1        1 3B3      0.107700
     29 HAC1        4.9740   -1.9370   -0.8170 h1        1 3B3      0.032200
     30 HAC2        5.1030   -1.5530    0.9570 h1        1 3B3      0.032200
     31 HN1         6.6560    0.2880    0.0450 hn        1 3B3      0.360800
     32 HN2         7.2100   -1.2510   -0.0330 hn        1 3B3      0.360800
     33 H16         4.1990    0.5910    1.6140 ho        1 3B3      0.402000
@<TRIPOS>BOND
     1    1    2 ar  
     2    1   12 ar  
     3    1   20 1   
     4    2    3 ar  
     5    2   21 1   
     6    3    4 ar  
     7    3   22 1   
     8    4    5 ar  
     9    5    6 ar  
    10    5   12 ar  
    11    6    7 1   
    12    6    9 ar  
    13    7    8 1   
    14    7   23 1   
    15    8   13 1   
    16    8   24 1   
    17    8   25 1   
    18    9   10 ar  
    19    9   26 1   
    20   10   11 ar  
    21   10   27 1   
    22   11   12 ar  
    23   11   18 1   
    24   13   14 1   
    25   13   19 1   
    26   13   28 1   
    27   14   15 1   
    28   14   29 1   
    29   14   30 1   
    30   15   31 1   
    31   15   32 1   
    32   16   18 1   
    33   17   18 1   
    34   19   33 1   
@<TRIPOS>SUBSTRUCTURE
     1 3B3         1 TEMP              0 ****  ****    0 ROOT
