@<TRIPOS>MOLECULE
3B3
   33    29     1     0     0
SMALL
bcc


@<TRIPOS>ATOM
      1 C1          0.0630   -0.3270   -3.9900 c1        1 3B3     -0.128000
      2 C2          1.4720   -0.3070   -3.9970 c1        1 3B3     -0.128000
      3 C3          2.1810   -0.3110   -2.7870 c1        1 3B3     -0.064000
      4 N4          1.5090   -0.3360   -1.6040 n1        1 3B3     -0.137000
      5 C4A         0.0820   -0.3560   -1.5950 c1        1 3B3     -0.065000
      6 C4B        -0.6170   -0.4140   -0.3720 c1        1 3B3      0.193000
      7 N5          0.0730   -0.6160    0.8920 n2        1 3B3     -0.283000
      8 C6         -0.0380    0.3500    1.9230 c3        1 3B3     -0.032000
      9 C8A        -2.0050   -0.4670   -0.3670 c2        1 3B3     -0.271000
     10 C9         -2.7040   -0.4620   -1.5640 c1        1 3B3      0.011000
     11 C10        -2.0080   -0.4040   -2.7880 c1        1 3B3     -0.198000
     12 C1A        -0.6200   -0.3510   -2.7950 c1        1 3B3      0.018000
     13 CB          1.1120    0.1750    2.9000 c3        1 3B3      0.024000
     14 CA          0.8520    1.0060    4.1560 c3        1 3B3     -0.114000
     15 N           1.7790    0.6150    5.2080 n3        1 3B3     -0.361000
     16 O          -2.7330    0.3210   -4.9330 o         1 3B3     -0.507700
     17 OXT        -4.3600   -0.4300   -3.5370 o         1 3B3     -0.507700
     18 N1         -3.0570   -0.1090   -3.7980 no        1 3B3      0.842400
     19 O16         2.3200    0.6080    2.2870 oh        1 3B3     -0.334000
     20 H1         -0.4500   -0.3240   -4.8680 ha        1 3B3      0.165000
     21 H2          1.9590   -0.2890   -4.8500 ha        1 3B3      0.165000
     22 H3          3.1720   -0.2960   -2.7930 ha        1 3B3      0.164000
     23 H5          0.4590   -1.3580    1.0500 hn        1 3B3      0.262000
     24 H6C1       -0.0010    1.2690    1.5250 h1        1 3B3      0.093000
     25 H6C2       -0.9230    0.2260    2.4090 h1        1 3B3      0.093000
     26 H8A        -2.4790   -0.5060    0.4610 ha        1 3B3      0.146000
     27 H9         -3.6600   -0.4990   -1.5600 ha        1 3B3      0.167000
     28 HB          1.1940   -0.8050    3.1530 h1        1 3B3      0.089000
     29 HAC1       -0.0190    0.8660    4.4460 h1        1 3B3      0.080500
     30 HAC2        0.9840    1.9920    3.9420 h1        1 3B3      0.080500
     31 HN1         2.1630    1.3680    5.5750 hn        1 3B3      0.155000
     32 HN2         1.3380    0.1700    5.8400 hn        1 3B3      0.155000
     33 H16         2.9630    0.0040    2.4300 ho        1 3B3      0.228000
@<TRIPOS>BOND
     1    1    2 1   
     2    1   20 1   
     3    2   21 1   
     4    3    4 1   
     5    3   22 1   
     6    5    6 1   
     7    5   12 1   
     8    6    9 1   
     9    7    8 1   
    10    7   23 1   
    11    8   13 1   
    12    8   24 1   
    13    8   25 1   
    14    9   10 1   
    15    9   26 1   
    16   10   27 1   
    17   11   12 1   
    18   11   18 1   
    19   13   14 1   
    20   13   19 1   
    21   13   28 1   
    22   14   15 1   
    23   14   29 1   
    24   14   30 1   
    25   15   31 1   
    26   15   32 1   
    27   16   18 2   
    28   17   18 2   
    29   19   33 1   
@<TRIPOS>SUBSTRUCTURE
     1 3B3         1 TEMP              0 ****  ****    0 ROOT
