@<TRIPOS>MOLECULE
3B3
   33    34     1     0     0
SMALL
bcc


@<TRIPOS>ATOM
      1 C1          0.0380   -0.0090   -0.0570 ca        1 3B3     -0.097000
      2 C2          1.4090    0.0400   -0.0660 ca        1 3B3     -0.224300
      3 C3          2.0990    0.0850    1.1820 ca        1 3B3      0.401200
      4 N4          1.4860    0.0670    2.3510 nb        1 3B3     -0.663000
      5 C4A         0.1080    0.0090    2.3800 ca        1 3B3      0.328600
      6 C4B        -0.5570   -0.0340    3.6850 ca        1 3B3      0.209300
      7 N5          0.1840   -0.0980    4.8390 nh        1 3B3     -0.727600
      8 C6         -0.4320    0.0380    6.1330 c3        1 3B3      0.204800
      9 C8A        -1.9620   -0.0690    3.7060 ca        1 3B3     -0.271000
     10 C9         -2.7090   -0.0860    2.5330 ca        1 3B3      0.011000
     11 C10        -2.0950   -0.0500    1.2830 ca        1 3B3     -0.243200
     12 C1A        -0.6720   -0.0130    1.1820 ca        1 3B3     -0.047300
     13 CB          0.5880   -0.0420    7.2870 c3        1 3B3      0.135100
     14 CA         -0.1750    0.0670    8.6220 c3        1 3B3      0.122800
     15 N           0.6790   -0.1720    9.7580 n3        1 3B3     -0.928800
     16 O          -2.5840    0.3310   -0.9730 o         1 3B3     -0.226000
     17 OXT        -4.1190   -0.4220    0.2380 o         1 3B3     -0.226000
     18 N1         -2.9800   -0.0500    0.0970 no        1 3B3      0.324200
     19 O16         1.4880    1.0390    7.1130 oh        1 3B3     -0.606800
     20 H1         -0.5090   -0.0420   -1.0140 ha        1 3B3      0.179000
     21 H2          1.9800    0.0460   -1.0050 ha        1 3B3      0.151000
     22 H3          3.2030    0.1370    1.2070 h4        1 3B3      0.027100
     23 H5          1.1580    0.1180    4.7970 hn        1 3B3      0.466800
     24 H6C1       -1.1780   -0.7970    6.2710 h1        1 3B3      0.053700
     25 H6C2       -0.9820    1.0220    6.2080 h1        1 3B3      0.053700
     26 H8A        -2.5070   -0.0850    4.6620 ha        1 3B3      0.146000
     27 H9         -3.8120   -0.1250    2.6080 ha        1 3B3      0.167000
     28 HB          1.1590   -1.0130    7.2370 h1        1 3B3      0.049700
     29 HAC1       -1.0550   -0.6400    8.5770 h1        1 3B3      0.041200
     30 HAC2       -0.5830    1.1150    8.7040 h1        1 3B3      0.041200
     31 HN1         0.9760   -1.1260    9.7970 hn        1 3B3      0.359800
     32 HN2         0.2160    0.0710   10.6090 hn        1 3B3      0.359800
     33 H16         2.0400    1.0840    7.9040 ho        1 3B3      0.429000
@<TRIPOS>BOND
     1    1    2 ar  
     2    1   12 ar  
     3    1   20 1   
     4    2    3 ar  
     5    2   21 1   
     6    3    4 ar  
     7    3   22 1   
     8    4    5 ar  
     9    5    6 ar  
    10    5   12 ar  
    11    6    7 1   
    12    6    9 ar  
    13    7    8 1   
    14    7   23 1   
    15    8   13 1   
    16    8   24 1   
    17    8   25 1   
    18    9   10 ar  
    19    9   26 1   
    20   10   11 ar  
    21   10   27 1   
    22   11   12 ar  
    23   11   18 1   
    24   13   14 1   
    25   13   19 1   
    26   13   28 1   
    27   14   15 1   
    28   14   29 1   
    29   14   30 1   
    30   15   31 1   
    31   15   32 1   
    32   16   18 1   
    33   17   18 1   
    34   19   33 1   
@<TRIPOS>SUBSTRUCTURE
     1 3B3         1 TEMP              0 ****  ****    0 ROOT
