@<TRIPOS>MOLECULE
3B4
   32    31     1     0     0
SMALL
bcc


@<TRIPOS>ATOM
      1 CAJ         1.3060    1.0230   -0.3310 c3        1 3B4     -0.176000
      2 CAH         2.8200    0.9920   -0.2960 c3        1 3B4     -0.149500
      3 CAG         3.3660    0.9530    1.1180 c3        1 3B4     -0.154000
      4 CAI         2.7440   -0.1510    1.9500 c3        1 3B4     -0.149500
      5 CAK         1.2320   -0.1200    1.9160 c3        1 3B4     -0.176000
      6 CAP         0.6850   -0.0810    0.5010 c3        1 3B4      0.001000
      7 NAL        -0.7350    0.1250    0.5580 n3        1 3B4     -0.265000
      8 CAN        -1.5830   -0.4870   -0.4080 c2        1 3B4      0.051000
      9 CAE        -1.3230   -1.7770   -0.8390 c2        1 3B4     -0.181000
     10 CAC        -2.1870   -2.4000   -1.7280 c1        1 3B4     -0.140000
     11 CAD        -3.3100   -1.7320   -2.1850 c1        1 3B4     -0.138500
     12 CAF        -3.5710   -0.4400   -1.7540 c1        1 3B4     -0.138500
     13 CAO        -2.7090    0.1820   -0.8660 c1        1 3B4     -0.143000
     14 CAM        -3.0350    1.5520   -0.3360 c2        1 3B4      0.358000
     15 OAB        -2.4880    2.5670   -0.8370 o         1 3B4     -0.570500
     16 OAA        -3.8950    1.6860    0.5730 o         1 3B4     -0.570500
     17 HAJ         1.0100    0.9270   -1.2570 hc        1 3B4      0.096500
     18 HAJA        1.0000    1.8870    0.0120 hc        1 3B4      0.096500
     19 HAH         3.1630    1.7890   -0.7460 hc        1 3B4      0.065000
     20 HAHA        3.1310    0.1980   -0.7760 hc        1 3B4      0.065000
     21 HAG         4.3340    0.8130    1.0790 hc        1 3B4      0.068500
     22 HAGA        3.1870    1.8120    1.5490 hc        1 3B4      0.068500
     23 HAI         3.0420   -0.0550    2.8770 hc        1 3B4      0.065000
     24 HAIA        3.0500   -1.0150    1.6080 hc        1 3B4      0.065000
     25 HAK         0.8890   -0.9170    2.3660 hc        1 3B4      0.096500
     26 HAKA        0.9210    0.6740    2.3970 hc        1 3B4      0.096500
     27 HAP         0.8620   -0.9390    0.0690 h1        1 3B4      0.075000
     28 HNAL       -1.0970    0.6210    1.2340 hn        1 3B4      0.217000
     29 HAE        -0.5320   -2.2480   -0.5170 ha        1 3B4      0.112000
     30 HAC        -1.9940   -3.3010   -2.0440 ha        1 3B4      0.099000
     31 HAD        -3.9180   -2.1700   -2.8100 ha        1 3B4      0.126000
     32 HAF        -4.3640    0.0320   -2.0770 ha        1 3B4      0.126000
@<TRIPOS>BOND
     1    1    2 1   
     2    1    6 1   
     3    1   17 1   
     4    1   18 1   
     5    2    3 1   
     6    2   19 1   
     7    2   20 1   
     8    3    4 1   
     9    3   21 1   
    10    3   22 1   
    11    4    5 1   
    12    4   23 1   
    13    4   24 1   
    14    5    6 1   
    15    5   25 1   
    16    5   26 1   
    17    6    7 1   
    18    6   27 1   
    19    7    8 1   
    20    7   28 1   
    21    8    9 1   
    22    8   13 1   
    23    9   10 1   
    24    9   29 1   
    25   10   30 1   
    26   11   12 1   
    27   11   31 1   
    28   12   32 1   
    29   13   14 1   
    30   14   15 1   
    31   14   16 1   
@<TRIPOS>SUBSTRUCTURE
     1 3B4         1 TEMP              0 ****  ****    0 ROOT
