@<TRIPOS>MOLECULE
3B4
   32    33     1     0     0
SMALL
bcc


@<TRIPOS>ATOM
      1 CAJ        -0.4650   -0.0470    0.3320 c3        1 3B4     -0.097400
      2 CAH         0.9360    0.5100    0.2150 c3        1 3B4     -0.070900
      3 CAG         1.7070    0.3580    1.5100 c3        1 3B4     -0.075400
      4 CAI         1.7210   -1.0870    1.9640 c3        1 3B4     -0.070900
      5 CAK         0.3160   -1.6310    2.1080 c3        1 3B4     -0.097400
      6 CAP        -0.4510   -1.5190    0.7780 c3        1 3B4      0.198500
      7 NAL        -1.7790   -2.1150    0.9060 nh        1 3B4     -0.709600
      8 CAN        -2.5040   -2.2540   -0.3060 ca        1 3B4      0.132600
      9 CAE        -1.9930   -3.0850   -1.3300 ca        1 3B4     -0.181000
     10 CAC        -2.7330   -3.3350   -2.4800 ca        1 3B4     -0.140000
     11 CAD        -3.9990   -2.7760   -2.6370 ca        1 3B4     -0.186000
     12 CAF        -4.5130   -1.9530   -1.6380 ca        1 3B4     -0.091000
     13 CAO        -3.7830   -1.6670   -0.4830 ca        1 3B4     -0.163600
     14 CAM        -4.4090   -0.7090    0.5220 c         1 3B4      0.909200
     15 OAB        -5.6680   -0.6200    0.5430 o         1 3B4     -0.835800
     16 OAA        -3.6520   -0.0250    1.2750 o         1 3B4     -0.835800
     17 HAJ        -1.0730    0.5550    1.0600 hc        1 3B4      0.057200
     18 HAJA       -0.9820    0.0300   -0.6610 hc        1 3B4      0.057200
     19 HAH         0.8840    1.5940   -0.0640 hc        1 3B4      0.025700
     20 HAHA        1.4850   -0.0220   -0.6070 hc        1 3B4      0.025700
     21 HAG         1.2300    0.9930    2.3030 hc        1 3B4      0.029200
     22 HAGA        2.7580    0.7220    1.3720 hc        1 3B4      0.029200
     23 HAI         2.2540   -1.1670    2.9460 hc        1 3B4      0.025700
     24 HAIA        2.2900   -1.7050    1.2210 hc        1 3B4      0.025700
     25 HAK        -0.2290   -1.0590    2.9040 hc        1 3B4      0.057200
     26 HAKA        0.3630   -2.7040    2.4290 hc        1 3B4      0.057200
     27 HAP         0.1170   -2.1120    0.0010 h1        1 3B4      0.035700
     28 HNAL       -2.3220   -1.5890    1.5800 hn        1 3B4      0.421800
     29 HAE        -1.0020   -3.5500   -1.2200 ha        1 3B4      0.112000
     30 HAC        -2.3160   -3.9820   -3.2640 ha        1 3B4      0.099000
     31 HAD        -4.5870   -2.9820   -3.5420 ha        1 3B4      0.104000
     32 HAF        -5.5160   -1.5050   -1.7350 ha        1 3B4      0.148000
@<TRIPOS>BOND
     1    1    2 1   
     2    1    6 1   
     3    1   17 1   
     4    1   18 1   
     5    2    3 1   
     6    2   19 1   
     7    2   20 1   
     8    3    4 1   
     9    3   21 1   
    10    3   22 1   
    11    4    5 1   
    12    4   23 1   
    13    4   24 1   
    14    5    6 1   
    15    5   25 1   
    16    5   26 1   
    17    6    7 1   
    18    6   27 1   
    19    7    8 1   
    20    7   28 1   
    21    8    9 ar  
    22    8   13 ar  
    23    9   10 ar  
    24    9   29 1   
    25   10   11 ar  
    26   10   30 1   
    27   11   12 ar  
    28   11   31 1   
    29   12   13 ar  
    30   12   32 1   
    31   13   14 1   
    32   14   15 1   
    33   14   16 1   
@<TRIPOS>SUBSTRUCTURE
     1 3B4         1 TEMP              0 ****  ****    0 ROOT
