@<TRIPOS>MOLECULE
3B4
   32    33     1     0     0
SMALL
bcc


@<TRIPOS>ATOM
      1 CAJ        -1.8620    0.0800   -0.9560 c3        1 3B4     -0.097400
      2 CAH        -3.2790    0.5100   -1.2620 c3        1 3B4     -0.070900
      3 CAG        -4.2940   -0.4020   -0.6040 c3        1 3B4     -0.075400
      4 CAI        -4.0520   -0.4900    0.8880 c3        1 3B4     -0.070900
      5 CAK        -2.6420   -0.9500    1.1900 c3        1 3B4     -0.097400
      6 CAP        -1.6110    0.0040    0.5600 c3        1 3B4      0.198500
      7 NAL        -0.2550   -0.4050    0.9190 nh        1 3B4     -0.709600
      8 CAN         0.7710    0.5100    0.5680 ca        1 3B4      0.132600
      9 CAE         0.7760    1.8030    1.1410 ca        1 3B4     -0.181000
     10 CAC         1.8290    2.6810    0.9090 ca        1 3B4     -0.140000
     11 CAD         2.9030    2.2960    0.1120 ca        1 3B4     -0.186000
     12 CAF         2.9090    1.0270   -0.4620 ca        1 3B4     -0.091000
     13 CAO         1.8550    0.1320   -0.2640 ca        1 3B4     -0.163600
     14 CAM         1.9300   -1.2080   -0.9830 c         1 3B4      0.909200
     15 OAB         3.0730   -1.6490   -1.2860 o         1 3B4     -0.835800
     16 OAA         0.8530   -1.8120   -1.2720 o         1 3B4     -0.835800
     17 HAJ        -1.6420   -0.9210   -1.4170 hc        1 3B4      0.057200
     18 HAJA       -1.1430    0.8110   -1.4100 hc        1 3B4      0.057200
     19 HAH        -3.4380    1.5610   -0.9040 hc        1 3B4      0.025700
     20 HAHA       -3.4370    0.5060   -2.3720 hc        1 3B4      0.025700
     21 HAG        -5.3300   -0.0200   -0.7980 hc        1 3B4      0.029200
     22 HAGA       -4.2210   -1.4260   -1.0550 hc        1 3B4      0.029200
     23 HAI        -4.2290    0.5140    1.3550 hc        1 3B4      0.025700
     24 HAIA       -4.7830   -1.2060    1.3460 hc        1 3B4      0.025700
     25 HAK        -2.4920   -0.9900    2.3000 hc        1 3B4      0.057200
     26 HAKA       -2.4890   -1.9850    0.7870 hc        1 3B4      0.057200
     27 HAP        -1.7840    1.0340    0.9930 h1        1 3B4      0.035700
     28 HNAL       -0.0600   -1.3170    0.5240 hn        1 3B4      0.421800
     29 HAE        -0.0550    2.1230    1.7870 ha        1 3B4      0.112000
     30 HAC         1.8110    3.6820    1.3640 ha        1 3B4      0.099000
     31 HAD         3.7390    2.9870   -0.0630 ha        1 3B4      0.104000
     32 HAF         3.7520    0.6950   -1.0910 ha        1 3B4      0.148000
@<TRIPOS>BOND
     1    1    2 1   
     2    1    6 1   
     3    1   17 1   
     4    1   18 1   
     5    2    3 1   
     6    2   19 1   
     7    2   20 1   
     8    3    4 1   
     9    3   21 1   
    10    3   22 1   
    11    4    5 1   
    12    4   23 1   
    13    4   24 1   
    14    5    6 1   
    15    5   25 1   
    16    5   26 1   
    17    6    7 1   
    18    6   27 1   
    19    7    8 1   
    20    7   28 1   
    21    8    9 ar  
    22    8   13 ar  
    23    9   10 ar  
    24    9   29 1   
    25   10   11 ar  
    26   10   30 1   
    27   11   12 ar  
    28   11   31 1   
    29   12   13 ar  
    30   12   32 1   
    31   13   14 1   
    32   14   15 1   
    33   14   16 1   
@<TRIPOS>SUBSTRUCTURE
     1 3B4         1 TEMP              0 ****  ****    0 ROOT
