@<TRIPOS>MOLECULE
3B4
   33    34     1     0     0
SMALL
bcc


@<TRIPOS>ATOM
      1 CAJ        -0.0480   -0.0650   -0.0460 c3        1 3B4     -0.095900
      2 CAH         1.4540    0.1070   -0.0950 c3        1 3B4     -0.074900
      3 CAG         2.0450    0.2080    1.2960 c3        1 3B4     -0.080400
      4 CAI         1.6490   -0.9820    2.1450 c3        1 3B4     -0.074900
      5 CAK         0.1460   -1.1510    2.2000 c3        1 3B4     -0.095900
      6 CAP        -0.4240   -1.3090    0.7780 c3        1 3B4      0.201500
      7 NAL        -1.8490   -1.5900    0.8260 nh        1 3B4     -0.741600
      8 CAN        -2.5500   -1.9200   -0.3370 ca        1 3B4      0.195600
      9 CAE        -1.9060   -2.4160   -1.4990 ca        1 3B4     -0.198000
     10 CAC        -2.6430   -2.8170   -2.6040 ca        1 3B4     -0.067000
     11 CAD        -4.0360   -2.7270   -2.6090 ca        1 3B4     -0.182000
     12 CAF        -4.6900   -2.2340   -1.4870 ca        1 3B4     -0.041000
     13 CAO        -3.9700   -1.8460   -0.3530 ca        1 3B4     -0.249600
     14 CAM        -4.7280   -1.3360    0.8040 c         1 3B4      0.641700
     15 OAB        -5.5420   -0.4120    0.8170 o         1 3B4     -0.486000
     16 OAA        -4.5520   -1.9170    2.0310 oh        1 3B4     -0.590100
     17 HAJ        -0.5170    0.8460    0.4110 hc        1 3B4      0.050450
     18 HAJA       -0.4490   -0.1670   -1.0890 hc        1 3B4      0.050450
     19 HAH         1.7020    1.0320   -0.6770 hc        1 3B4      0.043950
     20 HAHA        1.9140   -0.7630   -0.6350 hc        1 3B4      0.043950
     21 HAG         3.1630    0.2650    1.2260 hc        1 3B4      0.044200
     22 HAGA        1.6890    1.1520    1.7860 hc        1 3B4      0.044200
     23 HAI         2.0420   -0.8470    3.1860 hc        1 3B4      0.043950
     24 HAIA        2.1170   -1.9130    1.7270 hc        1 3B4      0.043950
     25 HAK        -0.3160   -0.2580    2.6980 hc        1 3B4      0.050450
     26 HAKA       -0.1060   -2.0540    2.8150 hc        1 3B4      0.050450
     27 HAP         0.0780   -2.2080    0.3090 h1        1 3B4      0.063700
     28 HNAL       -2.3460   -0.9730    1.4390 hn        1 3B4      0.409800
     29 HAE        -0.8090   -2.4870   -1.5360 ha        1 3B4      0.141000
     30 HAC        -2.1180   -3.2050   -3.4910 ha        1 3B4      0.135000
     31 HAD        -4.6090   -3.0360   -3.4940 ha        1 3B4      0.141000
     32 HAF        -5.7880   -2.1380   -1.4790 ha        1 3B4      0.149000
     33 HAL2       -3.9980   -2.7070    1.9490 ho        1 3B4      0.437000
@<TRIPOS>BOND
     1    1    2 1   
     2    1    6 1   
     3    1   17 1   
     4    1   18 1   
     5    2    3 1   
     6    2   19 1   
     7    2   20 1   
     8    3    4 1   
     9    3   21 1   
    10    3   22 1   
    11    4    5 1   
    12    4   23 1   
    13    4   24 1   
    14    5    6 1   
    15    5   25 1   
    16    5   26 1   
    17    6    7 1   
    18    6   27 1   
    19    7    8 1   
    20    7   28 1   
    21    8    9 ar  
    22    8   13 ar  
    23    9   10 ar  
    24    9   29 1   
    25   10   11 ar  
    26   10   30 1   
    27   11   12 ar  
    28   11   31 1   
    29   12   13 ar  
    30   12   32 1   
    31   13   14 1   
    32   14   15 2   
    33   14   16 1   
    34   16   33 1   
@<TRIPOS>SUBSTRUCTURE
     1 3B4         1 TEMP              0 ****  ****    0 ROOT
