@<TRIPOS>MOLECULE
3B4
   32    33     1     0     0
SMALL
bcc


@<TRIPOS>ATOM
      1 CAJ        -0.4630   -0.0480    0.3280 c3        1 3B4     -0.097400
      2 CAH         0.9400    0.5050    0.2100 c3        1 3B4     -0.070900
      3 CAG         1.7100    0.3560    1.5060 c3        1 3B4     -0.075400
      4 CAI         1.7200   -1.0870    1.9640 c3        1 3B4     -0.070900
      5 CAK         0.3140   -1.6290    2.1090 c3        1 3B4     -0.097400
      6 CAP        -0.4520   -1.5190    0.7790 c3        1 3B4      0.198500
      7 NAL        -1.7810   -2.1120    0.9080 nu        1 3B4     -0.709600
      8 CAN        -2.5060   -2.2530   -0.3040 ca        1 3B4      0.132600
      9 CAE        -1.9960   -3.0870   -1.3260 ca        1 3B4     -0.181000
     10 CAC        -2.7370   -3.3390   -2.4750 ca        1 3B4     -0.140000
     11 CAD        -4.0020   -2.7780   -2.6340 ca        1 3B4     -0.186000
     12 CAF        -4.5140   -1.9510   -1.6360 ca        1 3B4     -0.091000
     13 CAO        -3.7840   -1.6630   -0.4820 ca        1 3B4     -0.163600
     14 CAM        -4.4080   -0.7030    0.5210 c         1 3B4      0.909200
     15 OAB        -5.6670   -0.6120    0.5410 o         1 3B4     -0.835800
     16 OAA        -3.6500   -0.0180    1.2720 o         1 3B4     -0.835800
     17 HAJ        -0.9790    0.0270   -0.6650 hc        1 3B4      0.057200
     18 HAJA       -1.0690    0.5570    1.0550 hc        1 3B4      0.057200
     19 HAH         0.8900    1.5890   -0.0720 hc        1 3B4      0.025700
     20 HAHA        1.4880   -0.0300   -0.6100 hc        1 3B4      0.025700
     21 HAG         1.2340    0.9940    2.2970 hc        1 3B4      0.029200
     22 HAGA        2.7620    0.7170    1.3670 hc        1 3B4      0.029200
     23 HAI         2.2540   -1.1660    2.9470 hc        1 3B4      0.025700
     24 HAIA        2.2890   -1.7100    1.2240 hc        1 3B4      0.025700
     25 HAK         0.3590   -2.7000    2.4340 hc        1 3B4      0.057200
     26 HAKA       -0.2300   -1.0530    2.9030 hc        1 3B4      0.057200
     27 HAP         0.1160   -2.1160    0.0040 h1        1 3B4      0.035700
     28 HNAL       -2.3230   -1.5830    1.5800 hn        1 3B4      0.421800
     29 HAE        -1.0060   -3.5530   -1.2140 ha        1 3B4      0.112000
     30 HAC        -2.3200   -3.9880   -3.2580 ha        1 3B4      0.099000
     31 HAD        -4.5900   -2.9850   -3.5380 ha        1 3B4      0.104000
     32 HAF        -5.5160   -1.5020   -1.7350 ha        1 3B4      0.148000
@<TRIPOS>BOND
     1    1    2 1   
     2    1    6 1   
     3    1   17 1   
     4    1   18 1   
     5    2    3 1   
     6    2   19 1   
     7    2   20 1   
     8    3    4 1   
     9    3   21 1   
    10    3   22 1   
    11    4    5 1   
    12    4   23 1   
    13    4   24 1   
    14    5    6 1   
    15    5   25 1   
    16    5   26 1   
    17    6    7 1   
    18    6   27 1   
    19    7    8 1   
    20    7   28 1   
    21    8    9 ar  
    22    8   13 ar  
    23    9   10 ar  
    24    9   29 1   
    25   10   11 ar  
    26   10   30 1   
    27   11   12 ar  
    28   11   31 1   
    29   12   13 ar  
    30   12   32 1   
    31   13   14 1   
    32   14   15 1   
    33   14   16 1   
@<TRIPOS>SUBSTRUCTURE
     1 3B4         1 TEMP              0 ****  ****    0 ROOT
