@<TRIPOS>MOLECULE
3B5
   86    83     1     0     0
SMALL
bcc


@<TRIPOS>ATOM
      1 C10        99.8250  -53.2510    8.0910 c2        1 3B5     -0.140000
      2 C8         99.6070  -55.1700    6.7920 c2        1 3B5      0.122000
      3 C6         99.1970  -57.0280    5.3350 c2        1 3B5      0.300000
      4 C3         98.9840  -58.8830    3.7240 c2        1 3B5     -0.062000
      5 C1        -42.2840  700.6840    0.0570 c1        1 3B5     -0.417000
      6 C4         99.6440  -57.8090    4.1730 c2        1 3B5     -0.196000
      7 C5        -42.6630  702.9560    0.0460 c1        1 3B5      0.192000
      8 C11        99.1570  -55.4750    8.0780 c2        1 3B5     -0.299000
      9 N12        99.2800  -54.3180    8.9240 na        1 3B5      0.047000
     10 C12        98.9730  -54.2560   10.1870 c2        1 3B5      0.082000
     11 C13       100.0370  -51.8850    8.6400 c2        1 3B5      0.367000
     12 C15       101.3720  -49.8600    8.4920 c2        1 3B5     -0.212000
     13 C17       101.4300  -47.8890    9.6960 c2        1 3B5     -0.397000
     14 C20       101.2070  -46.8170   10.6010 c2        1 3B5      0.351000
     15 C25       396.0680  -55.2640 -728.9040 c2        1 3B5     -0.295000
     16 C27       396.1140  -53.8850 -728.8940 c2        1 3B5      0.184000
     17 C28        99.9330  -51.2470   13.3370 cu        1 3B5      0.345000
     18 C32      -617.3030  -65.4770 -394.0270 c3        1 3B5     -0.179000
     19 C31        99.9980  -50.1380   16.4940 c1        1 3B5     -0.101000
     20 C22        99.5780  -47.7820   12.2860 c2        1 3B5     -0.201000
     21 C23        99.7930  -49.7490   13.4230 cx        1 3B5     -0.032000
     22 C24        98.5170  -49.1890   14.0700 c3        1 3B5     -0.327000
     23 C34      -617.1320  -64.3160 -393.2530 c1        1 3B5     -0.033000
     24 N33      -616.9650  -65.4750 -395.5250 n4        1 3B5     -0.092000
     25 C35      -617.2410  -66.7790 -396.1590 c3        1 3B5     -0.205000
     26 C30       101.0330  -50.6240   15.6030 c3        1 3B5     -0.125000
     27 N29       100.7670  -50.5640   14.1920 n         1 3B5     -0.217000
     28 O28        99.6290  -52.3030   12.8240 o         1 3B5     -0.247000
     29 N22       100.3250  -48.8490   12.4090 n2        1 3B5     -0.090000
     30 C26       395.8010  -56.0120 -727.7760 c2        1 3B5      0.184000
     31 S22        98.2030  -47.5970   13.3320 ss        1 3B5      0.302000
     32 O20       101.9480  -45.8840   10.9020 o         1 3B5     -0.228000
     33 N19       102.7190  -48.0020    8.9660 n4        1 3B5      0.040000
     34 C18       102.6420  -49.2800    8.2040 c1        1 3B5      0.030000
     35 C16       100.6400  -49.0060    9.3770 c2        1 3B5      0.102000
     36 N14       100.9320  -51.0820    7.9710 n         1 3B5     -0.246000
     37 O13        99.3870  -51.4920    9.6350 o         1 3B5     -0.387000
     38 C9        100.0300  -53.7280    6.8250 c2        1 3B5      0.005000
     39 N7         99.8120  -55.9060    5.6750 n2        1 3B5     -0.277000
     40 O6         98.0980  -57.5760    5.9400 oh        1 3B5     -0.249000
     41 N1        -42.4890  701.9070    0.5040 n2        1 3B5      0.076000
     42 C2        -42.1370  699.4420    0.5530 c1        1 3B5      0.521000
     43 H3         98.0580  -59.2610    4.1850 ha        1 3B5      0.152000
     44 H1        -42.2210  700.6930    0.1900 ha        1 3B5      0.265000
     45 H5        100.5700  -57.4440    3.6920 ha        1 3B5      0.181000
     46 H11        98.8130  -56.4170    8.5130 h4        1 3B5      0.211000
     47 H123      103.5690  -44.5780    9.4160 ha        1 3B5      0.001333
     48 H121      103.4360  -45.1640    9.1010 ha        1 3B5      0.001333
     49 H122       98.5660  -55.1550   10.6980 h4        1 3B5      0.220500
     50 H21        99.1020  -46.8100   10.5630 hn        1 3B5      0.276000
     51 H25        97.6500  -49.8660   13.8740 h1        1 3B5      0.190000
     52 H273      395.9390  -53.2890 -727.9780 ha        1 3B5      0.180500
     53 H271      396.2550  -55.7960 -729.8640 ha        1 3B5      0.206000
     54 H272      396.3310  -53.3140 -729.8180 ha        1 3B5      0.180500
     55 H322      -98.7780    0.8190  -22.4210 ha        1 3B5      0.001333
     56 H321      -98.9060    0.3470  -22.8890 ha        1 3B5      0.001333
     57 H312      100.1750  -50.1910   17.5730 ha        1 3B5      0.116000
     58 H311     -618.3990  -65.7920 -393.9370 hx        1 3B5      0.219000
     59 H193      103.9960  -47.0030   10.3520 hx        1 3B5      0.144667
     60 H192      103.8140  -48.8140   10.6160 hx        1 3B5      0.144667
     61 H191      104.8200  -48.1960    9.2110 hx        1 3B5      0.144667
     62 H341     -615.9750  -65.2420 -395.6510 hn        1 3B5      0.235000
     63 H342     -616.6850  -66.3070 -393.5490 hx        1 3B5      0.219000
     64 H343     -616.7820  -63.3200 -393.5090 ha        1 3B5      0.157000
     65 H353     -618.3300  -67.0340 -396.0360 hx        1 3B5      0.146667
     66 H352     -616.6160  -67.5750 -395.6710 hx        1 3B5      0.146667
     67 H351     -616.9930  -66.7330 -397.2550 hx        1 3B5      0.146667
     68 H302     -620.0590  -66.6970 -394.7560 ha        1 3B5      0.001333
     69 H301     -620.6650  -66.9200 -394.5480 ha        1 3B5      0.001333
     70 H29       101.9740  -49.9980   15.7660 h1        1 3B5      0.172500
     71 H263      395.7720  -57.1190 -727.8180 ha        1 3B5      0.180500
     72 H261       98.6380  -49.0870   15.1880 h1        1 3B5      0.190000
     73 H262      395.6060  -55.5530 -726.7880 ha        1 3B5      0.180500
     74 H18       102.8000  -47.2280    8.2920 hn        1 3B5      0.272000
     75 H16        99.6280  -49.2110    9.7440 ha        1 3B5      0.191000
     76 H14        99.1060  -53.3130   10.7750 h4        1 3B5      0.220500
     77 H9        100.4230  -53.2000    5.9500 ha        1 3B5      0.216000
     78 H7         97.7460  -57.0070    6.6450 ho        1 3B5      0.239000
     79 H2         99.3470  -59.4510    2.8520 ha        1 3B5      0.152000
     80 H33      -617.5130  -64.7490 -395.9960 hn        1 3B5      0.235000
     81 C19       103.9130  -48.0040    9.8480 c3        1 3B5     -0.161000
     82 N21        99.8360  -46.7460   11.2810 n4        1 3B5     -0.050000
     83 H292      101.3150  -51.7020   15.8350 h1        1 3B5      0.172500
     84 H142      101.4900  -51.4590    7.2330 hn        1 3B5      0.267000
     85 H72       -42.8270  703.9410    0.6130 ha        1 3B5      0.364000
     86 H212       99.7720  -45.8280   11.7560 hn        1 3B5      0.276000
@<TRIPOS>BOND
     1    1    9 1   
     2    1   11 1   
     3    1   38 1   
     4    2    8 1   
     5    2   38 1   
     6    2   39 1   
     7    3    6 1   
     8    3   39 1   
     9    3   40 1   
    10    4    6 1   
    11    4   43 1   
    12    4   79 1   
    13    5   41 1   
    14    5   42 1   
    15    6   45 1   
    16    7   41 1   
    17    7   85 1   
    18    8    9 1   
    19    8   46 1   
    20    9   10 1   
    21   10   49 1   
    22   10   76 1   
    23   11   36 1   
    24   11   37 1   
    25   12   34 1   
    26   12   35 1   
    27   12   36 1   
    28   13   14 1   
    29   13   33 1   
    30   13   35 1   
    31   14   32 1   
    32   14   82 1   
    33   15   16 1   
    34   15   30 1   
    35   15   53 1   
    36   16   52 1   
    37   16   54 1   
    38   17   21 1   
    39   17   27 1   
    40   17   28 1   
    41   18   23 1   
    42   18   24 1   
    43   18   58 1   
    44   18   63 1   
    45   19   26 1   
    46   19   57 1   
    47   20   29 1   
    48   20   31 1   
    49   20   82 1   
    50   21   22 1   
    51   21   27 1   
    52   21   29 1   
    53   22   31 1   
    54   22   51 1   
    55   22   72 1   
    56   23   64 1   
    57   24   25 1   
    58   24   62 1   
    59   24   80 1   
    60   25   65 1   
    61   25   66 1   
    62   25   67 1   
    63   26   27 1   
    64   26   70 1   
    65   26   83 1   
    66   30   71 1   
    67   30   73 1   
    68   33   34 1   
    69   33   74 1   
    70   33   81 1   
    71   35   75 1   
    72   36   84 1   
    73   38   77 1   
    74   40   78 1   
    75   42   44 1   
    76   47   48 1   
    77   50   82 1   
    78   55   56 1   
    79   59   81 1   
    80   60   81 1   
    81   61   81 1   
    82   68   69 1   
    83   82   86 1   
@<TRIPOS>SUBSTRUCTURE
     1 3B5         1 TEMP              0 ****  ****    0 ROOT
