@<TRIPOS>MOLECULE
3B6
   40    41     1     0     0
SMALL
bcc


@<TRIPOS>ATOM
      1 C5          0.0300    1.0440    0.9000 ca        1 3B6     -0.072000
      2 C4          1.1780    0.9080    1.6810 ca        1 3B6      0.049900
      3 I7          2.6920    2.2170    1.4070 i         1 3B6     -0.030900
      4 C3          1.2560   -0.1250    2.6280 ca        1 3B6      0.096000
      5 C8          2.4130   -0.2930    3.4380 cg        1 3B6      0.179800
      6 N8          3.3500   -0.4480    4.1100 n1        1 3B6     -0.247800
      7 C2          0.1820   -1.0160    2.7940 ca        1 3B6     -0.084000
      8 C1         -0.9670   -0.8880    2.0220 ca        1 3B6     -0.087000
      9 C6         -1.0370    0.1450    1.0700 ca        1 3B6     -0.049400
     10 N9         -2.2340    0.2720    0.2310 n4        1 3B6     -0.536200
     11 C10        -3.2910    1.1430    0.8860 c         1 3B6      0.547100
     12 O10        -3.1680    2.3460    0.7300 o         1 3B6     -0.400100
     13 C11        -4.4360    0.4440    1.6250 c3        1 3B6      0.116800
     14 O11        -4.1170   -0.9360    1.7240 oh        1 3B6     -0.635800
     15 C12        -5.7150    0.6480    0.8210 c3        1 3B6     -0.139100
     16 C13        -4.5470    1.0830    3.0280 c3        1 3B6      0.107400
     17 O14        -5.4550    0.2350    3.7290 os        1 3B6     -0.353900
     18 C16        -5.9160    0.7230    4.9470 ca        1 3B6      0.117100
     19 C17        -7.0010    0.0100    5.4860 ca        1 3B6     -0.171000
     20 C18        -7.5140    0.3960    6.7190 ca        1 3B6     -0.055500
     21 C19        -6.9560    1.4850    7.4070 ca        1 3B6     -0.016000
     22 C22        -7.4880    1.8750    8.6650 cg        1 3B6      0.213800
     23 N22        -7.9230    2.1950    9.6950 n1        1 3B6     -0.319800
     24 C20        -5.8760    2.1880    6.8560 ca        1 3B6     -0.055500
     25 C21        -5.3490    1.8080    5.6220 ca        1 3B6     -0.171000
     26 H5         -0.0300    1.8600    0.1570 ha        1 3B6      0.174000
     27 H2          0.2510   -1.8260    3.5410 ha        1 3B6      0.185000
     28 H1         -1.8100   -1.5880    2.1670 ha        1 3B6      0.179000
     29 HN9        -1.9650    0.6840   -0.6720 hn        1 3B6      0.474800
     30 HO11       -4.7870   -1.3480    2.2950 ho        1 3B6      0.482000
     31 H12        -5.6860    0.0520   -0.1230 hc        1 3B6      0.084033
     32 H12A       -5.8600    1.7290    0.5810 hc        1 3B6      0.084033
     33 H12B       -6.5810    0.2970    1.4380 hc        1 3B6      0.084033
     34 H13        -3.5540    1.0730    3.5480 h1        1 3B6      0.076700
     35 H13A       -4.9450    2.1280    2.9470 h1        1 3B6      0.076700
     36 H17        -7.4280   -0.8410    4.9360 ha        1 3B6      0.149500
     37 H18        -8.3630   -0.1550    7.1550 ha        1 3B6      0.162500
     38 H20        -5.4390    3.0420    7.3970 ha        1 3B6      0.162500
     39 H21        -4.4990    2.3650    5.2040 ha        1 3B6      0.149500
     40 H92        -2.6320   -0.6670    0.0790 hn        1 3B6      0.474800
@<TRIPOS>BOND
     1    1    2 ar  
     2    1    9 ar  
     3    1   26 1   
     4    2    3 1   
     5    2    4 ar  
     6    4    5 1   
     7    4    7 ar  
     8    5    6 3   
     9    7    8 ar  
    10    7   27 1   
    11    8    9 ar  
    12    8   28 1   
    13    9   10 1   
    14   10   11 1   
    15   10   29 1   
    16   10   40 1   
    17   11   12 2   
    18   11   13 1   
    19   13   14 1   
    20   13   15 1   
    21   13   16 1   
    22   14   30 1   
    23   15   31 1   
    24   15   32 1   
    25   15   33 1   
    26   16   17 1   
    27   16   34 1   
    28   16   35 1   
    29   17   18 1   
    30   18   19 ar  
    31   18   25 ar  
    32   19   20 ar  
    33   19   36 1   
    34   20   21 ar  
    35   20   37 1   
    36   21   22 1   
    37   21   24 ar  
    38   22   23 3   
    39   24   25 ar  
    40   24   38 1   
    41   25   39 1   
@<TRIPOS>SUBSTRUCTURE
     1 3B6         1 TEMP              0 ****  ****    0 ROOT
