@<TRIPOS>MOLECULE
3B6
   39    40     1     0     0
SMALL
bcc


@<TRIPOS>ATOM
      1 C5         -2.5010   -0.4250   -0.9170 ca        1 3B6     -0.159000
      2 C4         -3.7430    0.1930   -0.9860 ca        1 3B6      0.082900
      3 I7         -5.2120   -0.7120   -2.0420 i         1 3B6     -0.112900
      4 C3         -3.9570    1.4160   -0.3340 ca        1 3B6     -0.013000
      5 C8         -5.2140    2.0760   -0.3840 cg        1 3B6      0.228800
      6 N8         -6.2340    2.6350   -0.4090 n1        1 3B6     -0.344800
      7 C2         -2.9070    2.0040    0.3850 ca        1 3B6     -0.069000
      8 C1         -1.6610    1.3950    0.4630 ca        1 3B6     -0.149000
      9 C6         -1.4340    0.1630   -0.1890 ca        1 3B6      0.088600
     10 N9         -0.2130   -0.5230   -0.1300 n         1 3B6     -0.448100
     11 C10         0.9950   -0.0350    0.3360 c         1 3B6      0.676100
     12 O10         1.1420    1.0900    0.8440 o         1 3B6     -0.589100
     13 C11         2.2030   -1.0020    0.2730 c3        1 3B6      0.091800
     14 O11         2.0850   -1.7900   -0.9040 oh        1 3B6     -0.605800
     15 C12         2.1930   -1.8810    1.5150 c3        1 3B6     -0.127100
     16 C13         3.4800   -0.1420    0.2090 c3        1 3B6      0.105400
     17 O14         4.5560   -1.0730    0.0390 os        1 3B6     -0.347900
     18 C16         5.8160   -0.5230   -0.0770 ca        1 3B6      0.150100
     19 C17         6.8480   -1.4610   -0.2770 ca        1 3B6     -0.184000
     20 C18         8.1560   -1.0140   -0.4030 ca        1 3B6     -0.056000
     21 C19         8.4450    0.3580   -0.3310 ca        1 3B6     -0.051000
     22 C22         9.7860    0.8080   -0.4610 cg        1 3B6      0.234800
     23 N22        10.8850    1.1750   -0.5670 n1        1 3B6     -0.361800
     24 C20         7.4120    1.2820   -0.1320 ca        1 3B6     -0.056000
     25 C21         6.0940    0.8470   -0.0040 ca        1 3B6     -0.184000
     26 H5         -2.3450   -1.3850   -1.4370 ha        1 3B6      0.151000
     27 H2         -3.0710    2.9660    0.8980 ha        1 3B6      0.153000
     28 H1         -0.8570    1.8870    1.0360 ha        1 3B6      0.181000
     29 HN9        -0.1780   -1.3980   -0.6150 hn        1 3B6      0.340500
     30 HO11        2.8920   -2.3200   -0.9660 ho        1 3B6      0.437000
     31 H12         1.3170   -2.5720    1.4870 hc        1 3B6      0.062033
     32 H12A        3.1320   -2.4850    1.5500 hc        1 3B6      0.062033
     33 H12B        2.1340   -1.2480    2.4320 hc        1 3B6      0.062033
     34 H13         3.4360    0.5530   -0.6690 h1        1 3B6      0.072700
     35 H13A        3.6080    0.4330    1.1620 h1        1 3B6      0.072700
     36 H17         6.6060   -2.5320   -0.3300 ha        1 3B6      0.152500
     37 H18         8.9700   -1.7390   -0.5590 ha        1 3B6      0.150000
     38 H20         7.6380    2.3590   -0.0750 ha        1 3B6      0.150000
     39 H21         5.2940    1.5850    0.1530 ha        1 3B6      0.152500
@<TRIPOS>BOND
     1    1    2 ar  
     2    1    9 ar  
     3    1   26 1   
     4    2    3 1   
     5    2    4 ar  
     6    4    5 1   
     7    4    7 ar  
     8    5    6 3   
     9    7    8 ar  
    10    7   27 1   
    11    8    9 ar  
    12    8   28 1   
    13    9   10 1   
    14   10   11 1   
    15   10   29 1   
    16   11   12 2   
    17   11   13 1   
    18   13   14 1   
    19   13   15 1   
    20   13   16 1   
    21   14   30 1   
    22   15   31 1   
    23   15   32 1   
    24   15   33 1   
    25   16   17 1   
    26   16   34 1   
    27   16   35 1   
    28   17   18 1   
    29   18   19 ar  
    30   18   25 ar  
    31   19   20 ar  
    32   19   36 1   
    33   20   21 ar  
    34   20   37 1   
    35   21   22 1   
    36   21   24 ar  
    37   22   23 3   
    38   24   25 ar  
    39   24   38 1   
    40   25   39 1   
@<TRIPOS>SUBSTRUCTURE
     1 3B6         1 TEMP              0 ****  ****    0 ROOT
