@<TRIPOS>MOLECULE
3B6
   39    35     1     0     0
SMALL
bcc


@<TRIPOS>ATOM
      1 C5          3.5750    0.5160   -2.4220 c1        1 3B6     -0.136000
      2 C4          4.9590    0.5980   -2.4520 c1        1 3B6     -0.203000
      3 I7          5.8960    2.2480   -3.3660 i         1 3B6      0.177000
      4 C3          5.7250   -0.4300   -1.9260 c1        1 3B6     -0.009000
      5 C8          7.2330   -0.3170   -1.9120 c1        1 3B6     -0.101000
      6 N8          8.3690   -0.2320   -1.9020 n1        1 3B6     -0.020000
      7 C2          5.1080   -1.5400   -1.3710 c2        1 3B6     -0.068000
      8 C1          3.7250   -1.6220   -1.3410 c1        1 3B6     -0.174000
      9 C6          2.9590   -0.5940   -1.8660 c1        1 3B6      0.096000
     10 N9          1.5470   -0.7120   -1.9030 n         1 3B6     -0.304000
     11 C10         0.7480    0.0430   -1.0050 c2        1 3B6      0.319000
     12 O10         1.2740    0.7900   -0.2040 o         1 3B6     -0.343000
     13 C11        -0.7610   -0.0440   -1.0800 c3        1 3B6      0.042000
     14 O11        -1.1410   -1.3630   -1.3810 oh        1 3B6     -0.338000
     15 C12        -1.2660    0.8840   -2.1610 c3        1 3B6     -0.244000
     16 C13        -1.3570    0.3620    0.2530 c3        1 3B6     -0.042000
     17 O14        -2.6430   -0.1990    0.3820 os        1 3B6     -0.226000
     18 C16        -3.2480    0.0440    1.6260 c2        1 3B6      0.078000
     19 C17        -4.1970    1.0470    1.7500 c2        1 3B6     -0.149000
     20 C18        -4.8630    1.2260    2.9520 c1        1 3B6     -0.068000
     21 C19        -4.5810    0.4020    4.0300 c1        1 3B6     -0.036000
     22 C22        -5.2930    0.6110    5.3480 c1        1 3B6     -0.097000
     23 N22        -5.8300    0.7680    6.3410 n1        1 3B6     -0.033000
     24 C20        -3.6320   -0.6000    3.9060 c1        1 3B6     -0.061000
     25 C21        -2.9660   -0.7800    2.7040 c1        1 3B6     -0.197000
     26 H5          3.0360    1.2390   -2.7910 ha        1 3B6      0.189000
     27 H2          5.6480   -2.2640   -1.0010 ha        1 3B6      0.151000
     28 H1          3.2910   -2.4040   -0.9500 ha        1 3B6      0.143000
     29 HN9         1.1530   -1.2830   -2.4950 hn        1 3B6      0.252000
     30 HO11       -0.4790   -1.9170   -1.1690 ho        1 3B6      0.232000
     31 H12        -0.8070    0.6850   -3.0020 hc        1 3B6      0.101000
     32 H12A       -2.2310    0.7570   -2.2770 hc        1 3B6      0.101000
     33 H12B       -1.0870    1.8140   -1.9040 hc        1 3B6      0.101000
     34 H13        -0.7850    0.0370    0.9780 h1        1 3B6      0.125000
     35 H13A       -1.4200    1.3380    0.2990 h1        1 3B6      0.125000
     36 H17        -4.3950    1.6270    0.9910 ha        1 3B6      0.158000
     37 H18        -5.5300    1.9320    3.0390 ha        1 3B6      0.151000
     38 H20        -3.4340   -1.1810    4.6660 ha        1 3B6      0.150000
     39 H21        -2.2980   -1.4860    2.6170 ha        1 3B6      0.160000
@<TRIPOS>BOND
     1    1    9 1   
     2    1   26 1   
     3    2    3 1   
     4    2    4 1   
     5    4    7 1   
     6    5    6 1   
     7    7    8 1   
     8    7   27 1   
     9    8   28 1   
    10    9   10 1   
    11   10   11 1   
    12   10   29 1   
    13   11   12 1   
    14   11   13 1   
    15   13   14 1   
    16   13   15 1   
    17   13   16 1   
    18   14   30 1   
    19   15   31 1   
    20   15   32 1   
    21   15   33 1   
    22   16   17 1   
    23   16   34 1   
    24   16   35 1   
    25   17   18 1   
    26   18   19 1   
    27   18   25 1   
    28   19   20 1   
    29   19   36 1   
    30   20   37 1   
    31   21   22 1   
    32   21   24 1   
    33   22   23 1   
    34   24   38 1   
    35   25   39 1   
@<TRIPOS>SUBSTRUCTURE
     1 3B6         1 TEMP              0 ****  ****    0 ROOT
