@<TRIPOS>MOLECULE
3B6
   39    40     1     0     0
SMALL
bcc


@<TRIPOS>ATOM
      1 C5         -0.0830   -0.7280    0.2400 ca        1 3B6     -0.159000
      2 C4          1.2750   -0.8910   -0.0020 ca        1 3B6      0.082900
      3 I7          1.8450   -2.0950   -1.5250 i         1 3B6     -0.112900
      4 C3          2.2160   -0.2310    0.8020 ca        1 3B6     -0.013000
      5 C8          3.6120   -0.3760    0.5840 cg        1 3B6      0.228800
      6 N8          4.7610   -0.4780    0.4250 n1        1 3B6     -0.344800
      7 C2          1.7720    0.5910    1.8460 ca        1 3B6     -0.069000
      8 C1          0.4160    0.7640    2.0950 ca        1 3B6     -0.149000
      9 C6         -0.5410    0.1060    1.2930 ca        1 3B6      0.088600
     10 N9         -1.9240    0.2550    1.4670 n         1 3B6     -0.448100
     11 C10        -2.5690    0.8400    2.5420 c         1 3B6      0.676100
     12 O10        -1.9840    1.3890    3.4920 o         1 3B6     -0.589100
     13 C11        -4.1170    0.8610    2.4940 c3        1 3B6      0.091800
     14 O11        -4.5610   -0.3420    1.8830 oh        1 3B6     -0.605800
     15 C12        -4.5650    2.0730    1.6900 c3        1 3B6     -0.127100
     16 C13        -4.6240    0.9370    3.9460 c3        1 3B6      0.105400
     17 O14        -6.0510    0.8410    3.8540 os        1 3B6     -0.347900
     18 C16        -6.7350    0.8580    5.0540 ca        1 3B6      0.150100
     19 C17        -8.1320    0.7320    4.9330 ca        1 3B6     -0.184000
     20 C18        -8.9160    0.7420    6.0780 ca        1 3B6     -0.055500
     21 C19        -8.3200    0.8760    7.3430 ca        1 3B6     -0.051000
     22 C22        -9.1290    0.8850    8.5100 cg        1 3B6      0.234800
     23 N22        -9.7920    0.8930    9.4660 n1        1 3B6     -0.361800
     24 C20        -6.9290    1.0020    7.4510 ca        1 3B6     -0.055500
     25 C21        -6.1300    0.9940    6.3090 ca        1 3B6     -0.184000
     26 H5         -0.8130   -1.2550   -0.3980 ha        1 3B6      0.151000
     27 H2          2.5080    1.1110    2.4810 ha        1 3B6      0.153000
     28 H1          0.1020    1.4180    2.9270 ha        1 3B6      0.181000
     29 HN9        -2.5030   -0.2470    0.8250 hn        1 3B6      0.340500
     30 HO11       -5.5270   -0.3450    1.9440 ho        1 3B6      0.437000
     31 H12        -4.2830    1.9470    0.6170 hc        1 3B6      0.062033
     32 H12A       -5.6750    2.1770    1.7620 hc        1 3B6      0.062033
     33 H12B       -4.0870    2.9980    2.0910 hc        1 3B6      0.062033
     34 H13        -4.2230    0.0770    4.5420 h1        1 3B6      0.072700
     35 H13A       -4.3280    1.9130    4.4100 h1        1 3B6      0.072700
     36 H17        -8.5850    0.6280    3.9360 ha        1 3B6      0.152500
     37 H18       -10.0100    0.6430    5.9950 ha        1 3B6      0.150000
     38 H20        -6.4610    1.1080    8.4430 ha        1 3B6      0.150000
     39 H21        -5.0400    1.0940    6.4110 ha        1 3B6      0.152500
@<TRIPOS>BOND
     1    1    2 ar  
     2    1    9 ar  
     3    1   26 1   
     4    2    3 1   
     5    2    4 ar  
     6    4    5 1   
     7    4    7 ar  
     8    5    6 3   
     9    7    8 ar  
    10    7   27 1   
    11    8    9 ar  
    12    8   28 1   
    13    9   10 1   
    14   10   11 1   
    15   10   29 1   
    16   11   12 2   
    17   11   13 1   
    18   13   14 1   
    19   13   15 1   
    20   13   16 1   
    21   14   30 1   
    22   15   31 1   
    23   15   32 1   
    24   15   33 1   
    25   16   17 1   
    26   16   34 1   
    27   16   35 1   
    28   17   18 1   
    29   18   19 ar  
    30   18   25 ar  
    31   19   20 ar  
    32   19   36 1   
    33   20   21 ar  
    34   20   37 1   
    35   21   22 1   
    36   21   24 ar  
    37   22   23 3   
    38   24   25 ar  
    39   24   38 1   
    40   25   39 1   
@<TRIPOS>SUBSTRUCTURE
     1 3B6         1 TEMP              0 ****  ****    0 ROOT
