@<TRIPOS>MOLECULE
3B6
   39    40     1     0     0
SMALL
bcc


@<TRIPOS>ATOM
      1 C5         -0.0530   -0.7300    0.2080 ca        1 3B6     -0.159000
      2 C4          1.3070   -0.8870   -0.0290 ca        1 3B6      0.082900
      3 I7          1.8870   -2.1170   -1.5280 i         1 3B6     -0.112900
      4 C3          2.2420   -0.2040    0.7610 ca        1 3B6     -0.013000
      5 C8          3.6400   -0.3420    0.5470 cg        1 3B6      0.228800
      6 N8          4.7890   -0.4390    0.3910 n1        1 3B6     -0.344800
      7 C2          1.7910    0.6360    1.7880 ca        1 3B6     -0.069000
      8 C1          0.4340    0.8030    2.0330 ca        1 3B6     -0.149000
      9 C6         -0.5170    0.1210    1.2440 ca        1 3B6      0.088600
     10 N9         -1.9010    0.2640    1.4140 ns        1 3B6     -0.448100
     11 C10        -2.5520    0.8620    2.4780 c         1 3B6      0.676100
     12 O10        -1.9710    1.4330    3.4190 o         1 3B6     -0.589100
     13 C11        -4.1000    0.8710    2.4290 c3        1 3B6      0.091800
     14 O11        -4.5350   -0.3460    1.8380 oh        1 3B6     -0.605800
     15 C12        -4.5570    2.0650    1.6050 c3        1 3B6     -0.127100
     16 C13        -4.6080    0.9670    3.8800 c3        1 3B6      0.105400
     17 O14        -6.0350    0.8570    3.7890 os        1 3B6     -0.347900
     18 C16        -6.7180    0.8860    4.9880 ca        1 3B6      0.150100
     19 C17        -8.1150    0.7430    4.8690 ca        1 3B6     -0.184000
     20 C18        -8.8990    0.7630    6.0140 ca        1 3B6     -0.056000
     21 C19        -8.3040    0.9230    7.2770 ca        1 3B6     -0.051000
     22 C22        -9.1130    0.9420    8.4430 cg        1 3B6      0.234800
     23 N22        -9.7770    0.9570    9.3990 n1        1 3B6     -0.361800
     24 C20        -6.9150    1.0650    7.3830 ca        1 3B6     -0.056000
     25 C21        -6.1160    1.0470    6.2420 ca        1 3B6     -0.184000
     26 H5         -0.7780   -1.2750   -0.4190 ha        1 3B6      0.151000
     27 H2          2.5230    1.1740    2.4130 ha        1 3B6      0.153000
     28 H1          0.1140    1.4710    2.8510 ha        1 3B6      0.181000
     29 HN9        -2.4770   -0.2550    0.7810 hn        1 3B6      0.340500
     30 HO11       -5.5000   -0.3560    1.8990 ho        1 3B6      0.437000
     31 H12        -4.2730    1.9240    0.5350 hc        1 3B6      0.062033
     32 H12A       -5.6680    2.1620    1.6750 hc        1 3B6      0.062033
     33 H12B       -4.0870    3.0010    1.9910 hc        1 3B6      0.062033
     34 H13        -4.2000    0.1210    4.4900 h1        1 3B6      0.072700
     35 H13A       -4.3200    1.9530    4.3270 h1        1 3B6      0.072700
     36 H17        -8.5660    0.6190    3.8740 ha        1 3B6      0.152500
     37 H18        -9.9920    0.6520    5.9320 ha        1 3B6      0.150000
     38 H20        -6.4480    1.1910    8.3730 ha        1 3B6      0.150000
     39 H21        -5.0270    1.1610    6.3420 ha        1 3B6      0.152500
@<TRIPOS>BOND
     1    1    2 ar  
     2    1    9 ar  
     3    1   26 1   
     4    2    3 1   
     5    2    4 ar  
     6    4    5 1   
     7    4    7 ar  
     8    5    6 3   
     9    7    8 ar  
    10    7   27 1   
    11    8    9 ar  
    12    8   28 1   
    13    9   10 1   
    14   10   11 1   
    15   10   29 1   
    16   11   12 2   
    17   11   13 1   
    18   13   14 1   
    19   13   15 1   
    20   13   16 1   
    21   14   30 1   
    22   15   31 1   
    23   15   32 1   
    24   15   33 1   
    25   16   17 1   
    26   16   34 1   
    27   16   35 1   
    28   17   18 1   
    29   18   19 ar  
    30   18   25 ar  
    31   19   20 ar  
    32   19   36 1   
    33   20   21 ar  
    34   20   37 1   
    35   21   22 1   
    36   21   24 ar  
    37   22   23 3   
    38   24   25 ar  
    39   24   38 1   
    40   25   39 1   
@<TRIPOS>SUBSTRUCTURE
     1 3B6         1 TEMP              0 ****  ****    0 ROOT
