@<TRIPOS>MOLECULE
3B8
   29    31     1     0     0
SMALL
bcc


@<TRIPOS>ATOM
      1 C5          0.0010   -0.1560   -0.0130 ca        1 3B8     -0.102000
      2 C6          1.3740    0.0490   -0.0110 ca        1 3B8     -0.105000
      3 C3         -0.0360   -0.0490    2.4310 ca        1 3B8     -0.084000
      4 C2          1.3480    0.1590    2.4390 ca        1 3B8     -0.183600
      5 C1          2.0340    0.2050    1.2170 ca        1 3B8      0.106100
      6 O11         7.8120    1.2770    5.6870 o         1 3B8     -0.492100
      7 C4         -0.7090   -0.2060    1.2070 ca        1 3B8      0.125900
      8 O7          3.4140    0.4060    1.0950 os        1 3B8     -0.294400
      9 C8          2.0660    0.3250    3.7060 c         1 3B8      0.613300
     10 F9         -2.0450   -0.4070    1.1970 f         1 3B8     -0.111900
     11 O10         1.5320    0.2960    4.8220 o         1 3B8     -0.522100
     12 N12         5.9640    1.0620    7.0100 n4        1 3B8     -0.757400
     13 C13         6.2630    0.9270    3.1400 ca        1 3B8      0.817200
     14 C14         5.7290    0.9100    4.5010 ca        1 3B8     -0.448900
     15 C15         4.3350    0.7080    4.6480 ca        1 3B8      0.052000
     16 C16         3.5160    0.5350    3.5560 ca        1 3B8     -0.361900
     17 C17         4.1280    0.5670    2.2540 ca        1 3B8      0.771600
     18 N18         5.4370    0.7530    2.0400 nb        1 3B8     -0.754000
     19 N19         7.5780    1.1120    2.8800 nh        1 3B8     -0.905500
     20 C20         6.5980    1.0920    5.6210 c         1 3B8      0.592700
     21 H5         -0.5440   -0.2820   -0.9640 ha        1 3B8      0.178000
     22 H6          1.9450    0.0920   -0.9520 ha        1 3B8      0.179000
     23 H3         -0.5890   -0.0880    3.3840 ha        1 3B8      0.185000
     24 HN12        5.2660    1.8050    7.0950 hn        1 3B8      0.466800
     25 HN1A        6.6980    1.2040    7.7160 hn        1 3B8      0.466800
     26 H15         3.8470    0.6810    5.6380 ha        1 3B8      0.149000
     27 HN19        8.2370    1.2450    3.6130 hn        1 3B8      0.477800
     28 HN1B        7.9120    1.1190    1.9380 hn        1 3B8      0.477800
     29 H123        5.5120    0.1580    7.1710 hn        1 3B8      0.466800
@<TRIPOS>BOND
     1    1    2 ar  
     2    1    7 ar  
     3    1   21 1   
     4    2    5 ar  
     5    2   22 1   
     6    3    4 ar  
     7    3    7 ar  
     8    3   23 1   
     9    4    5 ar  
    10    4    9 1   
    11    5    8 1   
    12    6   20 2   
    13    7   10 1   
    14    8   17 1   
    15    9   11 2   
    16    9   16 1   
    17   12   20 1   
    18   12   24 1   
    19   12   25 1   
    20   12   29 1   
    21   13   14 ar  
    22   13   18 ar  
    23   13   19 1   
    24   14   15 ar  
    25   14   20 1   
    26   15   16 ar  
    27   15   26 1   
    28   16   17 ar  
    29   17   18 ar  
    30   19   27 1   
    31   19   28 1   
@<TRIPOS>SUBSTRUCTURE
     1 3B8         1 TEMP              0 ****  ****    0 ROOT
