@<TRIPOS>MOLECULE
3B8
   28    30     1     0     0
SMALL
bcc


@<TRIPOS>ATOM
      1 C5          4.3810   -1.1120   -0.0580 ca        1 3B8     -0.114000
      2 C6          3.1480   -1.7430   -0.0970 ca        1 3B8     -0.128000
      3 C3          3.2790    1.0630    0.1150 ca        1 3B8     -0.086000
      4 C2          2.0300    0.4300    0.0760 ca        1 3B8     -0.187600
      5 C1          1.9760   -0.9660   -0.0290 ca        1 3B8      0.131100
      6 O11        -5.1460    0.3170    0.8370 o         1 3B8     -0.642100
      7 C4          4.4500    0.2950    0.0480 ca        1 3B8      0.094900
      8 O7          0.8020   -1.7050   -0.0780 os        1 3B8     -0.320400
      9 C8          0.7900    1.2220    0.1460 c         1 3B8      0.616300
     10 F9          5.6610    0.9030    0.0840 f         1 3B8     -0.132900
     11 O10         0.7850    2.4590    0.2250 o         1 3B8     -0.548100
     12 N12        -4.3870    2.0680   -0.3790 n         1 3B8     -0.664000
     13 C13        -2.7040   -1.2060    0.0370 ca        1 3B8      0.771200
     14 C14        -2.8460    0.2330    0.1400 ca        1 3B8     -0.369900
     15 C15        -1.6980    1.0110    0.1830 ca        1 3B8      0.056000
     16 C16        -0.4290    0.4210    0.1090 ca        1 3B8     -0.404900
     17 C17        -0.3870   -0.9930    0.0010 ca        1 3B8      0.724600
     18 N18        -1.4620   -1.8050   -0.0290 nb        1 3B8     -0.768000
     19 N19        -3.8010   -2.0190   -0.0480 nh        1 3B8     -0.938500
     20 C20        -4.1900    0.8550    0.2310 c         1 3B8      0.693700
     21 H5          5.3110   -1.6970   -0.1100 ha        1 3B8      0.159000
     22 H6          3.0700   -2.8380   -0.1780 ha        1 3B8      0.166000
     23 H3          3.3270    2.1610    0.1980 ha        1 3B8      0.178000
     24 HN12       -5.2710    2.5070   -0.3110 hn        1 3B8      0.318000
     25 HN1A       -3.6670    2.5130   -0.8860 hn        1 3B8      0.318000
     26 H15        -1.7460    2.1100    0.2910 ha        1 3B8      0.165000
     27 HN19       -4.6910   -1.6440    0.1940 hn        1 3B8      0.457800
     28 HN1B       -3.6860   -3.0060   -0.0400 hn        1 3B8      0.457800
@<TRIPOS>BOND
     1    1    2 ar  
     2    1    7 ar  
     3    1   21 1   
     4    2    5 ar  
     5    2   22 1   
     6    3    4 ar  
     7    3    7 ar  
     8    3   23 1   
     9    4    5 ar  
    10    4    9 1   
    11    5    8 1   
    12    6   20 2   
    13    7   10 1   
    14    8   17 1   
    15    9   11 2   
    16    9   16 1   
    17   12   20 1   
    18   12   24 1   
    19   12   25 1   
    20   13   14 ar  
    21   13   18 ar  
    22   13   19 1   
    23   14   15 ar  
    24   14   20 1   
    25   15   16 ar  
    26   15   26 1   
    27   16   17 ar  
    28   17   18 ar  
    29   19   27 1   
    30   19   28 1   
@<TRIPOS>SUBSTRUCTURE
     1 3B8         1 TEMP              0 ****  ****    0 ROOT
