@<TRIPOS>MOLECULE
3B8
   28    25     1     0     0
SMALL
bcc


@<TRIPOS>ATOM
      1 C5         -3.5940    0.0670   -3.2880 c1        1 3B8     -0.056500
      2 C6         -2.2050    0.0460   -3.2630 c1        1 3B8     -0.070500
      3 C3         -3.6370    0.1690   -0.8810 c1        1 3B8     -0.028500
      4 C2         -2.2330    0.1480   -0.8550 cg        1 3B8     -0.136200
      5 C1         -1.5230    0.0870   -2.0360 c1        1 3B8      0.114600
      6 O11         3.1810    1.2900    3.3250 o         1 3B8     -0.642100
      7 C4         -4.3100    0.1290   -2.0950 c1        1 3B8      0.062100
      8 O7         -0.0480    0.1340   -2.0140 os        1 3B8     -0.177700
      9 C8         -1.5100    0.1620    0.4420 ce        1 3B8      0.570500
     10 F9         -5.6360    0.3130   -2.0990 f         1 3B8     -0.100100
     11 O10        -2.1260    0.3000    1.4800 o         1 3B8     -0.574300
     12 N12         3.0990   -0.9530    3.7440 n         1 3B8     -0.664000
     13 C13         2.7280   -0.0000    0.4740 c1        1 3B8      0.470400
     14 C14         2.0240    0.0500    1.6750 cg        1 3B8     -0.253200
     15 C15         0.6570    0.1080    1.6640 c1        1 3B8      0.113500
     16 C16        -0.0250    0.1170    0.4600 c1        1 3B8     -0.255900
     17 C17         0.6750    0.0660   -0.7270 ce        1 3B8      0.347600
     18 N18         2.0550    0.0080   -0.7140 ne        1 3B8     -0.603000
     19 N19         4.0470   -0.0490   -0.0450 n3        1 3B8     -0.435400
     20 C20         2.8090    0.1930    2.9590 c         1 3B8      0.642300
     21 H5         -4.0670    0.0390   -4.1400 ha        1 3B8      0.101500
     22 H6         -1.7030    0.0030   -4.0990 ha        1 3B8      0.108500
     23 H3         -4.1400    0.2130   -0.0450 ha        1 3B8      0.120500
     24 HN12        3.5040   -0.8590    4.5580 hn        1 3B8      0.318000
     25 HN1A        2.8710   -1.7840    3.4400 hn        1 3B8      0.318000
     26 H15         0.1630    0.1440    2.5050 ha        1 3B8      0.107500
     27 HN19        4.7620   -0.0620    0.5250 hn        1 3B8      0.302700
     28 HN1B        4.1820   -0.0810   -0.9490 hn        1 3B8      0.302700
@<TRIPOS>BOND
     1    1    7 3   
     2    1   21 1   
     3    2    5 3   
     4    2   22 1   
     5    3    4 3   
     6    3   23 1   
     7    4    9 1   
     8    5    8 1   
     9    6   20 2   
    10    7   10 1   
    11    8   17 1   
    12    9   11 1   
    13    9   16 2   
    14   12   20 1   
    15   12   24 1   
    16   12   25 1   
    17   13   18 2   
    18   13   19 2   
    19   14   15 3   
    20   14   20 1   
    21   15   26 1   
    22   16   17 2   
    23   17   18 1   
    24   19   27 1   
    25   19   28 1   
@<TRIPOS>SUBSTRUCTURE
     1 3B8         1 TEMP              0 ****  ****    0 ROOT
