@<TRIPOS>MOLECULE
3B8
   29    31     1     0     0
SMALL
bcc


@<TRIPOS>ATOM
      1 C5         -0.0010   -0.1570   -0.0120 ca        1 3B8     -0.102000
      2 C6          1.3710    0.0490   -0.0110 ca        1 3B8     -0.105000
      3 C3         -0.0370   -0.0500    2.4320 ca        1 3B8     -0.084000
      4 C2          1.3480    0.1580    2.4390 ca        1 3B8     -0.183600
      5 C1          2.0330    0.2040    1.2170 ca        1 3B8      0.106100
      6 O11         7.8140    1.2760    5.6840 o         1 3B8     -0.492100
      7 C4         -0.7100   -0.2070    1.2090 ca        1 3B8      0.125900
      8 O7          3.4130    0.4060    1.0950 os        1 3B8     -0.294400
      9 C8          2.0660    0.3240    3.7070 c         1 3B8      0.613300
     10 F9         -2.0460   -0.4080    1.1990 f         1 3B8     -0.111900
     11 O10         1.5320    0.2940    4.8220 o         1 3B8     -0.522100
     12 N12         5.9660    1.0600    7.0080 nz        1 3B8     -0.757400
     13 C13         6.2630    0.9260    3.1380 ca        1 3B8      0.817200
     14 C14         5.7290    0.9090    4.4990 ca        1 3B8     -0.448900
     15 C15         4.3360    0.7070    4.6460 ca        1 3B8      0.052000
     16 C16         3.5160    0.5340    3.5550 ca        1 3B8     -0.361900
     17 C17         4.1270    0.5660    2.2530 ca        1 3B8      0.771600
     18 N18         5.4360    0.7520    2.0380 nb        1 3B8     -0.754000
     19 N19         7.5780    1.1120    2.8760 nv        1 3B8     -0.905500
     20 C20         6.5990    1.0910    5.6180 c         1 3B8      0.592700
     21 H5         -0.5470   -0.2820   -0.9620 ha        1 3B8      0.178000
     22 H6          1.9430    0.0910   -0.9520 ha        1 3B8      0.179000
     23 H3         -0.5890   -0.0890    3.3860 ha        1 3B8      0.185000
     24 HN12        5.2680    1.8030    7.0930 hn        1 3B8      0.466800
     25 HN1A        6.7010    1.2020    7.7130 hn        1 3B8      0.466800
     26 H15         3.8480    0.6790    5.6370 ha        1 3B8      0.149000
     27 HN19        7.9110    1.1190    1.9350 hn        1 3B8      0.477800
     28 HN1B        8.2370    1.2440    3.6100 hn        1 3B8      0.477800
     29 H123        5.5150    0.1560    7.1690 hn        1 3B8      0.466800
@<TRIPOS>BOND
     1    1    2 ar  
     2    1    7 ar  
     3    1   21 1   
     4    2    5 ar  
     5    2   22 1   
     6    3    4 ar  
     7    3    7 ar  
     8    3   23 1   
     9    4    5 ar  
    10    4    9 1   
    11    5    8 1   
    12    6   20 2   
    13    7   10 1   
    14    8   17 1   
    15    9   11 2   
    16    9   16 1   
    17   12   20 1   
    18   12   24 1   
    19   12   25 1   
    20   12   29 1   
    21   13   14 ar  
    22   13   18 ar  
    23   13   19 1   
    24   14   15 ar  
    25   14   20 1   
    26   15   16 ar  
    27   15   26 1   
    28   16   17 ar  
    29   17   18 ar  
    30   19   27 1   
    31   19   28 1   
@<TRIPOS>SUBSTRUCTURE
     1 3B8         1 TEMP              0 ****  ****    0 ROOT
