@<TRIPOS>MOLECULE
3B8
   30    32     1     0     0
SMALL
bcc


@<TRIPOS>ATOM
      1 C5         -0.0120   -0.1840   -0.0340 ca        1 3B8     -0.096000
      2 C6          1.3640    0.0200   -0.0260 ca        1 3B8     -0.073000
      3 C3         -0.0650   -0.0540    2.4140 ca        1 3B8     -0.079000
      4 C2          1.3170    0.1520    2.4320 ca        1 3B8     -0.172600
      5 C1          2.0060    0.1850    1.2070 ca        1 3B8      0.064100
      6 O11         7.8080    1.2920    5.5860 o         1 3B8     -0.470100
      7 C4         -0.7310   -0.2220    1.1820 ca        1 3B8      0.167900
      8 O7          3.3990    0.3850    1.1030 os        1 3B8     -0.246400
      9 C8          2.0220    0.3280    3.7000 c         1 3B8      0.606300
     10 F9         -2.0620   -0.4200    1.1680 f         1 3B8     -0.083900
     11 O10         1.5090    0.3150    4.8210 o         1 3B8     -0.473100
     12 N12         6.0210    1.1080    7.0230 n4        1 3B8     -0.741400
     13 C13         6.1910    0.9150    3.1560 ca        1 3B8      0.626200
     14 C14         5.6970    0.9180    4.5070 ca        1 3B8     -0.373900
     15 C15         4.3040    0.7200    4.6560 ca        1 3B8      0.046000
     16 C16         3.4890    0.5370    3.5520 ca        1 3B8     -0.298900
     17 C17         4.0810    0.5510    2.2530 ca        1 3B8      0.771600
     18 N18         5.4340    0.7410    2.0670 nb        1 3B8     -0.664000
     19 N19         7.6350    1.1130    2.8780 n4        1 3B8     -0.839300
     20 C20         6.5900    1.1140    5.6320 c         1 3B8      0.583700
     21 H5         -0.5500   -0.3180   -0.9900 ha        1 3B8      0.199000
     22 H6          1.9390    0.0520   -0.9670 ha        1 3B8      0.191000
     23 H3         -0.6330   -0.0850    3.3620 ha        1 3B8      0.200000
     24 HN12        5.3270    1.8590    7.1320 hn        1 3B8      0.492467
     25 HN1A        6.7850    1.2590    7.7050 hn        1 3B8      0.492467
     26 H15         3.8120    0.7030    5.6480 ha        1 3B8      0.186000
     27 HN19        7.9310    2.0260    3.2550 hn        1 3B8      0.497467
     28 HN1B        8.1760    0.3720    3.3480 hn        1 3B8      0.497467
     29 H123        5.5720    0.2050    7.2250 hn        1 3B8      0.492467
     30 H193        7.8290    1.0840    1.8600 hn        1 3B8      0.497467
@<TRIPOS>BOND
     1    1    2 ar  
     2    1    7 ar  
     3    1   21 1   
     4    2    5 ar  
     5    2   22 1   
     6    3    4 ar  
     7    3    7 ar  
     8    3   23 1   
     9    4    5 ar  
    10    4    9 1   
    11    5    8 1   
    12    6   20 2   
    13    7   10 1   
    14    8   17 1   
    15    9   11 2   
    16    9   16 1   
    17   12   20 1   
    18   12   24 1   
    19   12   25 1   
    20   12   29 1   
    21   13   14 ar  
    22   13   18 ar  
    23   13   19 1   
    24   14   15 ar  
    25   14   20 1   
    26   15   16 ar  
    27   15   26 1   
    28   16   17 ar  
    29   17   18 ar  
    30   19   27 1   
    31   19   28 1   
    32   19   30 1   
@<TRIPOS>SUBSTRUCTURE
     1 3B8         1 TEMP              0 ****  ****    0 ROOT
