@<TRIPOS>MOLECULE
3B9
   56    51     1     0     0
SMALL
bcc


@<TRIPOS>ATOM
      1 C15        -4.5220   -1.4140    1.8980 c1        1 3B9     -0.194000
      2 C1          5.4790    3.7370   -4.4960 c1        1 3B9      0.208500
      3 C2          6.3010    1.5700   -4.0260 c1        1 3B9      0.208500
      4 C3          4.0560    2.1480   -3.4480 c1        1 3B9      0.134000
      5 C8          1.0810    0.3740   -2.1310 c3        1 3B9     -0.035000
      6 C4          5.0640    1.2290   -3.4770 c1        1 3B9     -0.259000
      7 C5          4.8630   -0.0470   -2.9350 c2        1 3B9     -0.037000
      8 C6          3.6480   -0.3710   -2.3730 c1        1 3B9     -0.222000
      9 C7          2.6230    0.5670   -2.3440 c1        1 3B9      0.049000
     10 C9          0.8450   -0.6310   -1.0140 c3        1 3B9     -0.028000
     11 N1          6.4990    2.8080   -4.5260 n1        1 3B9     -0.272500
     12 N2          4.2600    3.4030   -3.9570 n1        1 3B9     -0.272500
     13 N3          2.8200    1.8150   -2.8750 n2        1 3B9     -0.137000
     14 N4          5.7030    5.0630   -4.9910 n3        1 3B9     -0.337000
     15 N5          7.5690    0.9480   -4.3110 n3        1 3B9     -0.337000
     16 C10         0.4510    1.6970   -1.7570 c3        1 3B9     -0.207000
     17 C11         0.4580   -0.1370   -3.4110 c3        1 3B9     -0.207000
     18 N6         -0.5420   -0.5600   -0.5840 n         1 3B9     -0.364000
     19 C12        -1.1190   -1.6440    0.1600 c2        1 3B9      0.344000
     20 O1         -0.7220   -2.7770   -0.0130 o         1 3B9     -0.371000
     21 C13        -2.2060   -1.3600    1.2170 c2        1 3B9     -0.152000
     22 C14        -3.5260   -1.7390    0.9780 c1        1 3B9     -0.050000
     23 C16        -4.1990   -0.7130    3.0510 c1        1 3B9      0.092000
     24 C17        -2.8780   -0.3340    3.2890 c1        1 3B9     -0.159000
     25 C18        -1.8830   -0.6600    2.3700 c2        1 3B9     -0.076000
     26 O2         -5.2360   -0.2590    3.9200 os        1 3B9     -0.158000
     27 C19        -5.3650   -1.1600    5.0210 c2        1 3B9      0.047000
     28 C20        -4.5610   -0.9970    6.1440 c2        1 3B9     -0.161000
     29 C21        -4.7960   -1.7610    7.2860 c1        1 3B9     -0.110000
     30 C22        -5.8340   -2.6870    7.3030 c1        1 3B9     -0.127500
     31 C23        -6.6390   -2.8500    6.1800 c1        1 3B9     -0.127500
     32 C24        -6.4060   -2.0880    5.0400 c1        1 3B9     -0.134000
     33 H15        -5.4510   -1.6800    1.7300 ha        1 3B9      0.154000
     34 H5          5.5920   -0.7140   -2.9550 ha        1 3B9      0.129000
     35 H6          3.5060   -1.2620   -1.9960 ha        1 3B9      0.157000
     36 H9          1.4270   -0.4230   -0.2640 h1        1 3B9      0.109500
     37 H9A         1.0410   -1.5350   -1.3400 h1        1 3B9      0.109500
     38 HN4         5.0680    5.7130   -4.8650 hn        1 3B9      0.224000
     39 HN4A        6.4890    5.2670   -5.4040 hn        1 3B9      0.224000
     40 HN5         7.6170    0.0390   -4.4330 hn        1 3B9      0.224000
     41 HN5A        8.3340    1.4540   -4.3260 hn        1 3B9      0.224000
     42 H10         0.8370    2.0160   -0.9160 hc        1 3B9      0.084167
     43 H10A       -0.5130    1.5800   -1.6500 hc        1 3B9      0.084167
     44 H10B        0.6240    2.3520   -2.4640 hc        1 3B9      0.084167
     45 H11         0.6200    0.5050   -4.1300 hc        1 3B9      0.084167
     46 H11A       -0.5160   -0.2470   -3.2820 hc        1 3B9      0.084167
     47 H11B        0.8570   -1.0030   -3.6480 hc        1 3B9      0.084167
     48 HN6        -1.0560    0.1570   -0.8180 hn        1 3B9      0.222000
     49 H14        -3.7530   -2.2310    0.1670 ha        1 3B9      0.157000
     50 H17        -2.6500    0.1590    4.1020 ha        1 3B9      0.156000
     51 H18        -0.9500   -0.3920    2.5390 ha        1 3B9      0.142000
     52 H20        -3.8320   -0.3460    6.1330 ha        1 3B9      0.149000
     53 H21        -4.2260   -1.6460    8.0820 ha        1 3B9      0.138000
     54 H22        -6.0000   -3.2260    8.1090 ha        1 3B9      0.136500
     55 H23        -7.3760   -3.5070    6.1920 ha        1 3B9      0.136500
     56 H24        -6.9750   -2.2040    4.2460 ha        1 3B9      0.151000
@<TRIPOS>BOND
     1    1   23 1   
     2    1   33 1   
     3    2   12 1   
     4    2   14 1   
     5    3   11 1   
     6    3   15 1   
     7    4    6 1   
     8    4   13 1   
     9    5    9 1   
    10    5   10 1   
    11    5   16 1   
    12    5   17 1   
    13    6    7 1   
    14    7    8 1   
    15    7   34 1   
    16    8   35 1   
    17    9   13 1   
    18   10   18 1   
    19   10   36 1   
    20   10   37 1   
    21   14   38 1   
    22   14   39 1   
    23   15   40 1   
    24   15   41 1   
    25   16   42 1   
    26   16   43 1   
    27   16   44 1   
    28   17   45 1   
    29   17   46 1   
    30   17   47 1   
    31   18   19 1   
    32   18   48 1   
    33   19   20 1   
    34   19   21 1   
    35   21   22 1   
    36   21   25 1   
    37   22   49 1   
    38   23   26 1   
    39   24   25 1   
    40   24   50 1   
    41   25   51 1   
    42   26   27 1   
    43   27   28 1   
    44   27   32 1   
    45   28   29 1   
    46   28   52 1   
    47   29   53 1   
    48   30   31 1   
    49   30   54 1   
    50   31   55 1   
    51   32   56 1   
@<TRIPOS>SUBSTRUCTURE
     1 3B9         1 TEMP              0 ****  ****    0 ROOT
