@<TRIPOS>MOLECULE
3B9
   57    75     1     0     0
SMALL
bcc


@<TRIPOS>ATOM
      1 C15         0.0000    0.0000    0.0000 ca        1 3B9     -0.110000
      2 C1         11.6580   -0.6240    1.5560 DU        1 3B9     -0.008000
      3 C2         11.8300   -0.0250    3.7850 c3        1 3B9      0.472000
      4 C3          9.6710   -0.3140    2.6940 c2        1 3B9      0.121000
      5 C8          6.1880   -0.0000    3.8370 DU        1 3B9     -0.040000
      6 C4         10.4160   -0.0020    3.8580 c3        1 3B9     -0.431000
      7 C5          9.7370    0.3170    5.0410 c2        1 3B9     -0.010000
      8 C6          8.3670    0.3140    5.0180 c2        1 3B9     -0.228000
      9 C7          7.6950   -0.0010    3.8430 c3        1 3B9     -0.365000
     10 C9          5.6830   -0.0010    2.3930 DU        1 3B9      0.253000
     11 N1         12.3930   -0.3380    2.6260 n2        1 3B9     -0.127000
     12 N2         10.3380   -0.6180    1.5720 n2        1 3B9     -0.290000
     13 N3          8.3380   -0.3000    2.7360 n2        1 3B9     -0.011000
     14 C10         5.6740   -1.2480    4.5580 c3        1 3B9     -0.175000
     15 C11         5.6760    1.2500    4.5560 c3        1 3B9     -0.315000
     16 N6          4.2180   -0.0000    2.3870 ny        1 3B9      0.078000
     17 C12         3.5480   -0.0010    1.2180 c3        1 3B9      0.116000
     18 O1          4.1610   -0.0010    0.1670 o         1 3B9     -0.138000
     19 C13         2.0730    0.0000    1.2120 ca        1 3B9      0.508000
     20 C14         1.3760    0.0000    0.0000 ca        1 3B9      0.022000
     21 C16        -0.6980    0.0010    1.2020 ca        1 3B9      0.184000
     22 C17        -0.0090    0.0020    2.4100 ca        1 3B9     -0.110000
     23 C18         1.3680    0.0020    2.4190 ca        1 3B9      0.022000
     24 O2         -2.0550    0.0010    1.1970 os        1 3B9     -0.125000
     25 C19        -2.6910   -1.1070    0.7350 c3        1 3B9     -0.005000
     26 C20        -4.0710   -1.1070    0.5910 c3        1 3B9      0.008000
     27 C21        -4.7160   -2.2340    0.1210 c2        1 3B9      0.451000
     28 C22        -3.9870   -3.3640   -0.2050 c2        1 3B9      0.461000
     29 C23        -2.6110   -3.3660   -0.0620 c2        1 3B9      0.235000
     30 C24        -1.9610   -2.2390    0.4010 c2        1 3B9     -0.064000
     31 H15         1.0670   -0.1760    0.0660 ha        1 3B9      0.105000
     32 H5         10.6950    0.5510    4.5920 DU        1 3B9      0.331000
     33 H6          7.4670    0.2820    4.4160 DU        1 3B9      0.307000
     34 H9          6.5390    0.1490    3.0400 DU        1 3B9      0.371000
     35 H9A         6.2360    0.1240    3.3160 DU        1 3B9     -0.888000
     36 HN4        11.3300   -0.9310    0.6100 DU        1 3B9      0.283000
     37 HN4A       11.3670   -0.6650    0.6010 DU        1 3B9      0.283000
     38 HN5        12.3410   -0.2850    4.0970 DU        1 3B9     -0.021000
     39 HN5A       12.2680   -0.0090    3.9870 DU        1 3B9     -0.299000
     40 H10         6.6420   -0.7850    4.4090 DU        1 3B9      0.346000
     41 H10A        6.7150   -0.9780    4.4270 hc        1 3B9      0.075000
     42 H10B        5.4880   -2.0320    3.8330 hc        1 3B9      0.075000
     43 H11         5.9430    0.2320    4.8130 DU        1 3B9      0.212500
     44 H11A        5.2740    0.2700    4.7840 DU        1 3B9      0.212500
     45 H11B        6.2630    1.4180    5.4500 hc        1 3B9      0.121000
     46 HN6         4.7310    0.6990    2.8870 DU        1 3B9      0.214000
     47 H14         1.9710    0.2030    0.8820 DU        1 3B9     -0.286500
     48 H17         1.0490   -0.0360    2.6380 ha        1 3B9      0.105000
     49 H18         1.5440   -0.0200    1.3500 DU        1 3B9     -0.286500
     50 H20        -3.2450   -0.8410    1.2390 DU        1 3B9      0.236000
     51 H21        -3.7870   -1.9120    0.5760 DU        1 3B9     -0.041000
     52 H22        -4.1990   -2.3590    0.1400 ha        1 3B9     -0.420000
     53 H23        -3.6320   -3.0040   -0.0400 ha        1 3B9     -0.453000
     54 H24        -2.7740   -2.8840    0.0890 ha        1 3B9     -0.203000
     55 N4         12.3030   -0.9380    0.3760 n8        1 3B9     -0.223000
     56 H62         3.3490   -0.3640    2.0510 DU        1 3B9      0.313000
     57 N5         12.6000    0.2700    4.8880 n8        1 3B9      0.153000
@<TRIPOS>BOND
     1    1   20 1   
     2    1   21 1   
     3    1   31 1   
     4    2   11 1   
     5    2   12 1   
     6    2   36 1   
     7    2   37 1   
     8    2   55 1   
     9    3    6 1   
    10    3   11 1   
    11    3   38 1   
    12    3   57 1   
    13    4    6 1   
    14    4   12 1   
    15    4   13 1   
    16    5    9 1   
    17    5   10 1   
    18    5   14 1   
    19    5   15 1   
    20    5   34 1   
    21    5   40 1   
    22    6    7 1   
    23    6   32 1   
    24    7    8 1   
    25    7   32 1   
    26    8    9 1   
    27    8   33 1   
    28    9   13 1   
    29    9   33 1   
    30   10   16 1   
    31   10   34 1   
    32   10   35 1   
    33   10   46 1   
    34   14   40 1   
    35   14   41 1   
    36   14   42 1   
    37   15   43 1   
    38   15   44 1   
    39   15   45 1   
    40   16   17 1   
    41   16   46 1   
    42   16   56 1   
    43   17   18 1   
    44   17   19 1   
    45   17   56 1   
    46   19   20 1   
    47   19   23 1   
    48   20   47 1   
    49   21   22 1   
    50   21   24 1   
    51   22   23 1   
    52   22   48 1   
    53   23   49 1   
    54   24   25 1   
    55   25   26 1   
    56   25   30 1   
    57   25   50 1   
    58   26   27 1   
    59   26   50 1   
    60   26   51 1   
    61   27   28 1   
    62   27   51 1   
    63   28   29 1   
    64   28   52 1   
    65   29   30 1   
    66   29   53 1   
    67   30   54 1   
    68   34   35 1   
    69   36   55 1   
    70   37   55 1   
    71   38   39 1   
    72   38   57 1   
    73   39   57 1   
    74   43   44 1   
    75   47   49 1   
@<TRIPOS>SUBSTRUCTURE
     1 3B9         1 TEMP              0 ****  ****    0 ROOT
