@<TRIPOS>MOLECULE
3B9
   56    59     1     0     0
SMALL
bcc


@<TRIPOS>ATOM
      1 C15         4.8670   -0.3070    0.5050 ca        1 3B9     -0.175500
      2 C1         -7.1580   -2.0210   -0.4870 ca        1 3B9      0.919900
      3 C2         -7.6990    0.1770    0.1270 ca        1 3B9      0.739200
      4 C3         -5.3670   -0.5420   -0.2410 ca        1 3B9      0.729300
      5 C8         -2.0400    1.1920   -0.0620 c3        1 3B9     -0.130300
      6 C4         -6.2860    0.5230    0.0770 ca        1 3B9     -0.391600
      7 C5         -5.7610    1.8130    0.3120 ca        1 3B9     -0.035000
      8 C6         -4.4050    2.0170    0.2580 ca        1 3B9     -0.289300
      9 C7         -3.5400    0.9080   -0.0340 ca        1 3B9      0.479600
     10 C9         -1.2320   -0.1190   -0.2690 c3        1 3B9      0.100000
     11 N1         -8.1300   -1.0770   -0.1270 nb        1 3B9     -0.829000
     12 N2         -5.8040   -1.8190   -0.5220 nb        1 3B9     -0.768000
     13 N3         -3.9930   -0.3170   -0.2760 nb        1 3B9     -0.668000
     14 N5         -8.6410    1.1580    0.3960 nh        1 3B9     -0.947500
     15 C10        -1.7590    2.1570   -1.2050 c3        1 3B9     -0.090600
     16 C11        -1.6470    1.8140    1.2710 c3        1 3B9     -0.090600
     17 N6          0.1780    0.0570   -0.4720 n         1 3B9     -0.561900
     18 C12         1.1070   -0.0520    0.5460 c         1 3B9      0.668700
     19 O1          0.7820   -0.4410    1.6860 o         1 3B9     -0.603100
     20 C13         2.5280    0.2510    0.2080 ca        1 3B9     -0.168600
     21 C14         3.5240   -0.5500    0.7790 ca        1 3B9     -0.065500
     22 C16         5.2080    0.7550   -0.3420 ca        1 3B9      0.135100
     23 C17         4.2180    1.5760   -0.9100 ca        1 3B9     -0.175500
     24 C18         2.8810    1.3170   -0.6260 ca        1 3B9     -0.065500
     25 O2          6.5130    1.1310   -0.6280 os        1 3B9     -0.249200
     26 C19         7.4990    0.1550   -0.4820 ca        1 3B9      0.093100
     27 C20         8.6810    0.5620    0.1520 ca        1 3B9     -0.147000
     28 C21         9.7500   -0.3300    0.2130 ca        1 3B9     -0.112500
     29 C22         9.6380   -1.6070   -0.3380 ca        1 3B9     -0.141000
     30 C23         8.4530   -2.0010   -0.9620 ca        1 3B9     -0.112500
     31 C24         7.3730   -1.1230   -1.0410 ca        1 3B9     -0.147000
     32 H15         5.6520   -0.9350    0.9510 ha        1 3B9      0.154000
     33 H5         -6.4260    2.6630    0.5280 ha        1 3B9      0.129000
     34 H6         -3.9750    3.0120    0.4330 ha        1 3B9      0.147000
     35 H9         -1.3880   -0.7760    0.6340 h1        1 3B9      0.082700
     36 H9A        -1.6280   -0.6490   -1.1820 h1        1 3B9      0.082700
     37 HN4        -8.5620   -3.5080   -0.6290 hn        1 3B9      0.432300
     38 HN4A       -6.9730   -4.0150   -0.9200 hn        1 3B9      0.432300
     39 HN5        -8.3310    1.9470    0.9080 hn        1 3B9      0.426300
     40 HN5A       -9.5830    0.8780    0.5410 hn        1 3B9      0.426300
     41 H10        -2.4640    3.0220   -1.1790 hc        1 3B9      0.042367
     42 H10A       -0.7200    2.5600   -1.1250 hc        1 3B9      0.042367
     43 H10B       -1.8710    1.6370   -2.1870 hc        1 3B9      0.042367
     44 H11        -1.9800    1.1620    2.1140 hc        1 3B9      0.042367
     45 H11A       -0.5370    1.9240    1.3360 hc        1 3B9      0.042367
     46 H11B       -2.1050    2.8250    1.3910 hc        1 3B9      0.042367
     47 HN6         0.4620    0.4620   -1.3320 hn        1 3B9      0.304500
     48 H14         3.2340   -1.3690    1.4580 ha        1 3B9      0.147000
     49 H17         4.5120    2.4130   -1.5590 ha        1 3B9      0.154000
     50 H18         2.1100    1.9730   -1.0570 ha        1 3B9      0.147000
     51 H20         8.7550    1.5730    0.5770 ha        1 3B9      0.149500
     52 H21        10.6860   -0.0220    0.7030 ha        1 3B9      0.137000
     53 H22        10.4860   -2.3050   -0.2820 ha        1 3B9      0.136000
     54 H23         8.3680   -3.0070   -1.3970 ha        1 3B9      0.137000
     55 H24         6.4350   -1.4210   -1.5300 ha        1 3B9      0.149500
     56 N4         -7.6330   -3.2730   -0.8830 nh        1 3B9     -0.930500
@<TRIPOS>BOND
     1    1   21 ar  
     2    1   22 ar  
     3    1   32 1   
     4    2   11 ar  
     5    2   12 ar  
     6    2   56 1   
     7    3    6 ar  
     8    3   11 ar  
     9    3   14 1   
    10    4    6 ar  
    11    4   12 ar  
    12    4   13 ar  
    13    5    9 1   
    14    5   10 1   
    15    5   15 1   
    16    5   16 1   
    17    6    7 ar  
    18    7    8 ar  
    19    7   33 1   
    20    8    9 ar  
    21    8   34 1   
    22    9   13 ar  
    23   10   17 1   
    24   10   35 1   
    25   10   36 1   
    26   14   39 1   
    27   14   40 1   
    28   15   41 1   
    29   15   42 1   
    30   15   43 1   
    31   16   44 1   
    32   16   45 1   
    33   16   46 1   
    34   17   18 1   
    35   17   47 1   
    36   18   19 2   
    37   18   20 1   
    38   20   21 ar  
    39   20   24 ar  
    40   21   48 1   
    41   22   23 ar  
    42   22   25 1   
    43   23   24 ar  
    44   23   49 1   
    45   24   50 1   
    46   25   26 1   
    47   26   27 ar  
    48   26   31 ar  
    49   27   28 ar  
    50   27   51 1   
    51   28   29 ar  
    52   28   52 1   
    53   29   30 ar  
    54   29   53 1   
    55   30   31 ar  
    56   30   54 1   
    57   31   55 1   
    58   37   56 1   
    59   38   56 1   
@<TRIPOS>SUBSTRUCTURE
     1 3B9         1 TEMP              0 ****  ****    0 ROOT
