@<TRIPOS>MOLECULE
3B9
   56    55     1     0     0
SMALL
bcc


@<TRIPOS>ATOM
      1 C15         2.7370   -0.7870   -0.7820 c1        1 3B9     -0.170000
      2 C1          7.5130    0.9450    0.5460 c2        1 3B9      0.207000
      3 C2          7.7110   -1.3910    0.6260 c2        1 3B9      0.193000
      4 C3          6.6510   -0.1380    2.4280 c2        1 3B9      0.106000
      5 C8          5.0510   -1.0850    5.6910 c3        1 3B9     -0.134000
      6 C4          7.0640   -1.3960    1.9100 c2        1 3B9     -0.321000
      7 C5          6.8400   -2.6340    2.6800 c3        1 3B9     -0.183000
      8 C6          6.2000   -2.5000    3.9760 c1        1 3B9     -0.036000
      9 C7          5.7790   -1.1480    4.3610 c2        1 3B9     -0.048000
     10 C9          6.4700    4.0700    1.6510 c1        1 3B9     -0.115000
     11 N1          7.9160   -0.2410   -0.0660 n2        1 3B9     -0.289000
     12 N2          6.8570    1.0340    1.7690 n2        1 3B9     -0.247000
     13 N3          5.9750   -0.0500    3.6840 n2        1 3B9     -0.070000
     14 N5          8.1980   -2.5900    0.0990 nh        1 3B9     -0.330000
     15 C10         3.7520   -1.7470    5.6040 c1        1 3B9     -0.054000
     16 C11         5.9680   -1.5980    6.7860 c3        1 3B9     -0.222000
     17 N6          5.2700    3.6280    1.9450 n         1 3B9     -0.218000
     18 C12         4.4770    2.9000    0.9960 c2        1 3B9      0.417000
     19 O1          4.8620    2.7090   -0.1620 o         1 3B9     -0.291000
     20 C13         3.1880    2.4120    1.5020 c2        1 3B9     -0.543000
     21 C14         3.3760    0.1650   -1.1290 c1        1 3B9     -0.147000
     22 C16         1.9830   -1.9100   -0.3910 c2        1 3B9      0.129000
     23 C17         1.2320   -2.6710   -1.2010 c2        1 3B9     -0.206000
     24 C18         2.3390    2.9310    2.3560 c1        1 3B9      0.240000
     25 O2          2.1120   -2.3270    0.9520 os        1 3B9     -0.152000
     26 C19         1.6720   -1.4630    1.9100 c2        1 3B9      0.154000
     27 C20         1.4460   -2.0800    3.2600 c3        1 3B9     -0.155000
     28 C21         0.1960   -1.4830    3.8420 c2        1 3B9     -0.141000
     29 C22        -0.3060   -0.2880    3.4610 c2        1 3B9     -0.163000
     30 C23         0.5010    0.5400    2.5570 c2        1 3B9     -0.045000
     31 C24         1.3580   -0.1570    1.8110 c1        1 3B9     -0.369000
     32 H15         3.9470    1.0170   -1.4170 ha        1 3B9      0.248000
     33 H5          7.8230   -3.1700    2.8620 hc        1 3B9      0.163500
     34 H6          6.1970   -3.3630    2.0960 hc        1 3B9      0.163500
     35 H9          4.7650   -0.0060    5.9290 hc        1 3B9      0.156000
     36 H9A         7.0080    4.5750    2.4800 ha        1 3B9      0.059000
     37 HN4         7.3490    2.9710    0.2060 hn        1 3B9      0.251000
     38 HN4A        8.0740    2.0730   -1.0560 hn        1 3B9      0.251000
     39 HN5         8.5070   -2.5690   -0.8480 hn        1 3B9      0.208000
     40 HN5A        7.6760   -3.3970    0.3500 hn        1 3B9      0.208000
     41 H10         4.1320   -3.9210    5.5860 ha        1 3B9      0.017500
     42 H10A        4.4760   -3.7170    5.0300 ha        1 3B9      0.017500
     43 H10B        3.3250   -2.0430    6.5770 ha        1 3B9      0.042000
     44 H11         5.4370   -1.5850    7.7680 hc        1 3B9      0.089667
     45 H11A        6.2850   -2.6460    6.5560 hc        1 3B9      0.089667
     46 H11B        6.8800   -0.9590    6.8650 hc        1 3B9      0.089667
     47 HN6         4.8590    3.6700    2.8620 hn        1 3B9      0.184000
     48 H14         2.8730    1.4140    1.0660 ha        1 3B9      0.277000
     49 H17         1.1760   -2.4720   -2.2780 ha        1 3B9      0.136000
     50 H18         0.6590   -3.5270   -0.8260 ha        1 3B9      0.136000
     51 H20         1.3350   -3.1890    3.1380 hc        1 3B9      0.159500
     52 H21         2.3130   -1.9020    3.9730 hc        1 3B9      0.159500
     53 H22        -0.2710   -2.0810    4.6370 ha        1 3B9      0.134000
     54 H23        -1.2330    0.1270    3.8750 ha        1 3B9      0.137000
     55 H24         0.4270    1.6330    2.6130 ha        1 3B9      0.152000
     56 N4          7.8280    2.1320   -0.0960 nh        1 3B9     -0.323000
@<TRIPOS>BOND
     1    1   21 1   
     2    1   22 1   
     3    2   11 1   
     4    2   12 1   
     5    2   56 1   
     6    3    6 1   
     7    3   11 1   
     8    3   14 1   
     9    4    6 1   
    10    4   12 1   
    11    4   13 1   
    12    5    9 1   
    13    5   15 1   
    14    5   16 1   
    15    5   35 1   
    16    6    7 1   
    17    7    8 1   
    18    7   33 1   
    19    7   34 1   
    20    8    9 1   
    21    9   13 1   
    22   10   17 1   
    23   10   36 1   
    24   14   39 1   
    25   14   40 1   
    26   15   43 1   
    27   16   44 1   
    28   16   45 1   
    29   16   46 1   
    30   17   18 1   
    31   17   47 1   
    32   18   19 1   
    33   18   20 1   
    34   20   24 1   
    35   20   48 1   
    36   21   32 1   
    37   22   23 1   
    38   22   25 1   
    39   23   49 1   
    40   23   50 1   
    41   25   26 1   
    42   26   27 1   
    43   26   31 1   
    44   27   28 1   
    45   27   51 1   
    46   27   52 1   
    47   28   29 1   
    48   28   53 1   
    49   29   30 1   
    50   29   54 1   
    51   30   31 1   
    52   30   55 1   
    53   37   56 1   
    54   38   56 1   
    55   41   42 1   
@<TRIPOS>SUBSTRUCTURE
     1 3B9         1 TEMP              0 ****  ****    0 ROOT
