@<TRIPOS>MOLECULE
3BA
   51    50     1     0     0
SMALL
bcc


@<TRIPOS>ATOM
      1 N1       -206.3390  -74.5890   49.8420 ne        1 3BA     -0.547000
      2 C3       -208.4330  -76.3210   48.9810 c2        1 3BA     -0.075200
      3 N2       -207.6080  -77.8300   52.2260 n2        1 3BA     -0.497900
      4 C4       -206.7980  -75.6170   50.7240 ce        1 3BA      0.581300
      5 C9       -206.5890  -77.9120   54.9330 c3        1 3BA     -0.104767
      6 C7       -206.3930  -77.0940   52.5570 c3        1 3BA      0.270700
      7 C6       -208.3990  -77.4290   51.2890 c2        1 3BA      0.461200
      8 C5       -208.2130  -76.1720   50.4480 c3        1 3BA     -0.219100
      9 C10      -207.4560  -75.6420   54.3750 c3        1 3BA     -0.104767
     10 C13      -210.3690  -78.6100   52.3010 c3        1 3BA      0.245900
     11 C14      -211.6440  -79.1770   51.9910 c1        1 3BA     -0.321100
     12 C15      -212.7250  -79.6740   51.8450 c1        1 3BA      0.081500
     13 C16       453.5720  502.9150 -583.9500 c1        1 3BA      0.190300
     14 C17      1991.5750  463.9210 -111.9170 c1        1 3BA      0.664300
     15 C1       -206.8030  -74.5670   48.6270 cf        1 3BA      0.565500
     16 C2       -207.8090  -75.5210   48.0900 cf        1 3BA     -0.243800
     17 N3       -206.0130  -76.0000   51.6810 n2        1 3BA     -0.452900
     18 N4       -206.2630  -73.5330   47.7140 n4        1 3BA     -0.801600
     19 C11      -205.0040  -76.0820   54.3920 c3        1 3BA     -0.104767
     20 O1       -207.0430  -75.2780   45.8500 o         1 3BA     -0.620100
     21 N5       -209.1510  -76.0880   46.0890 n         1 3BA     -0.616000
     22 N6       -209.6340  -78.2190   51.0300 n4        1 3BA     -0.735000
     23 N7        453.1630  502.2310 -583.1070 n1        1 3BA     -0.371800
     24 N8       1990.9010  464.6100 -112.5510 n1        1 3BA     -0.546200
     25 H3       -208.9550  -75.4000   50.8320 hc        1 3BA      0.135700
     26 H9       -205.5480  -77.8650   52.4520 h2        1 3BA      0.168700
     27 H9A      -205.8820  -78.7220   54.6320 hc        1 3BA      0.058367
     28 H9B      -206.3960  -77.6620   56.0070 hc        1 3BA      0.058367
     29 H10      -207.6350  -78.2910   54.8520 hc        1 3BA      0.058367
     30 H10A     -207.3020  -74.7090   53.7830 hc        1 3BA      0.058367
     31 H10B     -207.4160  -75.3680   55.4600 hc        1 3BA      0.058367
     32 H13      -208.4730  -76.0490   54.1630 hc        1 3BA      0.058367
     33 H13A      453.9490  503.5460 -584.7260 ha        1 3BA      0.181500
     34 H14      -210.4800  -77.6760   52.9300 hx        1 3BA      0.133700
     35 H14A     -209.7240  -79.3570   52.8600 hx        1 3BA      0.133700
     36 H16      1992.2140  463.2680 -111.3170 ha        1 3BA      0.309500
     37 H17      -213.6900  -80.1190   51.7120 ha        1 3BA      0.211500
     38 HN4      -205.8330  -74.0220   46.8960 hn        1 3BA      0.498467
     39 HN4A     -207.0350  -72.9480   47.3730 hn        1 3BA      0.498467
     40 H11      -204.1950  -76.7770   54.0610 hc        1 3BA      0.058367
     41 H11A     -204.8580  -75.0930   53.8960 hc        1 3BA      0.058367
     42 H11B     -204.9080  -75.9310   55.4960 hc        1 3BA      0.058367
     43 HN5      -209.9320  -76.3080   46.6530 hn        1 3BA      0.345500
     44 HN5A     -209.1450  -77.0900   48.6390 ha        1 3BA      0.154000
     45 HN6      -210.2640  -77.6580   50.4470 hn        1 3BA      0.461800
     46 HN8      1990.3210  465.2030 -113.0960 hn        1 3BA      0.572400
     47 C8       -206.3770  -76.6650   54.0870 c3        1 3BA     -0.000000
     48 C12      -207.9840  -75.6250   46.6030 c         1 3BA      0.665300
     49 H43      -205.5560  -72.9420   48.1770 hn        1 3BA      0.498467
     50 H53      -209.2400  -76.1690   45.0980 hn        1 3BA      0.345500
     51 H62      -209.3860  -79.0770   50.5180 hn        1 3BA      0.461800
@<TRIPOS>BOND
     1    1    4 1   
     2    1   15 2   
     3    2    8 1   
     4    2   16 2   
     5    2   44 1   
     6    3    6 1   
     7    3    7 2   
     8    4    8 1   
     9    4   17 2   
    10    5   27 1   
    11    5   28 1   
    12    5   29 1   
    13    5   47 1   
    14    6   17 1   
    15    6   26 1   
    16    6   47 1   
    17    7    8 1   
    18    7   22 1   
    19    8   25 1   
    20    9   30 1   
    21    9   31 1   
    22    9   32 1   
    23    9   47 1   
    24   10   11 1   
    25   10   22 1   
    26   10   34 1   
    27   10   35 1   
    28   11   12 3   
    29   12   37 1   
    30   13   23 3   
    31   13   33 1   
    32   14   24 3   
    33   14   36 1   
    34   15   16 1   
    35   15   18 1   
    36   16   48 1   
    37   18   38 1   
    38   18   39 1   
    39   18   49 1   
    40   19   40 1   
    41   19   41 1   
    42   19   42 1   
    43   19   47 1   
    44   20   48 2   
    45   21   43 1   
    46   21   48 1   
    47   21   50 1   
    48   22   45 1   
    49   22   51 1   
    50   24   46 1   
@<TRIPOS>SUBSTRUCTURE
     1 3BA         1 TEMP              0 ****  ****    0 ROOT
