@<TRIPOS>MOLECULE
3BA
   48    50     1     0     0
SMALL
bcc


@<TRIPOS>ATOM
      1 N1          3.6430   -0.8020    0.0080 nb        1 3BA     -0.738000
      2 C3          1.9330    1.4580    0.0420 ca        1 3BA      0.017000
      3 N2         -0.4930   -1.4120    0.0750 nb        1 3BA     -0.798000
      4 C4          2.2780   -0.9650    0.0240 ca        1 3BA      0.749300
      5 C9         -0.9680   -4.0390   -1.1820 c3        1 3BA     -0.084767
      6 C7          0.4560   -2.4210    0.0610 ca        1 3BA      0.725300
      7 C6         -0.0520   -0.1340    0.0800 ca        1 3BA      0.730200
      8 C5          1.3760    0.1660    0.0430 ca        1 3BA     -0.409600
      9 C10        -0.9730   -4.0280    1.3160 c3        1 3BA     -0.084767
     10 C13        -2.3840    0.6840    0.0550 c3        1 3BA      0.202800
     11 C14        -3.1940    1.9700    0.2630 c3        1 3BA     -0.104700
     12 C15        -4.6350    1.6970    0.0880 cc        1 3BA      0.292600
     13 C16        -6.5520    1.2550   -0.8830 cd        1 3BA      0.390400
     14 C17        -5.6080    1.6650    1.1100 cd        1 3BA     -0.244600
     15 C1          4.1530    0.4540   -0.0100 ca        1 3BA      0.730200
     16 C2          3.3000    1.6330    0.0070 ca        1 3BA     -0.333900
     17 N3          1.7880   -2.2670    0.0330 nb        1 3BA     -0.721000
     18 N4          5.5250    0.6050   -0.1200 nh        1 3BA     -0.940500
     19 C11         0.9810   -4.9080    0.0750 c3        1 3BA     -0.084767
     20 O1          4.8710    3.2910    0.7540 o         1 3BA     -0.627100
     21 N5          3.3360    3.9520   -0.7810 n         1 3BA     -0.667000
     22 N6         -0.9620    0.9120    0.1850 nh        1 3BA     -0.850900
     23 N7         -5.2430    1.4390   -1.1500 nc        1 3BA     -0.661000
     24 N8         -6.8210    1.3850    0.4850 na        1 3BA     -0.319900
     25 H3          1.2850    2.3480    0.0900 ha        1 3BA      0.134000
     26 H9         -0.3670   -3.8180   -2.0960 hc        1 3BA      0.042589
     27 H9A        -1.3230   -5.0960   -1.2350 hc        1 3BA      0.042589
     28 H9B        -1.8600   -3.3680   -1.1650 hc        1 3BA      0.042589
     29 H10        -1.3200   -5.0880    1.3820 hc        1 3BA      0.042589
     30 H10A       -0.3790   -3.7900    2.2300 hc        1 3BA      0.042589
     31 H10B       -1.8710   -3.3660    1.2860 hc        1 3BA      0.042589
     32 H13        -2.6940   -0.0740    0.8300 h1        1 3BA      0.067700
     33 H13A       -2.6270    0.2550   -0.9600 h1        1 3BA      0.067700
     34 H14        -3.0200    2.3720    1.2960 hc        1 3BA      0.054200
     35 H14A       -2.8680    2.7570   -0.4710 hc        1 3BA      0.054200
     36 H16        -7.3290    1.0310   -1.6220 h5        1 3BA      0.063100
     37 H17        -5.5190    1.8170    2.1830 h4        1 3BA      0.180000
     38 HN4         6.0910   -0.2040   -0.0010 hn        1 3BA      0.438800
     39 HN4A        5.9050    1.4640    0.2140 hn        1 3BA      0.438800
     40 H11         1.6220   -4.8220   -0.8340 hc        1 3BA      0.042589
     41 H11A        1.6250   -4.8050    0.9810 hc        1 3BA      0.042589
     42 H11B        0.5140   -5.9240    0.0850 hc        1 3BA      0.042589
     43 HN5         2.6610    3.7100   -1.4590 hn        1 3BA      0.313000
     44 HN5A        3.7500    4.8510   -0.8200 hn        1 3BA      0.313000
     45 HN6        -0.6410    1.7950   -0.1440 hn        1 3BA      0.415800
     46 HN8        -7.6960    1.2940    0.9270 hn        1 3BA      0.302700
     47 C8         -0.1180   -3.8530    0.0680 c3        1 3BA     -0.080300
     48 C12         3.8990    2.9910    0.0260 c         1 3BA      0.687700
@<TRIPOS>BOND
     1    1    4 ar  
     2    1   15 ar  
     3    2    8 ar  
     4    2   16 ar  
     5    2   25 1   
     6    3    6 ar  
     7    3    7 ar  
     8    4    8 ar  
     9    4   17 ar  
    10    5   26 1   
    11    5   27 1   
    12    5   28 1   
    13    5   47 1   
    14    6   17 ar  
    15    6   47 1   
    16    7    8 ar  
    17    7   22 1   
    18    9   29 1   
    19    9   30 1   
    20    9   31 1   
    21    9   47 1   
    22   10   11 1   
    23   10   22 1   
    24   10   32 1   
    25   10   33 1   
    26   11   12 1   
    27   11   34 1   
    28   11   35 1   
    29   12   14 2   
    30   12   23 1   
    31   13   23 2   
    32   13   24 1   
    33   13   36 1   
    34   14   24 1   
    35   14   37 1   
    36   15   16 ar  
    37   15   18 1   
    38   16   48 1   
    39   18   38 1   
    40   18   39 1   
    41   19   40 1   
    42   19   41 1   
    43   19   42 1   
    44   19   47 1   
    45   20   48 2   
    46   21   43 1   
    47   21   44 1   
    48   21   48 1   
    49   22   45 1   
    50   24   46 1   
@<TRIPOS>SUBSTRUCTURE
     1 3BA         1 TEMP              0 ****  ****    0 ROOT
