@<TRIPOS>MOLECULE
3BA
   49    49     1     0     0
SMALL
bcc


@<TRIPOS>ATOM
      1 N1          0.1880    0.4830    0.0210 n2        1 3BA     -0.260000
      2 C3          2.2000    0.9490    2.0240 c1        1 3BA     -0.237000
      3 N2          4.1650   -0.4420   -0.8260 n2        1 3BA     -0.305000
      4 C4          1.4940    0.3280   -0.3070 c2        1 3BA      0.197000
      5 C9          2.9100   -2.6480   -3.0390 c3        1 3BA     -0.208667
      6 C7          3.1300   -0.5730   -1.7180 c2        1 3BA      0.209000
      7 C6          3.9290    0.1930    0.3500 c2        1 3BA      0.223000
      8 C5          2.5920    0.8820    0.6150 c3        1 3BA     -0.198000
      9 C10         4.9440   -1.2550   -3.3620 c3        1 3BA     -0.208667
     10 C13         6.2290   -0.1880    1.1290 c3        1 3BA     -0.111000
     11 C14         8.2530   -0.1190    3.9040 c1        1 3BA     -0.046000
     12 C15         7.2860    0.0710    4.9540 c2        1 3BA     -0.113000
     13 C16         5.2580    1.2760    5.4600 c1        1 3BA     -0.016000
     14 C17         7.2470   -0.6880    6.0790 c2        1 3BA     -0.110000
     15 C1         -0.1560    0.8890    1.2850 c2        1 3BA      0.286000
     16 C2          0.8670    0.9910    2.3440 c2        1 3BA     -0.355000
     17 N3          1.8230   -0.2630   -1.4910 n2        1 3BA     -0.241000
     18 N4         -1.4550    1.1720    1.5270 n8        1 3BA     -0.292000
     19 C11         2.7590   -0.4350   -4.1900 c3        1 3BA     -0.208667
     20 O1         -0.6030    1.1890    4.2770 o         1 3BA     -0.270000
     21 N5          1.6810    1.1610    4.6760 nz        1 3BA     -0.132000
     22 N6          4.8930    0.3150    1.2900 n7        1 3BA     -0.230000
     23 N7          6.3110    1.0650    4.6360 n7        1 3BA     -0.196000
     24 N8          4.2650    1.4170    6.0650 n1        1 3BA     -0.150000
     25 H3          2.7460    1.9720    0.2990 hc        1 3BA      0.202000
     26 H9          1.8010   -2.6530   -2.9090 hc        1 3BA      0.091556
     27 H9A         3.3800   -3.2190   -2.2040 hc        1 3BA      0.091556
     28 H9B         3.1560   -3.1590   -4.0020 hc        1 3BA      0.091556
     29 H10         5.1140   -1.6760   -4.3840 hc        1 3BA      0.091556
     30 H10A        5.4800   -1.9000   -2.6260 hc        1 3BA      0.091556
     31 H10B        5.3770   -0.2270   -3.3280 hc        1 3BA      0.091556
     32 H13         6.7060    0.2630    0.2170 h1        1 3BA      0.118667
     33 H13A        6.2110   -1.3050    1.0010 h1        1 3BA      0.118667
     34 H14         6.8410    0.0770    2.0380 h1        1 3BA      0.118667
     35 H14A        9.0700   -0.8230    4.1150 ha        1 3BA      0.083000
     36 H16         6.6950    1.8910    4.2110 hn        1 3BA      0.258000
     37 H17         8.0040   -1.4680    6.2520 ha        1 3BA      0.148500
     38 HN4        -2.1380    1.1030    0.8030 hn        1 3BA      0.267500
     39 HN4A       -1.7650    1.3640    2.4530 hn        1 3BA      0.267500
     40 H11         1.6470   -0.5150   -4.1140 hc        1 3BA      0.091556
     41 H11A        3.0490    0.6410   -4.1440 hc        1 3BA      0.091556
     42 H11B        3.0720   -0.8470   -5.1800 hc        1 3BA      0.091556
     43 HN5         2.5450    1.0910    4.0960 hn        1 3BA      0.267667
     44 HN5A        1.6810    2.0360    5.2030 hn        1 3BA      0.267667
     45 HN6         4.6360    0.7480    2.1540 hn        1 3BA      0.262000
     46 HN8         6.4770   -0.5970    6.8590 ha        1 3BA      0.148500
     47 C8          3.4480   -1.2220   -3.0820 c3        1 3BA      0.005000
     48 C12         0.4980    1.1120    3.7330 c2        1 3BA      0.347000
     49 H53         1.6400    0.3850    5.3390 hn        1 3BA      0.267667
@<TRIPOS>BOND
     1    1    4 1   
     2    1   15 1   
     3    2    8 1   
     4    2   16 1   
     5    3    6 1   
     6    3    7 1   
     7    4    8 1   
     8    4   17 1   
     9    5   26 1   
    10    5   27 1   
    11    5   28 1   
    12    5   47 1   
    13    6   17 1   
    14    6   47 1   
    15    7    8 1   
    16    7   22 1   
    17    8   25 1   
    18    9   29 1   
    19    9   30 1   
    20    9   31 1   
    21    9   47 1   
    22   10   22 1   
    23   10   32 1   
    24   10   33 1   
    25   10   34 1   
    26   11   12 1   
    27   11   35 1   
    28   12   14 1   
    29   12   23 1   
    30   13   23 1   
    31   13   24 1   
    32   14   37 1   
    33   14   46 1   
    34   15   16 1   
    35   15   18 1   
    36   16   48 1   
    37   18   38 1   
    38   18   39 1   
    39   19   40 1   
    40   19   41 1   
    41   19   42 1   
    42   19   47 1   
    43   20   48 1   
    44   21   43 1   
    45   21   44 1   
    46   21   48 1   
    47   21   49 1   
    48   22   45 1   
    49   23   36 1   
@<TRIPOS>SUBSTRUCTURE
     1 3BA         1 TEMP              0 ****  ****    0 ROOT
