@<TRIPOS>MOLECULE
3BA
   49    49     1     0     0
SMALL
bcc


@<TRIPOS>ATOM
      1 N1         -0.3010    0.3380    0.1100 n2        1 3BA     -0.247000
      2 C3          1.2300   -0.0960    2.4800 c2        1 3BA     -0.055000
      3 N2          3.8730    0.3830   -0.1170 n2        1 3BA     -0.302000
      4 C4          1.0480    0.4890    0.0570 c2        1 3BA      0.212000
      5 C9          5.2960   -1.2730   -2.1910 c3        1 3BA     -0.210000
      6 C7          3.0280    0.5180   -1.1930 c2        1 3BA      0.262000
      7 C6          3.3480    0.4180    1.1330 c2        1 3BA      0.212000
      8 C5          1.8530    0.6570    1.3630 c3        1 3BA     -0.204000
      9 C10         4.6650   -0.1740   -2.9390 c2        1 3BA     -0.045000
     10 C13         5.6040    0.2230    2.1400 c3        1 3BA     -0.080000
     11 C14         6.1450    0.1160    3.4890 c1        1 3BA     -0.060000
     12 C15         7.5330    0.0240    3.8180 c3        1 3BA     -0.205000
     13 C16         9.4800    1.0220    2.9670 c1        1 3BA      0.080000
     14 C17         7.9630    1.2500    4.7440 c1        1 3BA      0.096000
     15 C1         -0.9030   -0.0000    1.2870 c2        1 3BA      0.272000
     16 C2         -0.0890   -0.3700    2.4860 c2        1 3BA     -0.169000
     17 N3          1.6600    0.5610   -1.1490 n2        1 3BA     -0.214000
     18 N4         -2.2480   -0.0180    1.3500 n3        1 3BA     -0.255000
     19 C11         3.0630    1.6500   -3.4270 c3        1 3BA     -0.178000
     20 O1         -1.6790   -1.9200    3.3630 o         1 3BA     -0.351000
     21 N5         -0.3420   -0.8810    4.8820 n         1 3BA     -0.406000
     22 N6          4.1530    0.3390    2.2130 n3        1 3BA     -0.232000
     23 N7          8.5740    0.0470    2.7560 n3        1 3BA     -0.350000
     24 N8          9.0740    1.7200    4.1510 n3        1 3BA     -0.299000
     25 H3          1.7670    1.7680    1.6230 hc        1 3BA      0.198000
     26 H9          3.4660   -3.5490   -0.4560 ha        1 3BA      0.001750
     27 H9A         3.4840   -3.9730   -0.9830 ha        1 3BA      0.001750
     28 H9B         4.5540   -1.8530   -1.5860 hc        1 3BA      0.099000
     29 H10         6.0760   -0.8660   -1.4950 hc        1 3BA      0.099000
     30 H10A        5.7990   -1.9850   -2.8950 hc        1 3BA      0.099000
     31 H10B        5.0710   -0.0140   -3.9580 ha        1 3BA      0.149000
     32 H13         8.1030   -1.4360   -0.1040 ha        1 3BA      0.001750
     33 H13A        7.5270   -1.3630    0.2470 ha        1 3BA      0.001750
     34 H14         5.8700   -0.6830    1.5090 h1        1 3BA      0.155000
     35 H14A        6.0120    1.1330    1.5970 h1        1 3BA      0.155000
     36 H16         8.6300   -0.6270    2.0350 hn        1 3BA      0.262000
     37 H17         7.6600   -0.8920    4.4830 h1        1 3BA      0.211000
     38 HN4        -2.7990    0.2000    0.5440 hn        1 3BA      0.279500
     39 HN4A       -2.7040   -0.4540    2.1280 hn        1 3BA      0.279500
     40 H11         2.9470    2.6220   -2.8880 hc        1 3BA      0.101000
     41 H11A        2.0540    1.3220   -3.7840 hc        1 3BA      0.101000
     42 H11B        3.7160    1.8190   -4.3190 hc        1 3BA      0.101000
     43 HN5         1.8710   -0.4010    3.3250 ha        1 3BA      0.165000
     44 HN5A        0.3340   -0.1940    5.0980 hn        1 3BA      0.246000
     45 HN6         3.7710    0.3920    3.1370 hn        1 3BA      0.267000
     46 HN8         9.6180    2.4770    4.4970 hn        1 3BA      0.284000
     47 C8          3.6540    0.6180   -2.5340 c2        1 3BA     -0.116000
     48 C12        -0.7580   -1.1110    3.6030 c2        1 3BA      0.338000
     49 H53        -0.7810   -1.3720    5.6260 hn        1 3BA      0.246000
@<TRIPOS>BOND
     1    1    4 1   
     2    1   15 1   
     3    2    8 1   
     4    2   16 1   
     5    2   43 1   
     6    3    6 1   
     7    3    7 1   
     8    4    8 1   
     9    4   17 1   
    10    5    9 1   
    11    5   28 1   
    12    5   29 1   
    13    5   30 1   
    14    6   17 1   
    15    6   47 1   
    16    7    8 1   
    17    7   22 1   
    18    8   25 1   
    19    9   31 1   
    20    9   47 1   
    21   10   11 1   
    22   10   22 1   
    23   10   34 1   
    24   10   35 1   
    25   11   12 1   
    26   12   14 1   
    27   12   23 1   
    28   12   37 1   
    29   13   23 1   
    30   13   24 1   
    31   14   24 1   
    32   15   16 1   
    33   15   18 1   
    34   16   48 1   
    35   18   38 1   
    36   18   39 1   
    37   19   40 1   
    38   19   41 1   
    39   19   42 1   
    40   19   47 1   
    41   20   48 1   
    42   21   44 1   
    43   21   48 1   
    44   21   49 1   
    45   22   45 1   
    46   23   36 1   
    47   24   46 1   
    48   26   27 1   
    49   32   33 1   
@<TRIPOS>SUBSTRUCTURE
     1 3BA         1 TEMP              0 ****  ****    0 ROOT
