@<TRIPOS>MOLECULE
3BA
   48    41     1     0     0
SMALL
bcc


@<TRIPOS>ATOM
      1 N1         -3.5120    1.0050   -1.2490 n1        1 3BA     -0.213000
      2 C3         -2.3060    0.5250    1.1860 c1        1 3BA      0.018000
      3 N2          0.5520    0.2120   -1.0580 n1        1 3BA     -0.270000
      4 C4         -2.1240    0.8500   -1.1730 c1        1 3BA      0.158000
      5 C9          1.4760   -0.7300   -3.8710 c3        1 3BA     -0.202667
      6 C8          0.6290    0.5170   -3.6630 c3        1 3BA      0.014000
      7 C7         -0.0520    0.4530   -2.2750 c1        1 3BA      0.105000
      8 C6         -0.1700    0.2890    0.0840 c1        1 3BA      0.208000
      9 C5         -1.5290    0.6120    0.0300 c1        1 3BA     -0.280000
     10 C10         1.5150    1.7480   -3.7360 c3        1 3BA     -0.202667
     11 C12        -4.6350    0.8110    2.2760 c1        1 3BA      0.360000
     12 C13         1.9710   -0.2800    1.2840 c3        1 3BA     -0.033000
     13 C14         2.6030   -0.1040    2.6770 c3        1 3BA     -0.090000
     14 C15         3.4460   -1.3520    3.0240 c2        1 3BA     -0.128000
     15 C16         4.9740   -2.9080    2.9300 c1        1 3BA     -0.098000
     16 C17         3.5730   -1.9130    4.2730 c1        1 3BA     -0.159000
     17 C1         -4.2710    0.9200   -0.1210 c1        1 3BA      0.210000
     18 C2         -3.6660    0.6780    1.1100 c1        1 3BA     -0.249000
     19 N3         -1.3880    0.7700   -2.3300 n2        1 3BA     -0.195000
     20 N4         -5.5690    0.8000   -0.7250 n3        1 3BA     -0.340000
     21 C11        -0.4420    0.5940   -4.7530 c3        1 3BA     -0.202667
     22 O1         -5.8230    0.9420    2.0650 o         1 3BA     -0.390000
     23 N5         -4.1600    0.6960    3.6080 n3        1 3BA     -0.426000
     24 N6          0.5900    0.1640    1.3220 n3        1 3BA     -0.296000
     25 N7          4.3080   -1.9670    2.2070 n2        1 3BA     -0.131000
     26 N8          4.5100   -2.8650    4.2050 n2        1 3BA     -0.206000
     27 H3         -1.8790    0.4040    2.0490 ha        1 3BA      0.134000
     28 H9          2.0920   -0.8340   -3.1200 hc        1 3BA      0.081889
     29 H9A         1.9850   -0.6430   -4.7020 hc        1 3BA      0.081889
     30 H9B         0.8920   -1.5170   -3.9260 hc        1 3BA      0.081889
     31 H10         2.3040    1.6200   -3.1550 hc        1 3BA      0.081889
     32 H10A        1.0120    2.5290   -3.4360 hc        1 3BA      0.081889
     33 H10B        1.8090    1.8840   -4.6610 hc        1 3BA      0.081889
     34 H13         2.4700    0.2570    0.6260 h1        1 3BA      0.107500
     35 H13A        2.0030   -1.2210    1.0280 h1        1 3BA      0.107500
     36 H14         1.8940    0.0070    3.3460 hc        1 3BA      0.092500
     37 H14A        3.1780    0.6870    2.6760 hc        1 3BA      0.092500
     38 H16         5.6620   -3.5080    2.5920 DU        1 3BA      0.210333
     39 H17         3.0640   -1.6600    5.0750 DU        1 3BA      0.210333
     40 HN4        -5.6750    0.9600   -1.6240 hn        1 3BA      0.235000
     41 HN4A       -6.2880    0.5400   -0.2180 hn        1 3BA      0.235000
     42 H11        -0.0210    0.4920   -5.6330 hc        1 3BA      0.081889
     43 H11A       -1.0910   -0.1180   -4.6200 hc        1 3BA      0.081889
     44 H11B       -0.8940    1.4610   -4.7060 hc        1 3BA      0.081889
     45 HN5        -3.3170    0.9710    3.8160 hn        1 3BA      0.227000
     46 HN5A       -4.6800    0.2930    4.2470 hn        1 3BA      0.227000
     47 HN6         0.1850    0.3230    2.1230 hn        1 3BA      0.210000
     48 HN8         4.7900   -3.3940    4.8970 DU        1 3BA      0.210333
@<TRIPOS>BOND
     1    1    4 1   
     2    2    9 1   
     3    2   27 1   
     4    3    8 1   
     5    4   19 1   
     6    5    6 1   
     7    5   28 1   
     8    5   29 1   
     9    5   30 1   
    10    6    7 1   
    11    6   10 1   
    12    6   21 1   
    13    7   19 1   
    14    8   24 1   
    15   10   31 1   
    16   10   32 1   
    17   10   33 1   
    18   11   22 1   
    19   11   23 1   
    20   12   13 1   
    21   12   24 1   
    22   12   34 1   
    23   12   35 1   
    24   13   14 1   
    25   13   36 1   
    26   13   37 1   
    27   14   16 1   
    28   14   25 1   
    29   15   25 1   
    30   15   26 1   
    31   16   26 1   
    32   17   18 1   
    33   17   20 1   
    34   20   40 1   
    35   20   41 1   
    36   21   42 1   
    37   21   43 1   
    38   21   44 1   
    39   23   45 1   
    40   23   46 1   
    41   24   47 1   
@<TRIPOS>SUBSTRUCTURE
     1 3BA         1 TEMP              0 ****  ****    0 ROOT
