@<TRIPOS>MOLECULE
3BB
   13    12     1     0     0
SMALL
bcc


@<TRIPOS>ATOM
      1 BR1         0.0930    0.3900    0.0460 br        1 3BB     -0.097700
      2 C1          2.5500   -0.1640   -1.2050 c2        1 3BB     -0.181000
      3 C2          1.9490    0.0720   -0.0380 c2        1 3BB     -0.067500
      4 C3          2.6830    0.0760    1.2550 c3        1 3BB     -0.047200
      5 C4          2.8120    1.4840    1.8220 c3        1 3BB      0.132400
      6 O5          3.6560    1.3820    2.9590 oh        1 3BB     -0.602800
      7 H11         2.0180   -0.1850   -2.1670 ha        1 3BB      0.129000
      8 H12         3.6310   -0.3550   -1.2680 ha        1 3BB      0.129000
      9 H31         2.1620   -0.5770    2.0060 hc        1 3BB      0.071200
     10 H32         3.7140   -0.3490    1.1120 hc        1 3BB      0.071200
     11 H41         3.2750    2.1740    1.0670 h1        1 3BB      0.030200
     12 H42         1.8080    1.8880    2.1210 h1        1 3BB      0.030200
     13 HO5         3.6840    2.2600    3.3580 ho        1 3BB      0.403000
@<TRIPOS>BOND
     1    1    3 1   
     2    2    3 2   
     3    2    7 1   
     4    2    8 1   
     5    3    4 1   
     6    4    5 1   
     7    4    9 1   
     8    4   10 1   
     9    5    6 1   
    10    5   11 1   
    11    5   12 1   
    12    6   13 1   
@<TRIPOS>SUBSTRUCTURE
     1 3BB         1 TEMP              0 ****  ****    0 ROOT
