@<TRIPOS>MOLECULE
3BB
   13    11     1     0     0
SMALL
bcc


@<TRIPOS>ATOM
      1 BR1        -2.2810   -0.1870   -1.1230 br        1 3BB      0.028000
      2 C1          0.3180   -0.5620   -2.1970 c1        1 3BB     -0.181000
      3 C2         -0.3860   -0.4330   -1.0550 c2        1 3BB     -0.189000
      4 C3          0.3230   -0.4830    0.2800 c3        1 3BB     -0.130000
      5 C4         -0.1600    0.6560    1.1500 c3        1 3BB     -0.018000
      6 O5          0.5240    0.6280    2.3840 oh        1 3BB     -0.330000
      7 H11        -0.1400   -0.5300   -3.0600 DU        1 3BB      0.131000
      8 H12         1.2870   -0.6880   -2.1620 ha        1 3BB      0.127000
      9 H31         1.2880   -0.4010    0.1410 hc        1 3BB      0.110500
     10 H32         0.1290   -1.3350    0.7210 hc        1 3BB      0.110500
     11 H41        -1.1220    0.5620    1.3080 h1        1 3BB      0.069500
     12 H42         0.0150    1.5080    0.7000 h1        1 3BB      0.069500
     13 HO5         0.2040    1.2660    2.9150 ho        1 3BB      0.202000
@<TRIPOS>BOND
     1    1    3 1   
     2    2    3 1   
     3    2    8 1   
     4    3    4 1   
     5    4    5 1   
     6    4    9 1   
     7    4   10 1   
     8    5    6 1   
     9    5   11 1   
    10    5   12 1   
    11    6   13 1   
@<TRIPOS>SUBSTRUCTURE
     1 3BB         1 TEMP              0 ****  ****    0 ROOT
