@<TRIPOS>MOLECULE
3BB
   13    12     1     0     0
SMALL
bcc


@<TRIPOS>ATOM
      1 BR1        -0.4390    0.3550   -1.1780 br        1 3BB     -0.097700
      2 C1          2.1590    0.0750   -0.1400 c2        1 3BB     -0.181000
      3 C2          0.8590   -0.0720    0.1200 c2        1 3BB     -0.067500
      4 C3          0.3540   -0.5950    1.4170 c3        1 3BB     -0.047200
      5 C4         -0.3090    0.4990    2.2430 c3        1 3BB      0.132400
      6 O5         -0.6040   -0.0750    3.5070 oh        1 3BB     -0.602800
      7 H11         2.5470    0.4450   -1.0980 ha        1 3BB      0.129000
      8 H12         2.9270   -0.1750    0.6070 ha        1 3BB      0.129000
      9 H31         1.2040   -1.0280    2.0120 hc        1 3BB      0.071200
     10 H32        -0.3820   -1.4260    1.2470 hc        1 3BB      0.071200
     11 H41        -1.2530    0.8550    1.7500 h1        1 3BB      0.030200
     12 H42         0.3870    1.3710    2.3760 h1        1 3BB      0.030200
     13 HO5        -1.0840    0.5950    4.0070 ho        1 3BB      0.403000
@<TRIPOS>BOND
     1    1    3 1   
     2    2    3 2   
     3    2    7 1   
     4    2    8 1   
     5    3    4 1   
     6    4    5 1   
     7    4    9 1   
     8    4   10 1   
     9    5    6 1   
    10    5   11 1   
    11    5   12 1   
    12    6   13 1   
@<TRIPOS>SUBSTRUCTURE
     1 3BB         1 TEMP              0 ****  ****    0 ROOT
