@<TRIPOS>MOLECULE
3BD
   56    59     1     0     0
SMALL
bcc


@<TRIPOS>ATOM
      1 C12        -0.2940    0.0460   -0.3820 c         1 3BD      0.593700
      2 C13         1.9070   -1.4540    4.0450 c3        1 3BD      0.170300
      3 C8         -2.8350   -0.0380    7.0880 c3        1 3BD     -0.084300
      4 C9         -2.4660   -1.3120    7.8380 c3        1 3BD     -0.091433
      5 C10        -4.3500    0.0430    6.9620 c3        1 3BD     -0.091433
      6 C11        -2.3350    1.1850    7.8480 c3        1 3BD     -0.091433
      7 C14         3.4150   -1.3090    3.7490 c3        1 3BD      0.195800
      8 C15         3.5460    0.4370    5.4560 c3        1 3BD      0.195800
      9 O1          0.8200    0.4850   -0.6390 o         1 3BD     -0.435100
     10 N3         -2.9090   -0.0380    4.5980 nb        1 3BD     -0.690000
     11 C1         -2.4370    0.0950    1.0420 ca        1 3BD      0.654200
     12 C2         -0.9960    0.0290    0.8870 ca        1 3BD     -0.376900
     13 C3         -0.2090   -0.0240    2.0420 ca        1 3BD      0.088000
     14 C4         -2.2590   -0.0400    3.3850 ca        1 3BD      0.746300
     15 C7         -2.1420   -0.0670    5.7100 ca        1 3BD      0.760300
     16 N1         -3.0330    0.0560    2.2350 nb        1 3BD     -0.668000
     17 N2         -0.7580   -0.1420    5.7350 nb        1 3BD     -0.747000
     18 C5         -0.8130   -0.1000    3.3010 ca        1 3BD     -0.367600
     19 C6         -0.0890   -0.1760    4.5710 ca        1 3BD      0.723200
     20 N5         -0.9590   -0.6390   -1.5600 nz        1 3BD     -0.743400
     21 N6          1.3270   -0.2040    4.5300 nh        1 3BD     -0.746300
     22 N7          4.1520   -0.7480    4.8690 nh        1 3BD     -0.726300
     23 C16         2.0310    0.2790    5.7160 c3        1 3BD      0.170300
     24 C17         5.5740   -0.7500    4.7600 ca        1 3BD      0.851900
     25 N8          6.2940    0.0580    5.6330 nb        1 3BD     -0.741000
     26 C18         7.6300   -0.0580    5.5970 ca        1 3BD      0.461700
     27 C19         8.3070   -0.9280    4.7230 ca        1 3BD     -0.395600
     28 C20         7.5020   -1.6840    3.8550 ca        1 3BD      0.461700
     29 N9          6.1610   -1.6130    3.8420 nb        1 3BD     -0.741000
     30 H13         1.7600   -2.2790    4.8010 h1        1 3BD      0.062200
     31 H13A        1.3960   -1.7620    3.0920 h1        1 3BD      0.062200
     32 H9         -2.7440   -2.2120    7.2390 hc        1 3BD      0.051700
     33 H9A        -1.3740   -1.3480    8.0650 hc        1 3BD      0.051700
     34 H9B        -3.0270   -1.3420    8.8040 hc        1 3BD      0.051700
     35 H10        -4.6590    0.9700    6.4220 hc        1 3BD      0.051700
     36 H10A       -4.7550   -0.8450    6.4200 hc        1 3BD      0.051700
     37 H10B       -4.7990    0.0650    7.9850 hc        1 3BD      0.051700
     38 H11        -2.8900    1.2660    8.8150 hc        1 3BD      0.051700
     39 H11A       -1.2460    1.1030    8.0760 hc        1 3BD      0.051700
     40 H11B       -2.5150    2.1140    7.2560 hc        1 3BD      0.051700
     41 H14         3.7970   -2.3480    3.5370 h1        1 3BD      0.068200
     42 H14A        3.5480   -0.6830    2.8200 h1        1 3BD      0.068200
     43 H15         4.0170    0.6330    6.4620 h1        1 3BD      0.068200
     44 H15A        3.7150    1.3410    4.8030 h1        1 3BD      0.068200
     45 H3          0.8940   -0.0010    1.9440 ha        1 3BD      0.184000
     46 HN4        -3.3640    1.1840   -0.3650 hn        1 3BD      0.405800
     47 HN4A       -4.1370   -0.2190   -0.0300 hn        1 3BD      0.405800
     48 HN5        -1.6100    0.0110   -2.0140 hn        1 3BD      0.469133
     49 HN5A       -1.4880   -1.4550   -1.2400 hn        1 3BD      0.469133
     50 H16         1.6260    1.2930    5.9870 h1        1 3BD      0.062200
     51 H16A        1.8790   -0.4120    6.5940 h1        1 3BD      0.062200
     52 H18         8.1810    0.5880    6.3070 h4        1 3BD      0.034100
     53 H19         9.3990   -1.0070    4.7170 ha        1 3BD      0.165000
     54 H20         7.9460   -2.3850    3.1230 h4        1 3BD      0.034100
     55 H53        -0.2490   -0.9250   -2.2430 hn        1 3BD      0.469133
     56 N4         -3.2320    0.2100   -0.1460 nv        1 3BD     -0.956500
@<TRIPOS>BOND
     1    1    9 2   
     2    1   12 1   
     3    1   20 1   
     4    2    7 1   
     5    2   21 1   
     6    2   30 1   
     7    2   31 1   
     8    3    4 1   
     9    3    5 1   
    10    3    6 1   
    11    3   15 1   
    12    4   32 1   
    13    4   33 1   
    14    4   34 1   
    15    5   35 1   
    16    5   36 1   
    17    5   37 1   
    18    6   38 1   
    19    6   39 1   
    20    6   40 1   
    21    7   22 1   
    22    7   41 1   
    23    7   42 1   
    24    8   22 1   
    25    8   23 1   
    26    8   43 1   
    27    8   44 1   
    28   10   14 ar  
    29   10   15 ar  
    30   11   12 ar  
    31   11   16 ar  
    32   11   56 1   
    33   12   13 ar  
    34   13   18 ar  
    35   13   45 1   
    36   14   16 ar  
    37   14   18 ar  
    38   15   17 ar  
    39   17   19 ar  
    40   18   19 ar  
    41   19   21 1   
    42   20   48 1   
    43   20   49 1   
    44   20   55 1   
    45   21   23 1   
    46   22   24 1   
    47   23   50 1   
    48   23   51 1   
    49   24   25 ar  
    50   24   29 ar  
    51   25   26 ar  
    52   26   27 ar  
    53   26   52 1   
    54   27   28 ar  
    55   27   53 1   
    56   28   29 ar  
    57   28   54 1   
    58   46   56 1   
    59   47   56 1   
@<TRIPOS>SUBSTRUCTURE
     1 3BD         1 TEMP              0 ****  ****    0 ROOT
