@<TRIPOS>MOLECULE
3BD
   57    60     1     0     0
SMALL
bcc


@<TRIPOS>ATOM
      1 C12         0.3730    0.6680    0.2110 c         1 3BD      0.582700
      2 C13        -6.3380    0.9930    1.9710 c3        1 3BD      0.144300
      3 C8         -4.2610   -0.1660    6.4280 c3        1 3BD     -0.085300
      4 C9         -4.4390   -1.6290    6.8170 c3        1 3BD     -0.097767
      5 C10        -5.5920    0.5600    6.5640 c3        1 3BD     -0.097767
      6 C11        -3.2330    0.5020    7.3340 c3        1 3BD     -0.097767
      7 C14        -7.3070   -0.0870    1.4250 c3        1 3BD      0.182800
      8 C15        -5.9100    0.1320   -0.5260 c3        1 3BD      0.182800
      9 O1          1.5420    0.3370   -0.0190 o         1 3BD     -0.522100
     10 N3         -2.4590   -0.6870    4.7810 nb        1 3BD     -0.665000
     11 C1          0.0020   -0.7260    2.2540 ca        1 3BD      0.617200
     12 C2         -0.4970    0.1870    1.2340 ca        1 3BD     -0.452900
     13 C3         -1.8620    0.5480    1.3740 ca        1 3BD      0.077000
     14 C4         -1.9310   -0.5550    3.5710 ca        1 3BD      0.742300
     15 C7         -3.7360   -0.1280    4.9790 ca        1 3BD      0.812300
     16 N1         -0.6400   -1.0820    3.3380 nb        1 3BD     -0.625000
     17 N2         -4.5040    0.3790    4.0100 nb        1 3BD     -0.765000
     18 C5         -2.6120    0.1420    2.4530 ca        1 3BD     -0.383600
     19 C6         -4.0450    0.4050    2.6950 ca        1 3BD      0.777200
     20 N5         -0.1230    1.7340   -0.7400 n4        1 3BD     -0.742400
     21 N6         -4.9270    0.6920    1.7100 nh        1 3BD     -0.656300
     22 N7         -6.8820   -0.6750    0.1640 nh        1 3BD     -0.709300
     23 C16        -4.6350    0.4720    0.3000 c3        1 3BD      0.144300
     24 C17        -6.7200   -2.1020    0.1470 ca        1 3BD      0.820900
     25 N8         -7.7970   -2.8440    0.6090 nb        1 3BD     -0.731500
     26 C18        -7.7100   -4.1750    0.4610 ca        1 3BD      0.455700
     27 C19        -6.5940   -4.8150   -0.1150 ca        1 3BD     -0.361600
     28 C20        -5.5360   -3.9840   -0.5140 ca        1 3BD      0.455700
     29 N9         -5.5620   -2.6430   -0.3830 nb        1 3BD     -0.731500
     30 H13        -6.5470    1.1290    3.0680 h1        1 3BD      0.084200
     31 H13A       -6.5410    1.9770    1.4550 h1        1 3BD      0.084200
     32 H9         -3.4630   -2.1700    6.8270 hc        1 3BD      0.060367
     33 H9A        -4.8760   -1.6770    7.8460 hc        1 3BD      0.060367
     34 H9B        -5.1370   -2.1420    6.1130 hc        1 3BD      0.060367
     35 H10        -5.9190    0.5180    7.6330 hc        1 3BD      0.060367
     36 H10A       -5.4970    1.6310    6.2690 hc        1 3BD      0.060367
     37 H10B       -6.3810    0.0750    5.9410 hc        1 3BD      0.060367
     38 H11        -3.6530    0.5660    8.3690 hc        1 3BD      0.060367
     39 H11A       -2.2860   -0.0860    7.3810 hc        1 3BD      0.060367
     40 H11B       -3.0080    1.5360    6.9810 hc        1 3BD      0.060367
     41 H14        -8.2980    0.4230    1.2390 h1        1 3BD      0.097700
     42 H14A       -7.4680   -0.8700    2.2180 h1        1 3BD      0.097700
     43 H15        -5.5770   -0.3590   -1.4820 h1        1 3BD      0.097700
     44 H15A       -6.4300    1.0990   -0.7920 h1        1 3BD      0.097700
     45 H3         -2.3170    1.1950    0.6050 ha        1 3BD      0.138000
     46 HN4         1.3640   -1.8690    1.2040 hn        1 3BD      0.489133
     47 HN4A        2.0540   -0.5920    2.0340 hn        1 3BD      0.489133
     48 HN5        -0.4400    2.5580   -0.2200 hn        1 3BD      0.478467
     49 HN5A        0.6540    2.0090   -1.3640 hn        1 3BD      0.478467
     50 H16        -3.8990   -0.3760    0.1950 h1        1 3BD      0.084200
     51 H16A       -4.1970    1.4170   -0.1300 h1        1 3BD      0.084200
     52 H18        -8.5860   -4.7520    0.8190 h4        1 3BD      0.043100
     53 H19        -6.5580   -5.9040   -0.2440 ha        1 3BD      0.178000
     54 H20        -4.6150   -4.4030   -0.9610 h4        1 3BD      0.043100
     55 H53        -0.8930    1.3750   -1.3110 hn        1 3BD      0.478467
     56 H43         1.5730   -1.9720    2.8730 hn        1 3BD      0.489133
     57 N4          1.3470   -1.3400    2.0870 n4        1 3BD     -0.840300
@<TRIPOS>BOND
     1    1    9 2   
     2    1   12 1   
     3    1   20 1   
     4    2    7 1   
     5    2   21 1   
     6    2   30 1   
     7    2   31 1   
     8    3    4 1   
     9    3    5 1   
    10    3    6 1   
    11    3   15 1   
    12    4   32 1   
    13    4   33 1   
    14    4   34 1   
    15    5   35 1   
    16    5   36 1   
    17    5   37 1   
    18    6   38 1   
    19    6   39 1   
    20    6   40 1   
    21    7   22 1   
    22    7   41 1   
    23    7   42 1   
    24    8   22 1   
    25    8   23 1   
    26    8   43 1   
    27    8   44 1   
    28   10   14 ar  
    29   10   15 ar  
    30   11   12 ar  
    31   11   16 ar  
    32   11   57 1   
    33   12   13 ar  
    34   13   18 ar  
    35   13   45 1   
    36   14   16 ar  
    37   14   18 ar  
    38   15   17 ar  
    39   17   19 ar  
    40   18   19 ar  
    41   19   21 1   
    42   20   48 1   
    43   20   49 1   
    44   20   55 1   
    45   21   23 1   
    46   22   24 1   
    47   23   50 1   
    48   23   51 1   
    49   24   25 ar  
    50   24   29 ar  
    51   25   26 ar  
    52   26   27 ar  
    53   26   52 1   
    54   27   28 ar  
    55   27   53 1   
    56   28   29 ar  
    57   28   54 1   
    58   46   57 1   
    59   47   57 1   
    60   56   57 1   
@<TRIPOS>SUBSTRUCTURE
     1 3BD         1 TEMP              0 ****  ****    0 ROOT
