@<TRIPOS>MOLECULE
3BD
   55    52     1     0     0
SMALL
bcc


@<TRIPOS>ATOM
      1 C12         3.1790   -0.7730   -3.6400 c1        1 3BD      0.361000
      2 C13        -0.8710    0.5850    0.5120 c3        1 3BD     -0.068500
      3 C8          0.8280   -2.0750    3.8700 c3        1 3BD      0.015000
      4 C9          1.3660   -0.9640    4.7760 c3        1 3BD     -0.203333
      5 C10        -0.6080   -2.4700    4.3280 c3        1 3BD     -0.203333
      6 C11         1.7430   -3.2810    3.9600 c3        1 3BD     -0.203333
      7 C14        -1.5410    1.8040   -0.0730 c3        1 3BD     -0.039000
      8 C15        -2.4750    0.4650   -1.7960 c3        1 3BD     -0.039000
      9 O1          4.4080   -0.6320   -3.7620 o         1 3BD     -0.390000
     10 N3          2.0220   -1.2060    1.8730 n1        1 3BD     -0.166000
     11 C1          3.5980   -0.5130   -1.3780 c1        1 3BD      0.211000
     12 C2          2.5280   -0.7230   -2.2310 c1        1 3BD     -0.240000
     13 C3          1.2940   -1.1000   -1.7160 c1        1 3BD      0.022000
     14 C4          2.1890   -1.0590    0.5170 c1        1 3BD      0.141000
     15 C7          0.7790   -1.5660    2.3860 c2        1 3BD      0.086000
     16 N1          3.4370   -0.6790   -0.0050 n2        1 3BD     -0.212000
     17 N2         -0.2730   -1.7730    1.5450 n2        1 3BD     -0.242000
     18 C5          1.1340   -1.2670   -0.3240 c1        1 3BD     -0.246000
     19 C6         -0.1090   -1.6270    0.1950 c2        1 3BD      0.171000
     20 N4          4.9250    0.0730   -1.5040 n3        1 3BD     -0.336000
     21 N5          2.3640   -0.9800   -4.7980 n3        1 3BD     -0.427000
     22 N6         -0.6320   -0.4230   -0.4630 n3        1 3BD     -0.230000
     23 N7         -2.7130    1.4740   -0.8200 n3        1 3BD     -0.216000
     24 C16        -1.8030   -0.7540   -1.2100 c3        1 3BD     -0.068500
     25 C17        -3.2250    2.6640   -1.4640 c2        1 3BD      0.144000
     26 N8         -2.4290    3.3770   -2.2910 n2        1 3BD     -0.222000
     27 C18        -2.8610    4.5510   -2.8000 c1        1 3BD     -0.004000
     28 C19        -4.0950    5.0150   -2.4800 c1        1 3BD     -0.144000
     29 C20        -4.8970    4.2950   -1.6460 c1        1 3BD     -0.144000
     30 N9         -4.4660    3.1290   -1.1420 n1        1 3BD     -0.215000
     31 H13         0.0150    0.8590    0.9290 h1        1 3BD      0.097250
     32 H13A       -1.4360    0.2250    1.1940 h1        1 3BD      0.097250
     33 H9          1.2790   -1.2460    5.7460 hc        1 3BD      0.083000
     34 H9A         0.8470   -0.1320    4.6250 hc        1 3BD      0.083000
     35 H9B         2.3380   -0.7970    4.5600 hc        1 3BD      0.083000
     36 H10        -1.1990   -1.6700    4.2940 hc        1 3BD      0.083000
     37 H10A       -0.9540   -3.1460    3.7460 hc        1 3BD      0.083000
     38 H10B       -0.5760   -2.8110    5.2420 hc        1 3BD      0.083000
     39 H11         1.7670   -3.6000    4.8770 hc        1 3BD      0.083000
     40 H11A        1.4020   -4.0030    3.3660 hc        1 3BD      0.083000
     41 H11B        2.6570   -3.0230    3.6750 hc        1 3BD      0.083000
     42 H14        -1.7890    2.4050    0.6490 h1        1 3BD      0.101000
     43 H14A       -0.9080    2.2610   -0.6620 h1        1 3BD      0.101000
     44 H15        -3.3190    0.2010   -2.1830 h1        1 3BD      0.101000
     45 H15A       -1.9080    0.8310   -2.4960 h1        1 3BD      0.101000
     46 H3          0.5750   -1.3700   -2.3250 ha        1 3BD      0.155000
     47 HN4         5.5240    0.0070   -0.8100 hn        1 3BD      0.237500
     48 HN4A        5.1770    0.4700   -2.2910 hn        1 3BD      0.237500
     49 HN5         1.5290   -1.2940   -4.7070 hn        1 3BD      0.229000
     50 HN5A        2.6660   -0.7250   -5.6180 hn        1 3BD      0.229000
     51 H16        -2.4320   -1.2040   -0.6230 h1        1 3BD      0.097250
     52 H16A       -1.5600   -1.3520   -1.9260 h1        1 3BD      0.097250
     53 H18        -2.2960    5.0570   -3.3880 ha        1 3BD      0.163000
     54 H19        -4.4140    5.8790   -2.8560 ha        1 3BD      0.160000
     55 H20        -5.7850    4.6110   -1.4390 ha        1 3BD      0.160000
@<TRIPOS>BOND
     1    1    9 1   
     2    1   21 1   
     3    2    7 1   
     4    2   22 1   
     5    2   31 1   
     6    2   32 1   
     7    3    4 1   
     8    3    5 1   
     9    3    6 1   
    10    3   15 1   
    11    4   33 1   
    12    4   34 1   
    13    4   35 1   
    14    5   36 1   
    15    5   37 1   
    16    5   38 1   
    17    6   39 1   
    18    6   40 1   
    19    6   41 1   
    20    7   23 1   
    21    7   42 1   
    22    7   43 1   
    23    8   23 1   
    24    8   24 1   
    25    8   44 1   
    26    8   45 1   
    27   10   15 1   
    28   11   16 1   
    29   11   20 1   
    30   12   13 1   
    31   13   46 1   
    32   14   16 1   
    33   14   18 1   
    34   15   17 1   
    35   17   19 1   
    36   18   19 1   
    37   19   22 1   
    38   20   47 1   
    39   20   48 1   
    40   21   49 1   
    41   21   50 1   
    42   22   24 1   
    43   23   25 1   
    44   24   51 1   
    45   24   52 1   
    46   25   26 1   
    47   25   30 1   
    48   26   27 1   
    49   27   53 1   
    50   28   29 1   
    51   28   54 1   
    52   29   55 1   
@<TRIPOS>SUBSTRUCTURE
     1 3BD         1 TEMP              0 ****  ****    0 ROOT
