@<TRIPOS>MOLECULE
3BD
   55    58     1     0     0
SMALL
bcc


@<TRIPOS>ATOM
      1 C12        -2.2930   -3.9330    0.1880 c         1 3BD      0.686700
      2 C13         1.2020   -0.0250    1.1420 c3        1 3BD      0.166800
      3 C8         -2.6920    3.9840   -0.1580 c3        1 3BD     -0.079300
      4 C9         -4.1860    4.2740   -0.1090 c3        1 3BD     -0.085433
      5 C10        -2.1340    4.5060   -1.4760 c3        1 3BD     -0.085433
      6 C11        -2.0160    4.6860    1.0130 c3        1 3BD     -0.085433
      7 C14         2.5800   -0.6970    0.9720 c3        1 3BD      0.198800
      8 C15         2.9460    0.6720   -1.0360 c3        1 3BD      0.198800
      9 O1         -2.8630   -4.7040    0.9920 o         1 3BD     -0.630100
     10 N3         -3.4170    1.6230    0.0730 nb        1 3BD     -0.692000
     11 C1         -3.8960   -1.9470    0.3030 ca        1 3BD      0.734200
     12 C2         -2.5400   -2.4670    0.1730 ca        1 3BD     -0.327900
     13 C3         -1.4980   -1.5750    0.0630 ca        1 3BD      0.022000
     14 C4         -3.1150    0.2640    0.1410 ca        1 3BD      0.732300
     15 C7         -2.3940    2.4740   -0.0620 ca        1 3BD      0.706300
     16 N1         -4.1600   -0.6150    0.2870 nb        1 3BD     -0.739000
     17 N2         -1.0440    2.1360   -0.1130 nb        1 3BD     -0.769000
     18 C5         -1.7440   -0.1860    0.0630 ca        1 3BD     -0.377600
     19 C6         -0.7200    0.8370   -0.0460 ca        1 3BD      0.692200
     20 N5         -1.3910   -4.4390   -0.7140 n         1 3BD     -0.665000
     21 N6          0.6450    0.4070   -0.1360 nh        1 3BD     -0.740300
     22 N7          3.5070    0.0890    0.1730 nh        1 3BD     -0.726300
     23 C16         1.5590    1.3150   -0.8200 c3        1 3BD      0.166800
     24 C17         4.8450   -0.3780    0.1000 ca        1 3BD      0.862900
     25 N8          5.6630    0.1260   -0.9090 nb        1 3BD     -0.744500
     26 C18         6.9530   -0.2390   -0.8760 ca        1 3BD      0.462200
     27 C19         7.4930   -1.0980    0.0970 ca        1 3BD     -0.415600
     28 C20         6.5910   -1.5810    1.0600 ca        1 3BD      0.462200
     29 N9          5.2910   -1.2560    1.0860 nb        1 3BD     -0.744500
     30 H13         0.5080   -0.7790    1.6080 h1        1 3BD      0.059200
     31 H13A        1.3060    0.8430    1.8560 h1        1 3BD      0.059200
     32 H9         -4.7160    3.7780   -0.9570 hc        1 3BD      0.043589
     33 H9A        -4.6300    3.9170    0.8510 hc        1 3BD      0.043589
     34 H9B        -4.3480    5.3770   -0.1860 hc        1 3BD      0.043589
     35 H10        -2.4220    5.5780   -1.6020 hc        1 3BD      0.043589
     36 H10A       -1.0210    4.4370   -1.4990 hc        1 3BD      0.043589
     37 H10B       -2.5500    3.9230   -2.3320 hc        1 3BD      0.043589
     38 H11        -2.3510    4.2380    1.9790 hc        1 3BD      0.043589
     39 H11A       -0.9050    4.6060    0.9440 hc        1 3BD      0.043589
     40 H11B       -2.2930    5.7680    1.0060 hc        1 3BD      0.043589
     41 H14         3.0020   -0.8250    2.0090 h1        1 3BD      0.061700
     42 H14A        2.4340   -1.7200    0.5190 h1        1 3BD      0.061700
     43 H15         3.6250    1.4970   -1.3960 h1        1 3BD      0.061700
     44 H15A        2.8690   -0.1050   -1.8500 h1        1 3BD      0.061700
     45 H3         -0.4610   -1.9420   -0.0260 ha        1 3BD      0.154000
     46 HN4        -4.7680   -3.7480    0.6870 hn        1 3BD      0.444300
     47 HN4A       -5.8620   -2.4550    0.5750 hn        1 3BD      0.444300
     48 HN5        -1.2260   -5.4150   -0.7380 hn        1 3BD      0.316500
     49 HN5A       -0.9870   -3.8660   -1.4080 hn        1 3BD      0.316500
     50 H16         1.6920    2.2830   -0.2560 h1        1 3BD      0.059200
     51 H16A        1.1330    1.5530   -1.8330 h1        1 3BD      0.059200
     52 H18         7.5820    0.1810   -1.6840 h4        1 3BD      0.026600
     53 H19         8.5500   -1.3770    0.1010 ha        1 3BD      0.156000
     54 H20         6.9200   -2.2730    1.8580 h4        1 3BD      0.026600
     55 N4         -4.9600   -2.8230    0.3720 nh        1 3BD     -0.942500
@<TRIPOS>BOND
     1    1    9 2   
     2    1   12 1   
     3    1   20 1   
     4    2    7 1   
     5    2   21 1   
     6    2   30 1   
     7    2   31 1   
     8    3    4 1   
     9    3    5 1   
    10    3    6 1   
    11    3   15 1   
    12    4   32 1   
    13    4   33 1   
    14    4   34 1   
    15    5   35 1   
    16    5   36 1   
    17    5   37 1   
    18    6   38 1   
    19    6   39 1   
    20    6   40 1   
    21    7   22 1   
    22    7   41 1   
    23    7   42 1   
    24    8   22 1   
    25    8   23 1   
    26    8   43 1   
    27    8   44 1   
    28   10   14 ar  
    29   10   15 ar  
    30   11   12 ar  
    31   11   16 ar  
    32   11   55 1   
    33   12   13 ar  
    34   13   18 ar  
    35   13   45 1   
    36   14   16 ar  
    37   14   18 ar  
    38   15   17 ar  
    39   17   19 ar  
    40   18   19 ar  
    41   19   21 1   
    42   20   48 1   
    43   20   49 1   
    44   21   23 1   
    45   22   24 1   
    46   23   50 1   
    47   23   51 1   
    48   24   25 ar  
    49   24   29 ar  
    50   25   26 ar  
    51   26   27 ar  
    52   26   52 1   
    53   27   28 ar  
    54   27   53 1   
    55   28   29 ar  
    56   28   54 1   
    57   46   55 1   
    58   47   55 1   
@<TRIPOS>SUBSTRUCTURE
     1 3BD         1 TEMP              0 ****  ****    0 ROOT
