@<TRIPOS>MOLECULE
3BD
   56    59     1     0     0
SMALL
bcc


@<TRIPOS>ATOM
      1 C12        -0.2950   -0.5470   -0.2360 c         1 3BD      0.592700
      2 C13        -5.9650    1.6370    2.2600 c3        1 3BD      0.162800
      3 C8         -3.7510    0.7330    6.7440 c3        1 3BD     -0.084300
      4 C9         -4.1990    2.1860    6.8330 c3        1 3BD     -0.091100
      5 C10        -2.6280    0.4980    7.7460 c3        1 3BD     -0.091100
      6 C11        -4.9120   -0.1990    7.0720 c3        1 3BD     -0.091100
      7 C14        -6.7680    1.9760    0.9860 c3        1 3BD      0.202300
      8 C15        -6.1860   -0.2270    0.0730 c3        1 3BD      0.202300
      9 O1          0.7490   -1.0190   -0.6830 o         1 3BD     -0.482100
     10 N3         -2.0550    0.0110    5.0800 nb        1 3BD     -0.698000
     11 C1          0.0170   -0.8480    2.2380 ca        1 3BD      0.793200
     12 C2         -0.8220   -0.4880    1.0930 ca        1 3BD     -0.433900
     13 C3         -2.1440   -0.0830    1.3670 ca        1 3BD      0.054000
     14 C4         -1.6700   -0.2200    3.7610 ca        1 3BD      0.786300
     15 C7         -3.2990    0.4500    5.2970 ca        1 3BD      0.762300
     16 N1         -0.4140   -0.6750    3.5270 nb        1 3BD     -0.725000
     17 N2         -4.2790    0.6660    4.3160 nb        1 3BD     -0.748000
     18 C5         -2.6040    0.0310    2.6630 ca        1 3BD     -0.375600
     19 C6         -3.9610    0.4550    3.0420 ca        1 3BD      0.707200
     20 N5         -1.1250    0.1050   -1.3450 n4        1 3BD     -0.762400
     21 N6         -4.8850    0.6930    1.9800 nh        1 3BD     -0.752300
     22 N7         -7.1950    0.8020    0.2410 nh        1 3BD     -0.729300
     23 C16        -5.4090   -0.5280    1.3710 c3        1 3BD      0.162800
     24 C17        -8.0660    1.0300   -0.8650 ca        1 3BD      0.849900
     25 N8         -8.1030    0.0830   -1.8810 nb        1 3BD     -0.742500
     26 C18        -9.0310    0.2610   -2.8350 ca        1 3BD      0.461700
     27 C19        -9.9190    1.3490   -2.8550 ca        1 3BD     -0.393600
     28 C20        -9.7840    2.2790   -1.8090 ca        1 3BD      0.461700
     29 N9         -8.8800    2.1570   -0.8250 nb        1 3BD     -0.742500
     30 H13        -6.6720    1.2380    3.0430 h1        1 3BD      0.064450
     31 H13A       -5.5140    2.5930    2.6450 h1        1 3BD      0.064450
     32 H9         -3.3840    2.8680    6.4910 hc        1 3BD      0.051811
     33 H9A        -4.4410    2.4290    7.8970 hc        1 3BD      0.051811
     34 H9B        -5.1110    2.3690    6.2180 hc        1 3BD      0.051811
     35 H10        -3.0050    0.7230    8.7740 hc        1 3BD      0.051811
     36 H10A       -2.2840   -0.5630    7.7210 hc        1 3BD      0.051811
     37 H10B       -1.7590    1.1650    7.5350 hc        1 3BD      0.051811
     38 H11        -4.6150   -1.2630    6.9160 hc        1 3BD      0.051811
     39 H11A       -5.8050    0.0280    6.4430 hc        1 3BD      0.051811
     40 H11B       -5.1960   -0.0640    8.1450 hc        1 3BD      0.051811
     41 H14        -6.1520    2.6590    0.3340 h1        1 3BD      0.059950
     42 H14A       -7.6800    2.5440    1.3300 h1        1 3BD      0.059950
     43 H15        -5.4490    0.0550   -0.7340 h1        1 3BD      0.059950
     44 H15A       -6.6900   -1.1890   -0.2300 h1        1 3BD      0.059950
     45 H3         -2.8400    0.1470    0.5410 ha        1 3BD      0.135000
     46 HN4         1.6470   -1.5220    1.1750 hn        1 3BD      0.472300
     47 HN4A        1.8250   -1.5800    2.8740 hn        1 3BD      0.472300
     48 HN5        -1.3580    1.0670   -1.0880 hn        1 3BD      0.464133
     49 HN5A       -1.9890   -0.4210   -1.4940 hn        1 3BD      0.464133
     50 H16        -4.5540   -1.2120    1.1150 h1        1 3BD      0.064450
     51 H16A       -6.0900   -1.0760    2.0860 h1        1 3BD      0.064450
     52 H18        -9.0520   -0.5140   -3.6250 h4        1 3BD      0.035600
     53 H19       -10.6720    1.4680   -3.6410 ha        1 3BD      0.166000
     54 H20       -10.4290    3.1770   -1.7500 h4        1 3BD      0.035600
     55 H53        -0.5800    0.1060   -2.2160 hn        1 3BD      0.464133
     56 N4          1.2700   -1.3530    2.0770 nh        1 3BD     -0.927500
@<TRIPOS>BOND
     1    1    9 2   
     2    1   12 1   
     3    1   20 1   
     4    2    7 1   
     5    2   21 1   
     6    2   30 1   
     7    2   31 1   
     8    3    4 1   
     9    3    5 1   
    10    3    6 1   
    11    3   15 1   
    12    4   32 1   
    13    4   33 1   
    14    4   34 1   
    15    5   35 1   
    16    5   36 1   
    17    5   37 1   
    18    6   38 1   
    19    6   39 1   
    20    6   40 1   
    21    7   22 1   
    22    7   41 1   
    23    7   42 1   
    24    8   22 1   
    25    8   23 1   
    26    8   43 1   
    27    8   44 1   
    28   10   14 ar  
    29   10   15 ar  
    30   11   12 ar  
    31   11   16 ar  
    32   11   56 1   
    33   12   13 ar  
    34   13   18 ar  
    35   13   45 1   
    36   14   16 ar  
    37   14   18 ar  
    38   15   17 ar  
    39   17   19 ar  
    40   18   19 ar  
    41   19   21 1   
    42   20   48 1   
    43   20   49 1   
    44   20   55 1   
    45   21   23 1   
    46   22   24 1   
    47   23   50 1   
    48   23   51 1   
    49   24   25 ar  
    50   24   29 ar  
    51   25   26 ar  
    52   26   27 ar  
    53   26   52 1   
    54   27   28 ar  
    55   27   53 1   
    56   28   29 ar  
    57   28   54 1   
    58   46   56 1   
    59   47   56 1   
@<TRIPOS>SUBSTRUCTURE
     1 3BD         1 TEMP              0 ****  ****    0 ROOT
