@<TRIPOS>MOLECULE
3BE
   32    33     1     0     0
SMALL
bcc


@<TRIPOS>ATOM
      1 CAK        -0.3810   -1.4140    1.0910 ca        1 3BE     -0.023000
      2 CAP         0.7320   -1.3220    0.2500 ca        1 3BE     -0.037900
      3 BrAD        1.1300   -2.7200   -0.9200 br        1 3BE     -0.007100
      4 CAI         1.5420   -0.1820    0.2940 ca        1 3BE     -0.033000
      5 CAH         1.2440    0.8590    1.1780 ca        1 3BE     -0.118000
      6 CAJ         0.1340    0.7800    2.0120 ca        1 3BE     -0.087000
      7 CAU        -0.6870   -0.3570    1.9640 ca        1 3BE     -0.201600
      8 CAO        -1.8580   -0.5250    2.8240 c         1 3BE      0.565700
      9 OAA        -2.3180   -1.5590    3.2890 o         1 3BE     -0.438100
     10 NAN        -2.6230    0.7610    3.1680 ny        1 3BE     -0.366900
     11 NAM        -4.0000    0.8210    2.9270 n2        1 3BE     -0.549400
     12 CAG        -4.8300   -0.0780    3.4020 ce        1 3BE      0.575800
     13 CAT        -6.2640   -0.0450    3.1960 ca        1 3BE     -0.289900
     14 CAL        -6.9620   -1.2330    3.5140 ca        1 3BE      0.015000
     15 CAQ        -8.3270   -1.3570    3.3470 ca        1 3BE     -0.108900
     16 BrAE       -9.1380   -2.9820    3.7920 br        1 3BE     -0.001100
     17 CAR        -9.0610   -0.2440    2.8450 ca        1 3BE      0.293100
     18 OAB       -10.3960   -0.4230    2.6940 oh        1 3BE     -0.440100
     19 CAV        -8.4050    0.9640    2.5340 ca        1 3BE     -0.251900
     20 BrAF       -9.3790    2.4320    1.8870 br        1 3BE     -0.030100
     21 CAS        -7.0060    1.0600    2.7140 ca        1 3BE      0.292100
     22 OAC        -6.3200    2.2060    2.4610 oh        1 3BE     -0.465100
     23 HAK        -1.0220   -2.3140    1.0790 ha        1 3BE      0.177000
     24 HAI         2.4260   -0.0990   -0.3640 ha        1 3BE      0.179000
     25 HAH         1.8980    1.7460    1.2150 ha        1 3BE      0.170000
     26 HAJ        -0.0570    1.6020    2.7190 ha        1 3BE      0.134000
     27 HNAN       -2.2560    1.5270    2.5720 hn        1 3BE      0.465300
     28 HAG        -4.4880   -0.9690    3.9910 h4        1 3BE      0.034800
     29 HAL        -6.3860   -2.0950    3.9030 ha        1 3BE      0.164000
     30 HOAB      -10.8050    0.3940    2.3490 ho        1 3BE      0.459000
     31 HOAC       -6.9370    2.8910    2.1380 ho        1 3BE      0.458000
     32 HAN2       -2.4170    0.9880    4.1540 hn        1 3BE      0.465300
@<TRIPOS>BOND
     1    1    2 ar  
     2    1    7 ar  
     3    1   23 1   
     4    2    3 1   
     5    2    4 ar  
     6    4    5 ar  
     7    4   24 1   
     8    5    6 ar  
     9    5   25 1   
    10    6    7 ar  
    11    6   26 1   
    12    7    8 1   
    13    8    9 2   
    14    8   10 1   
    15   10   11 1   
    16   10   27 1   
    17   10   32 1   
    18   11   12 2   
    19   12   13 1   
    20   12   28 1   
    21   13   14 ar  
    22   13   21 ar  
    23   14   15 ar  
    24   14   29 1   
    25   15   16 1   
    26   15   17 ar  
    27   17   18 1   
    28   17   19 ar  
    29   18   30 1   
    30   19   20 1   
    31   19   21 ar  
    32   21   22 1   
    33   22   31 1   
@<TRIPOS>SUBSTRUCTURE
     1 3BE         1 TEMP              0 ****  ****    0 ROOT
