@<TRIPOS>MOLECULE
3BE
   31    32     1     0     0
SMALL
bcc


@<TRIPOS>ATOM
      1 CAK        -5.1330    0.1340    0.4820 ca        1 3BE     -0.053000
      2 CAP        -6.3770    0.7620    0.5890 ca        1 3BE     -0.034900
      3 BRAD       -7.7630   -0.0660    1.5340 br        1 3BE     -0.067100
      4 CAI        -6.5850    2.0080   -0.0130 ca        1 3BE     -0.080000
      5 CAH        -5.5520    2.6210   -0.7210 ca        1 3BE     -0.135000
      6 CAJ        -4.3060    2.0040   -0.8250 ca        1 3BE     -0.092000
      7 CAU        -4.0970    0.7630   -0.2170 ca        1 3BE     -0.151600
      8 CAO        -2.7920    0.0480   -0.3240 c         1 3BE      0.696700
      9 OAA        -2.7130   -1.1550   -0.6010 o         1 3BE     -0.529100
     10 NAN        -1.6610    0.8610   -0.0760 n         1 3BE     -0.333900
     11 NAM        -0.4230    0.3790   -0.1130 n2        1 3BE     -0.475300
     12 CAG         0.6110    1.1090    0.2120 ce        1 3BE      0.395800
     13 CAT         1.9850    0.6080    0.1590 ca        1 3BE     -0.256900
     14 CAL         2.9840    1.5290    0.5060 ca        1 3BE     -0.011000
     15 CAQ         4.3320    1.1970    0.5040 ca        1 3BE     -0.107900
     16 BRAE        5.5710    2.5150    0.9860 br        1 3BE     -0.055100
     17 CAR         4.7080   -0.1160    0.1390 ca        1 3BE      0.232100
     18 OAB         6.0470   -0.3940    0.1520 oh        1 3BE     -0.471100
     19 CAV         3.7360   -1.0700   -0.2150 ca        1 3BE     -0.171900
     20 BRAF        4.2770   -2.8070   -0.6950 br        1 3BE     -0.053100
     21 CAS         2.3670   -0.7040   -0.2050 ca        1 3BE      0.262100
     22 OAC         1.4960   -1.6870   -0.5610 oh        1 3BE     -0.479100
     23 HAK        -4.9560   -0.8580    0.9310 ha        1 3BE      0.169000
     24 HAI        -7.5640    2.5070    0.0640 ha        1 3BE      0.153000
     25 HAH        -5.7240    3.5950   -1.2030 ha        1 3BE      0.146000
     26 HAJ        -3.5030    2.4900   -1.4010 ha        1 3BE      0.143000
     27 HNAN       -1.8330    1.7980    0.2400 hn        1 3BE      0.303500
     28 HAG         0.5340    2.1680    0.5490 h4        1 3BE     -0.006200
     29 HAL         2.6840    2.5540    0.7900 ha        1 3BE      0.149000
     30 HOAB        6.1770   -1.3220   -0.1150 ho        1 3BE      0.442000
     31 HOAC        0.5780   -1.3660   -0.5300 ho        1 3BE      0.473000
@<TRIPOS>BOND
     1    1    2 ar  
     2    1    7 ar  
     3    1   23 1   
     4    2    3 1   
     5    2    4 ar  
     6    4    5 ar  
     7    4   24 1   
     8    5    6 ar  
     9    5   25 1   
    10    6    7 ar  
    11    6   26 1   
    12    7    8 1   
    13    8    9 2   
    14    8   10 1   
    15   10   11 1   
    16   10   27 1   
    17   11   12 2   
    18   12   13 1   
    19   12   28 1   
    20   13   14 ar  
    21   13   21 ar  
    22   14   15 ar  
    23   14   29 1   
    24   15   16 1   
    25   15   17 ar  
    26   17   18 1   
    27   17   19 ar  
    28   18   30 1   
    29   19   20 1   
    30   19   21 ar  
    31   21   22 1   
    32   22   31 1   
@<TRIPOS>SUBSTRUCTURE
     1 3BE         1 TEMP              0 ****  ****    0 ROOT
