@<TRIPOS>MOLECULE
3BE
   32    33     1     0     0
SMALL
bcc


@<TRIPOS>ATOM
      1 CAK        -0.3700   -1.3790    1.0790 ca        1 3BE     -0.023000
      2 CAP         0.7370   -1.2760    0.2320 ca        1 3BE     -0.037900
      3 BRAD        1.1470   -2.6740   -0.9340 br        1 3BE     -0.007100
      4 CAI         1.5350   -0.1270    0.2680 ca        1 3BE     -0.033000
      5 CAH         1.2280    0.9140    1.1500 ca        1 3BE     -0.118000
      6 CAJ         0.1230    0.8260    1.9890 ca        1 3BE     -0.087000
      7 CAU        -0.6850   -0.3220    1.9490 ca        1 3BE     -0.201600
      8 CAO        -1.8500   -0.5000    2.8140 c         1 3BE      0.565700
      9 OAA        -2.2960   -1.5370    3.2850 o         1 3BE     -0.438100
     10 NAN        -2.6290    0.7780    3.1580 n4        1 3BE     -0.366900
     11 NAM        -4.0070    0.8210    2.9240 n2        1 3BE     -0.549400
     12 CAG        -4.8250   -0.0860    3.4070 ce        1 3BE      0.575800
     13 CAT        -6.2590   -0.0710    3.2080 ca        1 3BE     -0.289900
     14 CAL        -6.9410   -1.2660    3.5310 ca        1 3BE      0.015000
     15 CAQ        -8.3070   -1.4060    3.3720 ca        1 3BE     -0.108900
     16 BRAE       -9.0960   -3.0400    3.8230 br        1 3BE     -0.001100
     17 CAR        -9.0560   -0.3030    2.8720 ca        1 3BE      0.293100
     18 OAB       -10.3890   -0.4980    2.7280 oh        1 3BE     -0.440100
     19 CAV        -8.4150    0.9120    2.5560 ca        1 3BE     -0.251900
     20 BRAF       -9.4100    2.3680    1.9120 br        1 3BE     -0.030100
     21 CAS        -7.0170    1.0260    2.7280 ca        1 3BE      0.292100
     22 OAC        -6.3460    2.1790    2.4700 oh        1 3BE     -0.465100
     23 HAK        -1.0010   -2.2860    1.0730 ha        1 3BE      0.177000
     24 HAI         2.4140   -0.0360   -0.3940 ha        1 3BE      0.179000
     25 HAH         1.8720    1.8090    1.1810 ha        1 3BE      0.170000
     26 HAJ        -0.0750    1.6480    2.6940 ha        1 3BE      0.134000
     27 HNAN       -2.2740    1.5460    2.5570 hn        1 3BE      0.465300
     28 HAG        -4.4690   -0.9710    3.9960 h4        1 3BE      0.034800
     29 HAL        -6.3540   -2.1200    3.9190 ha        1 3BE      0.164000
     30 HOAB      -10.8100    0.3140    2.3840 ho        1 3BE      0.459000
     31 HOAC       -6.9730    2.8560    2.1500 ho        1 3BE      0.458000
     32 HAN2       -2.4200    1.0120    4.1420 hn        1 3BE      0.465300
@<TRIPOS>BOND
     1    1    2 ar  
     2    1    7 ar  
     3    1   23 1   
     4    2    3 1   
     5    2    4 ar  
     6    4    5 ar  
     7    4   24 1   
     8    5    6 ar  
     9    5   25 1   
    10    6    7 ar  
    11    6   26 1   
    12    7    8 1   
    13    8    9 2   
    14    8   10 1   
    15   10   11 1   
    16   10   27 1   
    17   10   32 1   
    18   11   12 2   
    19   12   13 1   
    20   12   28 1   
    21   13   14 ar  
    22   13   21 ar  
    23   14   15 ar  
    24   14   29 1   
    25   15   16 1   
    26   15   17 ar  
    27   17   18 1   
    28   17   19 ar  
    29   18   30 1   
    30   19   20 1   
    31   19   21 ar  
    32   21   22 1   
    33   22   31 1   
@<TRIPOS>SUBSTRUCTURE
     1 3BE         1 TEMP              0 ****  ****    0 ROOT
