@<TRIPOS>MOLECULE
3BE
   31    26     1     0     0
SMALL
bcc


@<TRIPOS>ATOM
      1 CAK         3.3080    0.1310   -2.4530 c1        1 3BE     -0.055000
      2 CAP         4.6080    0.6140   -2.5110 c1        1 3BE     -0.176000
      3 BRAD        5.5090    0.7260   -4.1930 br        1 3BE      0.068000
      4 CAI         5.2120    1.1160   -1.3670 c1        1 3BE     -0.082000
      5 CAH         4.5160    1.1350   -0.1650 c1        1 3BE     -0.113000
      6 CAJ         3.2150    0.6520   -0.1080 c1        1 3BE     -0.113000
      7 CAU         2.6110    0.1510   -1.2500 c1        1 3BE     -0.131000
      8 CAO         1.1620   -0.3110   -1.2030 c2        1 3BE      0.366000
      9 OAA         0.6150   -0.6960   -2.2210 o         1 3BE     -0.287000
     10 NAN         0.4920   -0.4330    0.0580 n         1 3BE     -0.323000
     11 NAM         0.2720   -1.6930    0.6090 n2        1 3BE      0.009000
     12 CAG        -0.9020   -1.9860    1.1400 c1        1 3BE     -0.122000
     13 CAT        -2.0130   -0.9470    1.1490 c1        1 3BE     -0.194500
     14 CAL        -2.0520    0.0150    2.1470 c2        1 3BE     -0.028000
     15 CAQ        -3.1230    0.8950    2.2210 c1        1 3BE     -0.194500
     16 BRAE       -3.2210    2.1640    3.6500 br        1 3BE      0.080500
     17 CAR        -4.1540    0.8120    1.2970 c2        1 3BE      0.185500
     18 OAB        -5.2870    1.6420    1.4310 oh        1 3BE     -0.225000
     19 CAV        -4.1150   -0.1500    0.2990 c1        1 3BE     -0.354000
     20 BRAF       -5.5200   -0.2370   -1.0030 br        1 3BE      0.080500
     21 CAS        -3.0460   -1.0290    0.2240 c2        1 3BE      0.185500
     22 OAC        -3.0580   -2.0700   -0.7250 oh        1 3BE     -0.225000
     23 HAK         2.8840   -0.2200   -3.2530 ha        1 3BE      0.169000
     24 HAI         6.1220    1.4540   -1.4070 ha        1 3BE      0.152000
     25 HAH         4.9410    1.4890    0.6400 ha        1 3BE      0.144000
     26 HAJ         2.7240    0.6660    0.7410 ha        1 3BE      0.144000
     27 HNAN        0.2730    0.3150    0.5310 hn        1 3BE      0.213000
     28 HAG        -1.0570   -2.8710    1.5280 ha        1 3BE      0.184000
     29 HAL        -1.3180    0.0870    2.7820 ha        1 3BE      0.160000
     30 HOAB       -5.9010    1.2280    1.9280 ho        1 3BE      0.239000
     31 HOAC       -3.6990   -2.6500   -0.5200 ho        1 3BE      0.239000
@<TRIPOS>BOND
     1    1    7 1   
     2    1   23 1   
     3    2    3 1   
     4    2    4 1   
     5    4   24 1   
     6    5    6 1   
     7    5   25 1   
     8    6   26 1   
     9    7    8 1   
    10    8    9 1   
    11    8   10 1   
    12   10   11 1   
    13   10   27 1   
    14   11   12 1   
    15   12   28 1   
    16   13   14 1   
    17   13   21 1   
    18   14   15 1   
    19   14   29 1   
    20   15   17 1   
    21   17   18 1   
    22   17   19 1   
    23   18   30 1   
    24   19   21 1   
    25   21   22 1   
    26   22   31 1   
@<TRIPOS>SUBSTRUCTURE
     1 3BE         1 TEMP              0 ****  ****    0 ROOT
