@<TRIPOS>MOLECULE
3BE
   32    33     1     0     0
SMALL
bcc


@<TRIPOS>ATOM
      1 CAK        -1.0770    0.1270    0.9390 ca        1 3BE     -0.064000
      2 CAP        -0.1440   -0.2960   -0.0110 ca        1 3BE     -0.039900
      3 BRAD       -0.5460   -0.1660   -1.8290 br        1 3BE     -0.016100
      4 CAI         1.0890   -0.8200    0.4040 ca        1 3BE     -0.029000
      5 CAH         1.3830   -0.9290    1.7630 ca        1 3BE     -0.127000
      6 CAJ         0.4590   -0.5150    2.7190 ca        1 3BE     -0.037000
      7 CAU        -0.7710    0.0270    2.3040 ca        1 3BE     -0.204600
      8 CAO        -1.7040    0.4310    3.3500 c         1 3BE      0.565700
      9 OAA        -1.8190   -0.0000    4.4900 o         1 3BE     -0.442100
     10 NAN        -2.6670    1.5770    3.0070 n4        1 3BE     -0.370900
     11 NAM        -3.9750    1.2370    2.6410 n2        1 3BE     -0.553400
     12 CAG        -4.7260    0.4950    3.4240 ce        1 3BE      0.571800
     13 CAT        -6.0910    0.1170    3.1350 ca        1 3BE     -0.289900
     14 CAL        -6.6900   -0.7830    4.0480 ca        1 3BE      0.015000
     15 CAQ        -7.9860   -1.2370    3.9000 ca        1 3BE     -0.108900
     16 BRAE       -8.6660   -2.4300    5.1690 br        1 3BE     -0.000100
     17 CAR        -8.7510   -0.7790    2.7890 ca        1 3BE      0.295100
     18 OAB       -10.0150   -1.2570    2.6930 oh        1 3BE     -0.439100
     19 CAV        -8.1950    0.1230    1.8610 ca        1 3BE     -0.253900
     20 BRAF       -9.2100    0.7290    0.4030 br        1 3BE     -0.029100
     21 CAS        -6.8650    0.5700    2.0370 ca        1 3BE      0.295100
     22 OAC        -6.2760    1.4450    1.1820 oh        1 3BE     -0.463100
     23 HAK        -2.0570    0.5030    0.5980 ha        1 3BE      0.161000
     24 HAI         1.8310   -1.1530   -0.3440 ha        1 3BE      0.179000
     25 HAH         2.3510   -1.3500    2.0830 ha        1 3BE      0.174000
     26 HAJ         0.6850   -0.6130    3.7940 ha        1 3BE      0.169000
     27 HNAN       -2.3080    2.0780    2.1760 hn        1 3BE      0.466300
     28 HAG        -4.3460    0.0790    4.3950 h4        1 3BE      0.028800
     29 HAL        -6.0930   -1.1360    4.9100 ha        1 3BE      0.163000
     30 HOAB      -10.4550   -0.8830    1.9050 ho        1 3BE      0.459000
     31 HOAC       -6.9100    1.6900    0.4780 ho        1 3BE      0.459000
     32 HAN2       -2.6710    2.2310    3.8070 hn        1 3BE      0.466300
@<TRIPOS>BOND
     1    1    2 ar  
     2    1    7 ar  
     3    1   23 1   
     4    2    3 1   
     5    2    4 ar  
     6    4    5 ar  
     7    4   24 1   
     8    5    6 ar  
     9    5   25 1   
    10    6    7 ar  
    11    6   26 1   
    12    7    8 1   
    13    8    9 2   
    14    8   10 1   
    15   10   11 1   
    16   10   27 1   
    17   10   32 1   
    18   11   12 2   
    19   12   13 1   
    20   12   28 1   
    21   13   14 ar  
    22   13   21 ar  
    23   14   15 ar  
    24   14   29 1   
    25   15   16 1   
    26   15   17 ar  
    27   17   18 1   
    28   17   19 ar  
    29   18   30 1   
    30   19   20 1   
    31   19   21 ar  
    32   21   22 1   
    33   22   31 1   
@<TRIPOS>SUBSTRUCTURE
     1 3BE         1 TEMP              0 ****  ****    0 ROOT
