@<TRIPOS>MOLECULE
3BF
   76    78     1     0     0
SMALL
bcc


@<TRIPOS>ATOM
      1 N2          0.4270   -0.0130   -0.2170 n         1 3BF     -0.537400
      2 C4          0.2450    0.1280   -2.7330 cc        1 3BF     -0.222600
      3 N5         -0.8350    0.1210   -3.5970 na        1 3BF     -0.132900
      4 C6         -1.9960    0.0110   -2.8090 cc        1 3BF      0.313000
      5 C7         -3.3610   -0.0300   -3.3940 c         1 3BF      0.626600
      6 C9         -5.7470   -0.1950   -2.8680 cc        1 3BF      0.000600
      7 C10        -6.8400   -0.3560   -1.9620 cd        1 3BF     -0.147300
      8 C1'         1.8160    0.0620   -0.1510 c         1 3BF      0.671100
      9 C1          2.4240    0.0090    1.2290 c3        1 3BF     -0.174100
     10 C3         -0.2930    0.0190   -1.4110 cd        1 3BF      0.420200
     11 N6         -1.6920   -0.0520   -1.4780 nd        1 3BF     -0.678000
     12 O7         -3.5430    0.0300   -4.6280 o         1 3BF     -0.629100
     13 N11        -8.0160   -0.3680   -2.6830 na        1 3BF      0.000900
     14 C13        -6.3060   -0.1110   -4.1830 cc        1 3BF     -0.132000
     15 C12        -7.7110   -0.2240   -4.0460 cd        1 3BF     -0.238900
     16 C14        -8.7320   -0.1950   -5.0920 c         1 3BF      0.737700
     17 O12        -9.9540   -0.1190   -4.8780 o         1 3BF     -0.591100
     18 N14        -8.2220   -0.2780   -6.4120 n         1 3BF     -0.531400
     19 C15        -8.9550   -0.1690   -7.5700 cc        1 3BF      0.590300
     20 S16        -8.1950   -0.4860   -9.1390 ss        1 3BF      0.037700
     21 C17        -9.6170   -0.1750   -9.9450 cc        1 3BF     -0.048700
     22 C20        -9.7470   -0.2370  -11.4200 c3        1 3BF     -0.026400
     23 C21        -9.6690    1.1560  -12.0250 c3        1 3BF     -0.099600
     24 C28        -8.6860   -1.1370  -12.0270 c3        1 3BF     -0.099600
     25 N19       -10.2530    0.1590   -7.6760 nd        1 3BF     -0.713000
     26 C18       -10.6310    0.1440   -9.0250 cd        1 3BF      0.194800
     27 C22       -11.9970    0.4360   -9.3940 c         1 3BF      0.513600
     28 O22       -12.5390    0.4970  -10.4880 o         1 3BF     -0.449100
     29 N22       -12.9240    0.7090   -8.1870 n4        1 3BF     -0.672800
     30 C23       -14.3250    0.9810   -8.5850 c3        1 3BF      0.104800
     31 C24       -15.2470    1.2600   -7.3980 c3        1 3BF     -0.130400
     32 C25       -16.6520    1.5130   -7.9420 c3        1 3BF      0.104800
     33 N26       -17.6540    1.8770   -6.8870 n4        1 3BF     -0.678400
     34 C29       -18.8440    2.5270   -7.5080 c3        1 3BF      0.079100
     35 C27       -18.0710    0.6900   -6.0910 c3        1 3BF      0.079100
     36 H2         -0.0930   -0.0970    0.6270 hn        1 3BF      0.333500
     37 H4          1.2880    0.2040   -3.0550 h4        1 3BF      0.227000
     38 H8         -4.2190   -0.1860   -1.5180 hn        1 3BF      0.353500
     39 H10        -6.8260   -0.4590   -0.8750 h4        1 3BF      0.191000
     40 H111       -9.8480   -1.3840   -2.6100 h1        1 3BF      0.066700
     41 H112       -9.9280    0.4170   -2.3430 h1        1 3BF      0.066700
     42 H113       -9.2560   -0.6710   -1.0240 h1        1 3BF      0.066700
     43 H102        2.0600    0.8610    1.8520 hc        1 3BF      0.075367
     44 H101        2.1660   -0.9530    1.7350 hc        1 3BF      0.075367
     45 H103        3.5350    0.0800    1.1290 hc        1 3BF      0.075367
     46 H53        -1.2480   -0.7060   -5.4760 h1        1 3BF      0.069367
     47 H51        -1.3520    1.1090   -5.3690 h1        1 3BF      0.069367
     48 H52         0.2930    0.2880   -5.3490 h1        1 3BF      0.069367
     49 H13        -5.7290    0.0290   -5.0960 ha        1 3BF      0.184000
     50 H14        -7.2360   -0.4080   -6.5210 hn        1 3BF      0.357500
     51 H20       -10.7650   -0.6660  -11.6640 hc        1 3BF      0.085700
     52 H212       -8.6780    1.6270  -11.8190 hc        1 3BF      0.057700
     53 H211       -9.8050    1.0860  -13.1320 hc        1 3BF      0.057700
     54 H213      -10.4760    1.8050  -11.6070 hc        1 3BF      0.057700
     55 H283       -8.8020   -2.1880  -11.6670 hc        1 3BF      0.057700
     56 H281       -8.7840   -1.1340  -13.1410 hc        1 3BF      0.057700
     57 H282       -7.6600   -0.7750  -11.7670 hc        1 3BF      0.057700
     58 H22       -12.8790   -0.1090   -7.5650 hn        1 3BF      0.473300
     59 H232      -14.6980    0.0870   -9.1670 hx        1 3BF      0.120700
     60 H231      -14.3170    1.8650   -9.2900 hx        1 3BF      0.120700
     61 H242      -14.8800    2.1560   -6.8270 hc        1 3BF      0.086200
     62 H241      -15.2500    0.3830   -6.6970 hc        1 3BF      0.086200
     63 H251      -16.6160    2.3640   -8.6860 hx        1 3BF      0.117200
     64 H252      -17.0320    0.5940   -8.4760 hx        1 3BF      0.117200
     65 H291      -19.5900    2.7710   -6.7020 hx        1 3BF      0.115033
     66 H293      -18.5290    3.4750   -8.0240 hx        1 3BF      0.115033
     67 H292      -19.3110    1.8270   -8.2520 hx        1 3BF      0.115033
     68 H273      -18.5880   -0.0510   -6.7580 hx        1 3BF      0.115033
     69 H272      -17.1690    0.2140   -5.6230 hx        1 3BF      0.115033
     70 H271      -18.7820    1.0190   -5.2840 hx        1 3BF      0.115033
     71 H26       -17.2170    2.5550   -6.2460 hn        1 3BF      0.455800
     72 O1'         2.5130    0.1670   -1.1760 o         1 3BF     -0.593100
     73 N8         -4.4130   -0.1350   -2.4950 n         1 3BF     -0.430100
     74 C11        -9.3280   -0.5100   -2.1320 c3        1 3BF      0.016600
     75 H222      -12.5350    1.5080   -7.6700 hn        1 3BF      0.473300
     76 C5         -0.7770    0.2080   -5.0220 c3        1 3BF      0.018600
@<TRIPOS>BOND
     1    1    8 1   
     2    1   10 1   
     3    1   36 1   
     4    2    3 1   
     5    2   10 2   
     6    2   37 1   
     7    3    4 1   
     8    3   76 1   
     9    4    5 1   
    10    4   11 2   
    11    5   12 2   
    12    5   73 1   
    13    6    7 2   
    14    6   14 1   
    15    6   73 1   
    16    7   13 1   
    17    7   39 1   
    18    8    9 1   
    19    8   72 2   
    20    9   43 1   
    21    9   44 1   
    22    9   45 1   
    23   10   11 1   
    24   13   15 1   
    25   13   74 1   
    26   14   15 2   
    27   14   49 1   
    28   15   16 1   
    29   16   17 2   
    30   16   18 1   
    31   18   19 1   
    32   18   50 1   
    33   19   20 1   
    34   19   25 2   
    35   20   21 1   
    36   21   22 1   
    37   21   26 2   
    38   22   23 1   
    39   22   24 1   
    40   22   51 1   
    41   23   52 1   
    42   23   53 1   
    43   23   54 1   
    44   24   55 1   
    45   24   56 1   
    46   24   57 1   
    47   25   26 1   
    48   26   27 1   
    49   27   28 2   
    50   27   29 1   
    51   29   30 1   
    52   29   58 1   
    53   29   75 1   
    54   30   31 1   
    55   30   59 1   
    56   30   60 1   
    57   31   32 1   
    58   31   61 1   
    59   31   62 1   
    60   32   33 1   
    61   32   63 1   
    62   32   64 1   
    63   33   34 1   
    64   33   35 1   
    65   33   71 1   
    66   34   65 1   
    67   34   66 1   
    68   34   67 1   
    69   35   68 1   
    70   35   69 1   
    71   35   70 1   
    72   38   73 1   
    73   40   74 1   
    74   41   74 1   
    75   42   74 1   
    76   46   76 1   
    77   47   76 1   
    78   48   76 1   
@<TRIPOS>SUBSTRUCTURE
     1 3BF         1 TEMP              0 ****  ****    0 ROOT
