@<TRIPOS>MOLECULE
3BH
   34    31     1     0     0
SMALL
bcc


@<TRIPOS>ATOM
      1 O15        -2.3970   -0.8070    1.1720 oh        1 3BH     -0.287000
      2 C8         -0.9090   -0.7980    1.2400 c3        1 3BH      0.010000
      3 C14        -0.4410   -0.7840    2.7130 c3        1 3BH     -0.029000
      4 O19        -1.4880   -0.5290    3.5370 oh        1 3BH     -0.322000
      5 C13         0.5960    0.3430    2.8060 c3        1 3BH     -0.046000
      6 C18         1.8700   -0.1600    3.5110 c3        1 3BH     -0.031000
      7 O20         2.6600    0.9390    3.8920 oh        1 3BH     -0.320000
      8 O7          0.8590    0.6620    1.5760 os        1 3BH     -0.298000
      9 C3         -0.4460    0.2940    0.7310 c3        1 3BH      0.140000
     10 N1         -0.1000    0.0900   -0.6510 n3        1 3BH     -0.195000
     11 C2         -0.7360    0.7220   -1.6840 c1        1 3BH      0.079000
     12 N6         -1.8130    1.5590   -1.7200 n1        1 3BH     -0.205000
     13 C12        -2.2780    2.0230   -2.9190 c1        1 3BH      0.018000
     14 N16        -1.6660    1.6490   -4.0840 n1        1 3BH     -0.261000
     15 C11        -0.6050    0.8250   -4.0520 c1        1 3BH      0.226000
     16 N17        -0.2200    0.6300   -5.4110 n2        1 3BH     -0.320500
     17 C5         -0.1300    0.3520   -2.8350 c1        1 3BH     -0.215000
     18 N9          0.8810   -0.5090   -2.5210 n1        1 3BH     -0.159000
     19 C4          0.8950   -0.6670   -1.1730 c1        1 3BH      0.100000
     20 N10         2.0670   -1.4690   -1.3040 n2        1 3BH     -0.320500
     21 HO15       -2.6870   -1.6490    1.1250 ho        1 3BH      0.223000
     22 H8         -0.5420   -1.5720    0.7740 h1        1 3BH      0.153000
     23 H14        -0.0300   -1.6390    2.9450 h1        1 3BH      0.108000
     24 HO19       -1.5470   -1.1710    4.1500 ho        1 3BH      0.217000
     25 H13         0.2230    1.1070    3.2820 h1        1 3BH      0.126000
     26 H18         2.3790   -0.7320    2.8980 h1        1 3BH      0.092500
     27 H18A        1.6210   -0.6760    4.3080 h1        1 3BH      0.092500
     28 HO20        3.4350    0.6490    4.2150 ho        1 3BH      0.214000
     29 H3         -1.1100    1.0090    0.8100 h2        1 3BH      0.150000
     30 H12        -3.0480    2.6220   -2.9440 ha        1 3BH      0.190000
     31 HN17        0.6320    0.3640   -5.6110 hn        1 3BH      0.217250
     32 HN1A       -0.8300    0.7530   -6.0820 hn        1 3BH      0.217250
     33 HN10        2.4860   -1.7940   -0.5560 hn        1 3BH      0.217250
     34 HN1B        2.4170   -1.6360   -2.1350 hn        1 3BH      0.217250
@<TRIPOS>BOND
     1    1    2 1   
     2    1   21 1   
     3    2    3 1   
     4    2    9 1   
     5    2   22 1   
     6    3    4 1   
     7    3    5 1   
     8    3   23 1   
     9    4   24 1   
    10    5    6 1   
    11    5    8 1   
    12    5   25 1   
    13    6    7 1   
    14    6   26 1   
    15    6   27 1   
    16    7   28 1   
    17    8    9 1   
    18    9   10 1   
    19    9   29 1   
    20   10   11 1   
    21   10   19 1   
    22   11   17 1   
    23   12   13 1   
    24   13   30 1   
    25   14   15 1   
    26   15   17 1   
    27   16   31 1   
    28   16   32 1   
    29   18   19 1   
    30   20   33 1   
    31   20   34 1   
@<TRIPOS>SUBSTRUCTURE
     1 3BH         1 TEMP              0 ****  ****    0 ROOT
