@<TRIPOS>MOLECULE
3BH
   36    38     1     0     0
SMALL
bcc


@<TRIPOS>ATOM
      1 O15        -0.1630    1.4650    0.6840 oh        1 3BH     -0.548800
      2 C8          0.9330    0.7090    0.2670 c3        1 3BH      0.110100
      3 C14         1.6640   -0.0240    1.4210 c3        1 3BH      0.094100
      4 O19         1.2080    0.4780    2.6580 oh        1 3BH     -0.577800
      5 C13         3.1460    0.3690    1.2920 c3        1 3BH      0.090100
      6 C18         4.0030   -0.7820    0.7680 c3        1 3BH      0.107400
      7 O20         5.2410   -0.2850    0.2910 oh        1 3BH     -0.669800
      8 O7          3.2240    1.4860    0.3770 os        1 3BH     -0.440600
      9 C3          2.0190    1.6650   -0.3450 c3        1 3BH      0.195800
     10 N1          2.2640    1.4560   -1.7850 na        1 3BH     -0.224000
     11 C2          1.2630    1.5530   -2.7630 ca        1 3BH      0.470800
     12 N6         -0.0950    1.6590   -2.6410 nb        1 3BH     -0.587000
     13 C12        -0.7480    1.7360   -3.8150 ca        1 3BH      0.710900
     14 N16        -0.2180    1.7180   -5.0900 nb        1 3BH     -0.644000
     15 C11         1.1140    1.6140   -5.2060 ca        1 3BH      0.576200
     16 N17         1.7230    1.5960   -6.5500 n4        1 3BH     -0.826300
     17 C5          1.9550    1.5240   -4.0610 ca        1 3BH     -0.166200
     18 N9          3.3280    1.4230   -3.8750 nc        1 3BH     -0.515100
     19 C4          3.4850    1.3970   -2.5140 cd        1 3BH      0.485700
     20 N10         4.8020    1.2830   -1.8870 n4        1 3BH     -0.765600
     21 HO15        0.0430    1.8840    1.5380 ho        1 3BH      0.445000
     22 H8          0.5250   -0.0180   -0.4860 h1        1 3BH      0.111700
     23 H14         1.5200   -1.1330    1.3450 h1        1 3BH      0.092700
     24 HO19        0.4760   -0.0810    2.9590 ho        1 3BH      0.449000
     25 H13         3.5500    0.7800    2.2620 h1        1 3BH      0.141700
     26 H18         4.1480   -1.5420    1.5820 h1        1 3BH      0.079700
     27 H18A        3.5250   -1.2750   -0.1210 h1        1 3BH      0.079700
     28 HO20        5.8650   -0.2620    1.0290 ho        1 3BH      0.456000
     29 H3          1.7200    2.7550   -0.2240 h2        1 3BH      0.144700
     30 H12        -1.8650    1.8270   -3.7680 h5        1 3BH      0.131100
     31 HN17        2.2610    0.7270   -6.6630 hn        1 3BH      0.491133
     32 HN1A        2.3550    2.4040   -6.6410 hn        1 3BH      0.491133
     33 HN10        5.0730    0.2830   -1.8410 hn        1 3BH      0.505800
     34 HN1B        4.7830    1.6340   -0.9040 hn        1 3BH      0.505800
     35 H173        0.9990    1.6470   -7.2870 hn        1 3BH      0.491133
     36 H103        5.4950    1.8090   -2.4370 hn        1 3BH      0.505800
@<TRIPOS>BOND
     1    1    2 1   
     2    1   21 1   
     3    2    3 1   
     4    2    9 1   
     5    2   22 1   
     6    3    4 1   
     7    3    5 1   
     8    3   23 1   
     9    4   24 1   
    10    5    6 1   
    11    5    8 1   
    12    5   25 1   
    13    6    7 1   
    14    6   26 1   
    15    6   27 1   
    16    7   28 1   
    17    8    9 1   
    18    9   10 1   
    19    9   29 1   
    20   10   11 1   
    21   10   19 1   
    22   11   12 ar  
    23   11   17 ar  
    24   12   13 ar  
    25   13   14 ar  
    26   13   30 1   
    27   14   15 ar  
    28   15   16 1   
    29   15   17 ar  
    30   16   31 1   
    31   16   32 1   
    32   16   35 1   
    33   17   18 1   
    34   18   19 2   
    35   19   20 1   
    36   20   33 1   
    37   20   34 1   
    38   20   36 1   
@<TRIPOS>SUBSTRUCTURE
     1 3BH         1 TEMP              0 ****  ****    0 ROOT
