@<TRIPOS>MOLECULE
3BH
   34    36     1     0     0
SMALL
bcc


@<TRIPOS>ATOM
      1 O15        -0.1630    0.7620    0.5690 oh        1 3BH     -0.602800
      2 C8          1.1210    0.3040    0.2090 c3        1 3BH      0.078100
      3 C14         1.8690   -0.1030    1.4940 c3        1 3BH      0.137100
      4 O19         1.2230    0.2710    2.6930 oh        1 3BH     -0.591800
      5 C13         3.2050    0.6620    1.4450 c3        1 3BH      0.089100
      6 C18         4.4040   -0.2770    1.3330 c3        1 3BH      0.111400
      7 O20         5.5720    0.4040    0.9200 oh        1 3BH     -0.596800
      8 O7          3.1940    1.5600    0.3250 os        1 3BH     -0.418600
      9 C3          1.9670    1.4640   -0.4110 c3        1 3BH      0.237800
     10 N1          2.2130    1.3170   -1.8250 na        1 3BH     -0.305000
     11 C2          1.2790    1.7200   -2.7990 ca        1 3BH      0.440800
     12 N6          0.0110    2.2080   -2.6500 nb        1 3BH     -0.755000
     13 C12        -0.5800    2.4860   -3.8360 ca        1 3BH      0.676900
     14 N16        -0.1080    2.3450   -5.1020 nb        1 3BH     -0.786000
     15 C11         1.1610    1.8330   -5.2550 ca        1 3BH      0.745200
     16 N17         1.6850    1.6080   -6.5030 nh        1 3BH     -0.956500
     17 C5          1.9200    1.5030   -4.0820 ca        1 3BH     -0.189200
     18 N9          3.2100    0.9910   -3.9100 nc        1 3BH     -0.609100
     19 C4          3.3720    0.8700   -2.5560 cd        1 3BH      0.617700
     20 N10         4.4680    0.2730   -1.9210 nh        1 3BH     -0.865800
     21 HO15       -0.6000    1.0590   -0.2420 ho        1 3BH      0.443000
     22 H8          1.0360   -0.5720   -0.4900 h1        1 3BH      0.074700
     23 H14         2.0340   -1.2150    1.5080 h1        1 3BH      0.062700
     24 HO19        0.2690    0.1810    2.5650 ho        1 3BH      0.436000
     25 H13         3.3100    1.3230    2.3520 h1        1 3BH      0.093700
     26 H18         4.2440   -1.0670    0.5500 h1        1 3BH      0.063200
     27 H18A        4.5740   -0.7640    2.3310 h1        1 3BH      0.063200
     28 HO20        5.6430    1.2090    1.4480 ho        1 3BH      0.409000
     29 H3          1.4300    2.4530   -0.2560 h2        1 3BH      0.107700
     30 H12        -1.6120    2.8950   -3.7700 h5        1 3BH      0.051100
     31 HN17        2.6380    1.3530   -6.5730 hn        1 3BH      0.445800
     32 HN1A        1.2070    1.9280   -7.3090 hn        1 3BH      0.445800
     33 HN10        5.2560    0.1690   -2.5270 hn        1 3BH      0.424800
     34 HN1B        4.7030    0.6750   -1.0330 hn        1 3BH      0.424800
@<TRIPOS>BOND
     1    1    2 1   
     2    1   21 1   
     3    2    3 1   
     4    2    9 1   
     5    2   22 1   
     6    3    4 1   
     7    3    5 1   
     8    3   23 1   
     9    4   24 1   
    10    5    6 1   
    11    5    8 1   
    12    5   25 1   
    13    6    7 1   
    14    6   26 1   
    15    6   27 1   
    16    7   28 1   
    17    8    9 1   
    18    9   10 1   
    19    9   29 1   
    20   10   11 1   
    21   10   19 1   
    22   11   12 ar  
    23   11   17 ar  
    24   12   13 ar  
    25   13   14 ar  
    26   13   30 1   
    27   14   15 ar  
    28   15   16 1   
    29   15   17 ar  
    30   16   31 1   
    31   16   32 1   
    32   17   18 1   
    33   18   19 2   
    34   19   20 1   
    35   20   33 1   
    36   20   34 1   
@<TRIPOS>SUBSTRUCTURE
     1 3BH         1 TEMP              0 ****  ****    0 ROOT
