@<TRIPOS>MOLECULE
3BH
   34    36     1     0     0
SMALL
bcc


@<TRIPOS>ATOM
      1 O15        -0.1560    0.7060    0.5720 oh        1 3BH     -0.602800
      2 C8          1.1370    0.2740    0.2090 c3        1 3BH      0.078100
      3 C14         1.8950   -0.1220    1.4920 c3        1 3BH      0.137100
      4 O19         1.2440    0.2370    2.6930 oh        1 3BH     -0.591800
      5 C13         3.2160    0.6680    1.4420 c3        1 3BH      0.090100
      6 C18         4.4320   -0.2470    1.3240 c3        1 3BH      0.111400
      7 O20         5.5860    0.4560    0.9100 oh        1 3BH     -0.596800
      8 O7          3.1850    1.5690    0.3250 os        1 3BH     -0.418600
      9 C3          1.9580    1.4530   -0.4090 c3        1 3BH      0.237800
     10 N1          2.2030    1.3160   -1.8240 na        1 3BH     -0.305000
     11 C2          1.2610    1.7070   -2.7940 ca        1 3BH      0.440800
     12 N6         -0.0150    2.1720   -2.6400 nb        1 3BH     -0.755000
     13 C12        -0.6140    2.4430   -3.8250 ca        1 3BH      0.676900
     14 N16        -0.1420    2.3150   -5.0920 nb        1 3BH     -0.786000
     15 C11         1.1350    1.8270   -5.2500 ca        1 3BH      0.745200
     16 N17         1.6600    1.6150   -6.5000 nv        1 3BH     -0.956500
     17 C5          1.9030    1.5050   -4.0790 ca        1 3BH     -0.189200
     18 N9          3.2020    1.0150   -3.9120 nc        1 3BH     -0.609100
     19 C4          3.3690    0.8920   -2.5590 cd        1 3BH      0.617700
     20 N10         4.4770    0.3130   -1.9290 nv        1 3BH     -0.865800
     21 HO15       -0.6000    0.9980   -0.2370 ho        1 3BH      0.443000
     22 H8          1.0680   -0.6010   -0.4920 h1        1 3BH      0.074700
     23 H14         2.0800   -1.2310    1.5020 h1        1 3BH      0.062700
     24 HO19        0.2910    0.1290    2.5660 ho        1 3BH      0.436000
     25 H13         3.3110    1.3290    2.3510 h1        1 3BH      0.093700
     26 H18         4.6140   -0.7330    2.3210 h1        1 3BH      0.063200
     27 H18A        4.2850   -1.0380    0.5400 h1        1 3BH      0.063200
     28 HO20        5.6420    1.2620    1.4390 ho        1 3BH      0.409000
     29 H3          1.4030    2.4310   -0.2480 h2        1 3BH      0.107700
     30 H12        -1.6530    2.8330   -3.7550 h5        1 3BH      0.051100
     31 HN17        1.1750    1.9300   -7.3030 hn        1 3BH      0.445800
     32 HN1A        2.6180    1.3770   -6.5730 hn        1 3BH      0.445800
     33 HN10        4.7060    0.7160   -1.0400 hn        1 3BH      0.424800
     34 HN1B        5.2650    0.2250   -2.5370 hn        1 3BH      0.424800
@<TRIPOS>BOND
     1    1    2 1   
     2    1   21 1   
     3    2    3 1   
     4    2    9 1   
     5    2   22 1   
     6    3    4 1   
     7    3    5 1   
     8    3   23 1   
     9    4   24 1   
    10    5    6 1   
    11    5    8 1   
    12    5   25 1   
    13    6    7 1   
    14    6   26 1   
    15    6   27 1   
    16    7   28 1   
    17    8    9 1   
    18    9   10 1   
    19    9   29 1   
    20   10   11 1   
    21   10   19 1   
    22   11   12 ar  
    23   11   17 ar  
    24   12   13 ar  
    25   13   14 ar  
    26   13   30 1   
    27   14   15 ar  
    28   15   16 1   
    29   15   17 ar  
    30   16   31 1   
    31   16   32 1   
    32   17   18 1   
    33   18   19 2   
    34   19   20 1   
    35   20   33 1   
    36   20   34 1   
@<TRIPOS>SUBSTRUCTURE
     1 3BH         1 TEMP              0 ****  ****    0 ROOT
