@<TRIPOS>MOLECULE
3BH
   34    36     1     0     0
SMALL
bcc


@<TRIPOS>ATOM
      1 O15        -1.6330    2.7460   -0.1890 oh        1 3BH     -0.585800
      2 C8         -1.5180    1.4200   -0.6590 c3        1 3BH      0.120100
      3 C14        -2.8730    0.6950   -0.7870 c3        1 3BH      0.084100
      4 O19        -3.8930    1.6600   -0.9300 oh        1 3BH     -0.597800
      5 C13        -3.0070   -0.0990    0.5250 c3        1 3BH      0.064100
      6 C18        -3.7060   -1.4470    0.3600 c3        1 3BH      0.116400
      7 O20        -5.1080   -1.2620    0.3540 oh        1 3BH     -0.597800
      8 O7         -1.6860   -0.3260    1.0290 os        1 3BH     -0.425600
      9 C3         -0.7620    0.6410    0.4730 c3        1 3BH      0.257800
     10 N1          0.4250   -0.0370    0.0320 na        1 3BH     -0.284000
     11 C2          1.7440    0.3300    0.3480 ca        1 3BH      0.468800
     12 N6          2.2200    1.3720    1.0920 nb        1 3BH     -0.725000
     13 C12         3.5730    1.3990    1.1440 ca        1 3BH      0.678900
     14 N16         4.4880    0.5670    0.5810 nb        1 3BH     -0.787000
     15 C11         4.0140   -0.4930   -0.1570 ca        1 3BH      0.746200
     16 N17         4.8750   -1.4130   -0.7050 nh        1 3BH     -0.953500
     17 C5          2.5950   -0.6490   -0.3090 ca        1 3BH     -0.208200
     18 N9          1.8240   -1.6040   -0.9830 nc        1 3BH     -0.588100
     19 C4          0.5310   -1.2270   -0.7710 cd        1 3BH      0.577700
     20 N10        -0.6200   -1.8410   -1.3120 nh        1 3BH     -0.851800
     21 HO15       -2.3440    3.1710   -0.6880 ho        1 3BH      0.432000
     22 H8         -0.9680    1.4120   -1.6360 h1        1 3BH      0.079700
     23 H14        -2.8660    0.0060   -1.6750 h1        1 3BH      0.069700
     24 HO19       -4.7320    1.1780   -0.9190 ho        1 3BH      0.428000
     25 H13        -3.5550    0.5250    1.2880 h1        1 3BH      0.071700
     26 H18        -3.4800   -1.9110   -0.6370 h1        1 3BH      0.062200
     27 H18A       -3.3900   -2.1440    1.1810 h1        1 3BH      0.062200
     28 HO20       -5.3760   -1.0380    1.2540 ho        1 3BH      0.407000
     29 H3         -0.4860    1.3490    1.3130 h2        1 3BH      0.134700
     30 H12         4.0080    2.2340    1.7360 h5        1 3BH      0.053100
     31 HN17        5.8490   -1.2380   -0.7030 hn        1 3BH      0.442800
     32 HN1A        4.5070   -2.0670   -1.3510 hn        1 3BH      0.442800
     33 HN10       -1.3270   -1.9750   -0.6140 hn        1 3BH      0.400800
     34 HN1B       -0.3940   -2.6950   -1.7840 hn        1 3BH      0.400800
@<TRIPOS>BOND
     1    1    2 1   
     2    1   21 1   
     3    2    3 1   
     4    2    9 1   
     5    2   22 1   
     6    3    4 1   
     7    3    5 1   
     8    3   23 1   
     9    4   24 1   
    10    5    6 1   
    11    5    8 1   
    12    5   25 1   
    13    6    7 1   
    14    6   26 1   
    15    6   27 1   
    16    7   28 1   
    17    8    9 1   
    18    9   10 1   
    19    9   29 1   
    20   10   11 1   
    21   10   19 1   
    22   11   12 ar  
    23   11   17 ar  
    24   12   13 ar  
    25   13   14 ar  
    26   13   30 1   
    27   14   15 ar  
    28   15   16 1   
    29   15   17 ar  
    30   16   31 1   
    31   16   32 1   
    32   17   18 1   
    33   18   19 2   
    34   19   20 1   
    35   20   33 1   
    36   20   34 1   
@<TRIPOS>SUBSTRUCTURE
     1 3BH         1 TEMP              0 ****  ****    0 ROOT
