@<TRIPOS>MOLECULE
3BI
   71    73     1     0     0
SMALL
bcc


@<TRIPOS>ATOM
      1 N1          6.6220    0.7440   -4.4570 nh        1 3BI     -0.925500
      2 C2          5.3590   -0.4350   -0.6760 ca        1 3BI      0.036000
      3 N3          3.4590    1.1060   -0.9930 nh        1 3BI     -0.869500
      4 C4          6.8870   -2.2420    0.6180 ca        1 3BI      0.332900
      5 N5          7.3570   -1.8630   -0.5560 nb        1 3BI     -0.662000
      6 C6          5.2850   -2.2170    2.5840 c3        1 3BI      0.156500
      7 C7          3.6580   -3.9680    2.1780 c3        1 3BI      0.167100
      8 C9          2.0640    0.4890    3.2910 ca        1 3BI     -0.083500
      9 C11         2.9140   -1.7080    2.6840 ca        1 3BI      0.120600
     10 C12         1.7860   -1.8830    1.8550 ca        1 3BI     -0.173500
     11 C13         0.8390   -0.8710    1.7170 ca        1 3BI     -0.083500
     12 C15        -0.7830    2.8810    0.2200 c3        1 3BI     -0.029300
     13 C16         0.3540    3.6640   -0.5210 c         1 3BI      0.915600
     14 C           6.2410    0.3960   -3.1470 ca        1 3BI      0.921900
     15 O          -0.1590    2.3290    3.0360 o         1 3BI     -0.651100
     16 N           7.0500   -0.5050   -2.4870 nb        1 3BI     -0.815000
     17 O1          0.2190    4.9080   -0.6540 o         1 3BI     -0.863300
     18 O2          1.3660    3.0230   -0.9470 o         1 3BI     -0.863300
     19 O8         -2.9700    0.2610   -2.4800 o         1 3BI     -0.905300
     20 P          -3.1390    0.3070   -1.0230 p5        1 3BI      1.527100
     21 O7         -1.7680   -0.4900   -0.5740 oh        1 3BI     -0.820400
     22 C19        -4.3160   -0.5500   -0.2880 c3        1 3BI     -0.429600
     23 C20        -5.6990   -0.2390   -0.8440 c3        1 3BI     -0.160700
     24 C24        -6.3830    0.8750   -0.0010 c         1 3BI      0.902600
     25 O6         -6.9590    0.5840    1.0830 o         1 3BI     -0.856800
     26 O5         -6.2980    2.0640   -0.4400 o         1 3BI     -0.856800
     27 C21        -6.5920   -1.4730   -0.8820 c3        1 3BI     -0.039400
     28 C22        -6.2490   -2.4350   -1.9980 c3        1 3BI     -0.181400
     29 C23        -7.1160   -3.6990   -1.9810 c         1 3BI      0.906600
     30 O4         -8.1550   -3.7450   -2.7090 o         1 3BI     -0.880800
     31 O3         -6.7490   -4.6900   -1.2770 o         1 3BI     -0.880800
     32 C17        -1.9010    2.6020   -0.8030 c3        1 3BI     -0.042400
     33 N7         -0.2850    1.6600    0.8180 n         1 3BI     -0.494900
     34 C8          1.0050    0.3420    2.3900 ca        1 3BI     -0.142600
     35 C10         3.0060   -0.5210    3.4470 ca        1 3BI     -0.173500
     36 N6          3.9370   -2.6990    2.8080 nh        1 3BI     -0.628000
     37 C3          5.6630   -1.7460    1.1960 ca        1 3BI      0.188300
     38 N4          4.9160   -0.8540    0.5430 nb        1 3BI     -0.557000
     39 C5          6.5950   -0.9260   -1.2660 ca        1 3BI      0.621000
     40 C1          4.6010    0.5700   -1.4620 ca        1 3BI      0.713900
     41 N2          5.0740    0.9690   -2.6850 nb        1 3BI     -0.850000
     42 HN1         7.5860    0.6310   -4.6680 hn        1 3BI      0.412800
     43 HN1A        6.1960    1.5630   -4.8260 hn        1 3BI      0.412800
     44 HN3         3.1060    0.8510   -0.0990 hn        1 3BI      0.495300
     45 HN3A        2.9420    1.8150   -1.4930 hn        1 3BI      0.495300
     46 H4          7.4930   -2.9850    1.1670 h4        1 3BI      0.010100
     47 H6          5.4680   -1.3590    3.2940 h1        1 3BI      0.050700
     48 H6A         5.9880   -3.0550    2.8650 h1        1 3BI      0.050700
     49 H7          2.6630   -4.3410    2.5370 h1        1 3BI      0.033367
     50 H7A         3.6440   -3.9190    1.0550 h1        1 3BI      0.033367
     51 H9          2.1490    1.4250    3.8650 ha        1 3BI      0.167000
     52 H12         1.6430   -2.8090    1.2790 ha        1 3BI      0.123500
     53 H13        -0.0360   -1.0310    1.0560 ha        1 3BI      0.167000
     54 H15        -1.1860    3.5380    1.0410 h1        1 3BI      0.079700
     55 H19        -4.1360   -1.6550   -0.4040 hc        1 3BI      0.105200
     56 H19A       -4.3660   -0.3910    0.8230 hc        1 3BI      0.105200
     57 H20        -5.5720    0.1500   -1.8930 hc        1 3BI      0.041700
     58 H21        -6.5310   -1.9980    0.1060 hc        1 3BI      0.043700
     59 H21A       -7.6540   -1.1340   -1.0060 hc        1 3BI      0.043700
     60 H22        -6.3820   -1.9230   -2.9860 hc        1 3BI      0.016200
     61 H22A       -5.1760   -2.7480   -1.9170 hc        1 3BI      0.016200
     62 H18        -4.0260    2.3330   -0.4520 hc        1 3BI      0.131200
     63 H18A       -2.9880    1.6910    0.8270 hc        1 3BI      0.131200
     64 H17        -2.2560    3.6150   -1.1340 hc        1 3BI      0.056200
     65 H17A       -1.4570    2.0950   -1.7040 hc        1 3BI      0.056200
     66 HN7         0.0850    1.0160    0.1510 hn        1 3BI      0.310500
     67 H10         3.8320   -0.3740    4.1560 ha        1 3BI      0.123500
     68 H28        -1.2340   -0.7270   -1.3260 ho        1 3BI      0.442000
     69 H7B         4.4490   -4.7010    2.4890 h1        1 3BI      0.033367
     70 C14         0.1360    1.5350    2.1130 c         1 3BI      0.665700
     71 C18        -3.0530    1.7730   -0.2890 c3        1 3BI     -0.446600
@<TRIPOS>BOND
     1    1   14 1   
     2    1   42 1   
     3    1   43 1   
     4    2   38 ar  
     5    2   39 ar  
     6    2   40 ar  
     7    3   40 1   
     8    3   44 1   
     9    3   45 1   
    10    4    5 ar  
    11    4   37 ar  
    12    4   46 1   
    13    5   39 ar  
    14    6   36 1   
    15    6   37 1   
    16    6   47 1   
    17    6   48 1   
    18    7   36 1   
    19    7   49 1   
    20    7   50 1   
    21    7   69 1   
    22    8   34 ar  
    23    8   35 ar  
    24    8   51 1   
    25    9   10 ar  
    26    9   35 ar  
    27    9   36 1   
    28   10   11 ar  
    29   10   52 1   
    30   11   34 ar  
    31   11   53 1   
    32   12   13 1   
    33   12   32 1   
    34   12   33 1   
    35   12   54 1   
    36   13   17 1   
    37   13   18 1   
    38   14   16 ar  
    39   14   41 ar  
    40   15   70 2   
    41   16   39 ar  
    42   19   20 2   
    43   20   21 1   
    44   20   22 1   
    45   20   71 1   
    46   21   68 1   
    47   22   23 1   
    48   22   55 1   
    49   22   56 1   
    50   23   24 1   
    51   23   27 1   
    52   23   57 1   
    53   24   25 1   
    54   24   26 1   
    55   27   28 1   
    56   27   58 1   
    57   27   59 1   
    58   28   29 1   
    59   28   60 1   
    60   28   61 1   
    61   29   30 1   
    62   29   31 1   
    63   32   64 1   
    64   32   65 1   
    65   32   71 1   
    66   33   66 1   
    67   33   70 1   
    68   34   70 1   
    69   35   67 1   
    70   37   38 ar  
    71   40   41 ar  
    72   62   71 1   
    73   63   71 1   
@<TRIPOS>SUBSTRUCTURE
     1 3BI         1 TEMP              0 ****  ****    0 ROOT
