@<TRIPOS>MOLECULE
3BI
   71    65     1     0     0
SMALL
bcc


@<TRIPOS>ATOM
      1 N1         -2.7170   -2.7380  -10.1650 n3        1 3BI     -0.317000
      2 C2         -1.0390    0.5640   -8.2760 c1        1 3BI     -0.229000
      3 N3          0.6600    0.2310  -10.2910 n3        1 3BI     -0.264000
      4 C4         -2.1300    1.4150   -5.9340 c1        1 3BI     -0.062000
      5 N5         -2.7050    0.4060   -6.6100 n1        1 3BI     -0.137000
      6 C6         -0.3540    3.0180   -5.4850 c3        1 3BI      0.016000
      7 C7          1.7270    1.5920   -5.5100 c3        1 3BI     -0.104000
      8 C9          0.3550    3.6810   -1.3030 c1        1 3BI     -0.119000
      9 C11         0.8020    2.4800   -3.3400 c1        1 3BI      0.038000
     10 C12         1.3800    1.4530   -2.6050 c1        1 3BI     -0.197000
     11 C13         1.4440    1.5400   -1.2180 c1        1 3BI     -0.081000
     12 C14         1.0830    2.7840    0.9430 c1        1 3BI      0.328000
     13 C15         1.3580    1.6000    3.0940 c3        1 3BI     -0.074000
     14 C16        -0.1180    1.6410    3.3100 c2        1 3BI      0.324000
     15 C          -2.1680   -1.5240   -9.6330 c2        1 3BI      0.207000
     16 O           0.6950    3.7960    1.5080 o         1 3BI     -0.368000
     17 N          -2.7300   -1.0730   -8.4650 n2        1 3BI     -0.286000
     18 O1         -0.6010    2.3760    4.2080 o         1 3BI     -0.593000
     19 O2         -0.8850    1.0100    2.5340 o         1 3BI     -0.593000
     20 O8          1.0740   -2.2580    4.7310 o         1 3BI     -1.159000
     21 P           1.5960   -1.3930    5.8210 p3        1 3BI      2.837000
     22 O7          2.9740   -1.9890    6.3600 o         1 3BI     -0.846000
     23 C19         0.3550   -1.3300    7.2110 c3        1 3BI     -0.954000
     24 C20        -0.3440   -2.6880    7.3370 c3        1 3BI     -0.152000
     25 C24        -1.2820   -2.8700    6.1950 c2        1 3BI      0.341000
     26 O6         -1.1920   -3.8850    5.4670 o         1 3BI     -0.593500
     27 O5         -2.2230   -2.0420    6.0130 o         1 3BI     -0.593500
     28 C21        -1.1210   -2.7390    8.6440 c3        1 3BI     -0.133000
     29 C22        -1.3700   -4.2100    9.0390 c3        1 3BI     -0.210000
     30 C23        -2.4040   -4.2670   10.1710 c2        1 3BI      0.321000
     31 O4         -3.6380   -4.2260    9.9010 o         1 3BI     -0.614500
     32 O3         -2.0250   -4.4530   11.3630 o         1 3BI     -0.614500
     33 C18         1.8770    0.3040    5.1780 c3        1 3BI     -0.896000
     34 C17         1.9200    0.2760    3.6450 c3        1 3BI     -0.123000
     35 N7          1.6330    1.6940    1.7120 n2        1 3BI     -0.289000
     36 C8          0.9330    2.6510   -0.5680 c1        1 3BI     -0.138000
     37 C10         0.2900    3.5940   -2.6900 c1        1 3BI     -0.119000
     38 N6          0.7340    2.3890   -4.7760 n3        1 3BI     -0.234000
     39 C3         -0.9870    2.0170   -6.4300 c1        1 3BI     -0.178000
     40 N4         -0.4520    1.5930   -7.5870 n1        1 3BI     -0.031000
     41 C5         -2.1610   -0.0270   -7.7890 c1        1 3BI      0.101000
     42 C1         -0.4720    0.1060   -9.4580 c2        1 3BI      0.257000
     43 N2         -1.0380   -0.9290  -10.1240 n2        1 3BI     -0.319000
     44 HN1        -2.3920   -3.0830  -10.9520 hn        1 3BI      0.212500
     45 HN1A       -3.4200   -3.1510   -9.7380 hn        1 3BI      0.212500
     46 HN3         1.4280    0.6050   -9.9650 hn        1 3BI      0.285000
     47 HN3A        0.6460   -0.1190  -11.1340 hn        1 3BI      0.285000
     48 H4         -2.5140    1.7180   -5.0800 ha        1 3BI      0.145000
     49 H6         -0.0110    3.7840   -6.0000 h1        1 3BI      0.092500
     50 H6A        -1.0290    3.3310   -4.8400 h1        1 3BI      0.092500
     51 H7          1.6920    1.8240   -6.4720 h1        1 3BI      0.067667
     52 H7A         1.5290    0.6340   -5.3950 h1        1 3BI      0.067667
     53 H9         -0.0010    4.4560   -0.8500 ha        1 3BI      0.166500
     54 H12         1.7390    0.6720   -3.0610 ha        1 3BI      0.115000
     55 H13         1.8520    0.8130   -0.6990 ha        1 3BI      0.135000
     56 H15         1.7830    2.3610    3.5680 h1        1 3BI      0.117000
     57 H19        -0.3100   -0.6380    7.0230 hc        1 3BI      0.154500
     58 H19A        0.8150   -1.1200    8.0500 hc        1 3BI      0.154500
     59 H20         0.3310   -3.4080    7.3260 hc        1 3BI      0.075000
     60 H21        -0.6080   -2.2990    9.3440 hc        1 3BI      0.077000
     61 H21A       -1.9820   -2.2800    8.5310 hc        1 3BI      0.077000
     62 H22        -0.5250   -4.6170    9.3440 hc        1 3BI      0.066500
     63 H22A       -1.7080   -4.7020    8.2650 hc        1 3BI      0.066500
     64 H18         2.7230    0.6440    5.5200 hc        1 3BI      0.145000
     65 H18A        1.1550    0.8830    5.4690 hc        1 3BI      0.145000
     66 H17         2.8520    0.1640    3.3450 hc        1 3BI      0.096500
     67 H17A        1.3790   -0.4710    3.3170 hc        1 3BI      0.096500
     68 HN7         2.2220    1.1120    1.3230 hn        1 3BI      0.195000
     69 H10        -0.1200    4.3260   -3.2120 ha        1 3BI      0.166500
     70 H28         3.1090   -2.7950    6.0020 ho        1 3BI      0.274000
     71 H7B         2.6310    1.7850   -5.1570 h1        1 3BI      0.067667
@<TRIPOS>BOND
     1    1   15 1   
     2    1   44 1   
     3    1   45 1   
     4    2   41 1   
     5    2   42 1   
     6    3   42 1   
     7    3   46 1   
     8    3   47 1   
     9    4    5 1   
    10    4   48 1   
    11    6   38 1   
    12    6   39 1   
    13    6   49 1   
    14    6   50 1   
    15    7   38 1   
    16    7   51 1   
    17    7   52 1   
    18    7   71 1   
    19    8   37 1   
    20    8   53 1   
    21    9   10 1   
    22    9   38 1   
    23   10   54 1   
    24   11   36 1   
    25   11   55 1   
    26   12   16 1   
    27   12   36 1   
    28   13   14 1   
    29   13   34 1   
    30   13   35 1   
    31   13   56 1   
    32   14   18 1   
    33   14   19 1   
    34   15   17 1   
    35   15   43 1   
    36   17   41 1   
    37   20   21 1   
    38   21   23 1   
    39   21   33 1   
    40   22   70 1   
    41   23   24 1   
    42   23   57 1   
    43   23   58 1   
    44   24   25 1   
    45   24   28 1   
    46   24   59 1   
    47   25   26 1   
    48   25   27 1   
    49   28   29 1   
    50   28   60 1   
    51   28   61 1   
    52   29   30 1   
    53   29   62 1   
    54   29   63 1   
    55   30   31 1   
    56   30   32 1   
    57   33   34 1   
    58   33   64 1   
    59   33   65 1   
    60   34   66 1   
    61   34   67 1   
    62   35   68 1   
    63   37   69 1   
    64   39   40 1   
    65   42   43 1   
@<TRIPOS>SUBSTRUCTURE
     1 3BI         1 TEMP              0 ****  ****    0 ROOT
