@<TRIPOS>MOLECULE
3BJ
   52    54     1     0     0
SMALL
bcc


@<TRIPOS>ATOM
      1 C1          0.0090   -0.0150   -0.2630 c2        1 3BJ      0.026000
      2 C3          0.4670   -0.1930    2.1460 c2        1 3BJ     -0.147000
      3 C4          1.5820   -0.8890    1.8380 c2        1 3BJ     -0.144000
      4 C5          2.1660   -0.7600    0.4870 c2        1 3BJ     -0.059000
      5 C6          1.2600   -0.4330   -0.4250 c1        1 3BJ     -0.237000
      6 N7         -1.2180   -0.1630   -0.9150 n7        1 3BJ     -0.251000
      7 C8         -2.2120    0.2120    0.0520 c2        1 3BJ      0.039000
      8 C12        -5.3380   -1.5060   -1.1240 c2        1 3BJ      0.210000
      9 C14        -6.9770   -3.0910   -1.6490 c2        1 3BJ      0.230000
     10 C16        -7.2110   -0.8700   -2.3520 c2        1 3BJ      0.223000
     11 C19        -6.6500   -5.4360   -1.0050 c3        1 3BJ     -0.075000
     12 C10        -3.6790    0.1330   -0.3230 c3        1 3BJ      0.015000
     13 C20        -8.0050   -7.2250   -3.2500 c1        1 3BJ     -0.082000
     14 C22        -8.6270   -4.9990   -3.6920 c3        1 3BJ     -0.048000
     15 C23        -8.7180   -4.7590   -2.1860 c3        1 3BJ     -0.040000
     16 C25        -7.5190    1.3620   -3.3620 c2        1 3BJ      0.092000
     17 C26        -6.9260    2.2490   -2.5190 c2        1 3BJ     -0.168000
     18 C27        -6.4680    3.5310   -3.0360 c2        1 3BJ     -0.141000
     19 C28        -7.3040    4.5590   -3.2820 c2        1 3BJ     -0.094000
     20 C30        -7.7370    1.8100   -4.7530 c2        1 3BJ     -0.374000
     21 C29        -7.5430    3.0810   -5.1420 c1        1 3BJ      0.206000
     22 Cl1        -6.7700    6.0690   -3.8140 cl        1 3BJ      0.006000
     23 N24        -8.0190    0.1080   -2.9680 nu        1 3BJ     -0.229000
     24 N17        -6.0270   -0.4820   -1.7520 n2        1 3BJ     -0.317000
     25 N13        -5.7720   -2.8140   -1.0140 n2        1 3BJ     -0.319000
     26 N18        -7.4900   -4.3870   -1.5270 nh        1 3BJ     -0.248000
     27 O21        -7.8710   -6.1900   -4.0400 os        1 3BJ     -0.179000
     28 N15        -7.7170   -2.1570   -2.3640 n2        1 3BJ     -0.336000
     29 N11        -4.0580   -1.2340   -0.5990 nu        1 3BJ     -0.281000
     30 C2         -0.2720    0.6490    1.1230 c3        1 3BJ     -0.024000
     31 N9         -1.7450    0.6740    1.1960 n2        1 3BJ     -0.176000
     32 H1          0.0990    1.7090    1.2120 h1        1 3BJ      0.148000
     33 H2          0.0670   -0.1440    3.1680 ha        1 3BJ      0.151000
     34 H3          2.1320   -1.4750    2.5860 ha        1 3BJ      0.141000
     35 H4          3.2470   -0.8470    0.3470 ha        1 3BJ      0.154000
     36 H5         -1.3840   -0.8910   -1.5680 hn        1 3BJ      0.252000
     37 H6         -5.6590   -5.4690   -1.5340 h1        1 3BJ      0.094333
     38 H7         -7.1620   -6.4280   -1.1400 h1        1 3BJ      0.094333
     39 H8         -4.2990    0.5760    0.5110 h1        1 3BJ      0.127000
     40 H9         -3.8330    0.7630   -1.2480 h1        1 3BJ      0.127000
     41 H10        -6.4660   -5.2600    0.0890 h1        1 3BJ      0.094333
     42 H11        -7.3750   -8.0510   -3.6700 ha        1 3BJ      0.043000
     43 H12        -8.0820   -4.1840   -4.2360 h1        1 3BJ      0.115000
     44 H13        -9.6570   -5.1320   -4.1110 h1        1 3BJ      0.115000
     45 H14        -9.4910   -3.9540   -2.0190 h1        1 3BJ      0.128500
     46 H15        -9.0910   -5.7100   -1.7000 h1        1 3BJ      0.128500
     47 H16        -6.7290    2.0420   -1.4580 ha        1 3BJ      0.176000
     48 H17        -5.3770    3.6170   -3.1920 ha        1 3BJ      0.162000
     49 H18        -8.3900    4.5210   -3.1090 h4        1 3BJ      0.165000
     50 H19        -8.7550   -0.2540   -3.5450 hn        1 3BJ      0.249000
     51 H20        -3.7330   -1.9030    0.0710 hn        1 3BJ      0.231000
     52 Cl2        -8.2270    0.6830   -5.9330 cl        1 3BJ      0.025000
@<TRIPOS>BOND
     1    1    5 1   
     2    1    6 1   
     3    1   30 1   
     4    2    3 1   
     5    2   30 1   
     6    2   33 1   
     7    3    4 1   
     8    3   34 1   
     9    4    5 1   
    10    4   35 1   
    11    6    7 1   
    12    6   36 1   
    13    7   12 1   
    14    7   31 1   
    15    8   24 1   
    16    8   25 1   
    17    8   29 1   
    18    9   25 1   
    19    9   26 1   
    20    9   28 1   
    21   10   23 1   
    22   10   24 1   
    23   10   28 1   
    24   11   26 1   
    25   11   37 1   
    26   11   38 1   
    27   11   41 1   
    28   12   29 1   
    29   12   39 1   
    30   12   40 1   
    31   13   27 1   
    32   13   42 1   
    33   14   15 1   
    34   14   27 1   
    35   14   43 1   
    36   14   44 1   
    37   15   26 1   
    38   15   45 1   
    39   15   46 1   
    40   16   17 1   
    41   16   20 1   
    42   16   23 1   
    43   17   18 1   
    44   17   47 1   
    45   18   19 1   
    46   18   48 1   
    47   19   22 1   
    48   19   49 1   
    49   20   21 1   
    50   20   52 1   
    51   23   50 1   
    52   29   51 1   
    53   30   31 1   
    54   30   32 1   
@<TRIPOS>SUBSTRUCTURE
     1 3BJ         1 TEMP              0 ****  ****    0 ROOT
