@<TRIPOS>MOLECULE
3BJ
   52    56     1     0     0
SMALL
bcc


@<TRIPOS>ATOM
      1 C1         -0.0850   -0.3720    0.1560 ca        1 3BJ     -0.070200
      2 C3          0.3970    0.4400    2.4350 ca        1 3BJ     -0.066000
      3 C4          1.7320    0.1730    2.1780 ca        1 3BJ     -0.154000
      4 C5          2.1610   -0.3540    0.9450 ca        1 3BJ     -0.109000
      5 C6          1.2710   -0.6340   -0.0800 ca        1 3BJ     -0.135000
      6 N7         -1.2300   -0.5250   -0.6260 na        1 3BJ     -0.271300
      7 C8         -2.3160   -0.0870    0.1650 cc        1 3BJ      0.385800
      8 C12        -5.3680   -1.5380   -1.4740 ca        1 3BJ      0.927900
      9 C14        -6.9890   -3.0000   -2.3210 ca        1 3BJ      0.937900
     10 C16        -7.2160   -0.6860   -2.6040 ca        1 3BJ      0.938900
     11 C19        -6.8620   -5.3960   -1.8100 c3        1 3BJ      0.166800
     12 C10        -3.7260   -0.0710   -0.3700 c3        1 3BJ      0.187500
     13 C20        -7.2420   -6.7850   -2.3380 c3        1 3BJ      0.117400
     14 C22        -9.1010   -5.9270   -3.4900 c3        1 3BJ      0.117400
     15 C23        -8.8030   -4.5000   -3.0140 c3        1 3BJ      0.166800
     16 C25        -7.5090    1.7010   -3.1540 ca        1 3BJ      0.145600
     17 C26        -7.0390    2.3940   -2.0180 ca        1 3BJ     -0.094000
     18 C27        -6.6070    3.7120   -2.1160 ca        1 3BJ     -0.115000
     19 C28        -6.6460    4.3730   -3.3470 ca        1 3BJ      0.013400
     20 C30        -7.5370    2.3910   -4.3920 ca        1 3BJ     -0.013600
     21 C29        -7.1150    3.7180   -4.4860 ca        1 3BJ     -0.107000
     22 CL1        -6.1210    5.9840   -3.4610 cl        1 3BJ     -0.081400
     23 N24        -8.0150    0.3890   -3.0460 nh        1 3BJ     -0.713300
     24 N17        -6.0350   -0.4170   -1.9390 nb        1 3BJ     -0.840000
     25 N13        -5.8170   -2.8420   -1.5980 nb        1 3BJ     -0.847000
     26 N18        -7.4160   -4.3160   -2.6140 nh        1 3BJ     -0.725300
     27 O21        -8.6390   -6.9050   -2.5680 os        1 3BJ     -0.409600
     28 N15        -7.7340   -1.9480   -2.8360 nb        1 3BJ     -0.845000
     29 N11        -4.1040   -1.3710   -0.8790 nh        1 3BJ     -0.836900
     30 C2         -0.5400    0.1700    1.4270 ca        1 3BJ      0.060400
     31 N9         -1.9390    0.3290    1.3920 nd        1 3BJ     -0.554100
     32 H1          0.0690    0.8510    3.4010 ha        1 3BJ      0.148000
     33 H2          2.4830    0.3760    2.9560 ha        1 3BJ      0.134000
     34 H3          3.2340   -0.5460    0.7950 ha        1 3BJ      0.133000
     35 H4          1.6130   -1.0440   -1.0390 ha        1 3BJ      0.137000
     36 H5         -1.2810   -0.8800   -1.5430 hn        1 3BJ      0.314700
     37 H6         -5.7370   -5.3280   -1.8220 h1        1 3BJ      0.065200
     38 H7         -7.2120   -5.3050   -0.7420 h1        1 3BJ      0.065200
     39 H8         -3.7730    0.6830   -1.2110 h1        1 3BJ      0.085200
     40 H9         -4.4240    0.2760    0.4480 h1        1 3BJ      0.085200
     41 H10        -7.0170   -7.5590   -1.5570 h1        1 3BJ      0.059200
     42 H11        -6.6830   -7.0170   -3.2830 h1        1 3BJ      0.059200
     43 H12       -10.2110   -6.0840   -3.5360 h1        1 3BJ      0.059200
     44 H13        -8.6430   -6.1130   -4.4980 h1        1 3BJ      0.059200
     45 H14        -9.0380   -3.8040   -3.8690 h1        1 3BJ      0.065200
     46 H15        -9.4920   -4.2520   -2.1560 h1        1 3BJ      0.065200
     47 H16        -7.0100    1.8920   -1.0380 ha        1 3BJ      0.163000
     48 H17        -6.2390    4.2320   -1.2180 ha        1 3BJ      0.155000
     49 H18        -7.1480    4.2390   -5.4570 ha        1 3BJ      0.164000
     50 H19        -8.7160    0.1470   -3.7200 hn        1 3BJ      0.454800
     51 H20        -3.7920   -2.1470   -0.3310 hn        1 3BJ      0.437800
     52 CL2        -8.0990    1.6210   -5.8030 cl        1 3BJ     -0.085400
@<TRIPOS>BOND
     1    1    5 ar  
     2    1    6 1   
     3    1   30 ar  
     4    2    3 ar  
     5    2   30 ar  
     6    2   32 1   
     7    3    4 ar  
     8    3   33 1   
     9    4    5 ar  
    10    4   34 1   
    11    5   35 1   
    12    6    7 1   
    13    6   36 1   
    14    7   12 1   
    15    7   31 2   
    16    8   24 ar  
    17    8   25 ar  
    18    8   29 1   
    19    9   25 ar  
    20    9   26 1   
    21    9   28 ar  
    22   10   23 1   
    23   10   24 ar  
    24   10   28 ar  
    25   11   13 1   
    26   11   26 1   
    27   11   37 1   
    28   11   38 1   
    29   12   29 1   
    30   12   39 1   
    31   12   40 1   
    32   13   27 1   
    33   13   41 1   
    34   13   42 1   
    35   14   15 1   
    36   14   27 1   
    37   14   43 1   
    38   14   44 1   
    39   15   26 1   
    40   15   45 1   
    41   15   46 1   
    42   16   17 ar  
    43   16   20 ar  
    44   16   23 1   
    45   17   18 ar  
    46   17   47 1   
    47   18   19 ar  
    48   18   48 1   
    49   19   21 ar  
    50   19   22 1   
    51   20   21 ar  
    52   20   52 1   
    53   21   49 1   
    54   23   50 1   
    55   29   51 1   
    56   30   31 1   
@<TRIPOS>SUBSTRUCTURE
     1 3BJ         1 TEMP              0 ****  ****    0 ROOT
