@<TRIPOS>MOLECULE
3BK
   47    50     1     0     0
SMALL
bcc


@<TRIPOS>ATOM
      1 C18        -0.0530    0.0440   -0.3900 ca        1 3BK     -0.107000
      2 C19         1.3340    0.2240   -0.4050 ca        1 3BK      0.014400
      3 CL28        2.1110    0.4990   -1.8870 cl        1 3BK     -0.065400
      4 C20         2.0590    0.1740    0.7960 ca        1 3BK      0.023400
      5 CL29        3.7410    0.3850    0.8140 cl        1 3BK     -0.064400
      6 C21         1.3880   -0.0550    2.0030 ca        1 3BK     -0.121000
      7 C22         0.0070   -0.2290    2.0120 ca        1 3BK     -0.100000
      8 C17        -0.7180   -0.1800    0.8170 ca        1 3BK     -0.099300
      9 C16        -2.2120   -0.3260    0.8280 c3        1 3BK      0.230100
     10 N15        -2.6290   -1.5810    1.4350 nh        1 3BK     -0.766200
     11 C6         -4.0190   -1.8350    1.4200 cc        1 3BK      0.590700
     12 N7         -5.0010   -0.9860    1.0100 nd        1 3BK     -0.586100
     13 C8         -6.1980   -1.6720    1.2500 ca        1 3BK     -0.209200
     14 C4         -7.5690   -1.3050    1.0260 ca        1 3BK      0.756200
     15 N27        -7.8800   -0.0830    0.4940 nh        1 3BK     -0.959500
     16 N1         -8.5560   -2.2120    1.3410 nb        1 3BK     -0.787000
     17 C2         -8.1660   -3.4110    1.8420 ca        1 3BK      0.683900
     18 N3         -6.9250   -3.8850    2.1060 nb        1 3BK     -0.756000
     19 C9         -5.9370   -2.9880    1.8100 ca        1 3BK      0.460800
     20 N5         -4.5420   -3.0660    1.9800 na        1 3BK     -0.288000
     21 C10        -3.7120   -4.1990    2.3050 c3        1 3BK      0.247800
     22 O11        -3.2350   -4.8350    1.1070 os        1 3BK     -0.440600
     23 C12        -3.8860   -6.0970    0.8950 c3        1 3BK      0.063100
     24 C23        -4.8570   -5.9810   -0.2780 c3        1 3BK      0.117400
     25 O26        -4.1700   -5.7000   -1.4790 oh        1 3BK     -0.591800
     26 C13        -4.5910   -6.4970    2.2040 c3        1 3BK      0.095100
     27 O25        -4.0690   -7.6850    2.7540 oh        1 3BK     -0.587800
     28 C14        -4.3850   -5.3040    3.1670 c3        1 3BK      0.089100
     29 O24        -3.4320   -5.6350    4.1660 oh        1 3BK     -0.601800
     30 H18        -0.6180    0.0830   -1.3360 ha        1 3BK      0.154000
     31 H21         1.9550   -0.0950    2.9460 ha        1 3BK      0.155000
     32 H22        -0.5180   -0.4040    2.9650 ha        1 3BK      0.154000
     33 H16        -2.6070   -0.2200   -0.2260 h1        1 3BK      0.066200
     34 H16A       -2.6550    0.5120    1.4420 h1        1 3BK      0.066200
     35 HN15       -2.1010   -2.3700    1.1090 hn        1 3BK      0.411800
     36 HN27       -7.1530    0.5670    0.3280 hn        1 3BK      0.449800
     37 HN2A       -8.8240    0.1920    0.3790 hn        1 3BK      0.449800
     38 H2         -8.9990   -4.1110    2.0720 h5        1 3BK      0.052100
     39 H10        -2.7820   -3.8160    2.8290 h2        1 3BK      0.123700
     40 H12        -3.0560   -6.8120    0.6360 h1        1 3BK      0.092700
     41 H23        -5.3630   -6.9680   -0.4560 h1        1 3BK      0.060700
     42 H23A       -5.6230   -5.1880   -0.0720 h1        1 3BK      0.060700
     43 HO26       -3.6740   -4.8840   -1.3360 ho        1 3BK      0.408000
     44 H13        -5.6830   -6.7060    2.0430 h1        1 3BK      0.112700
     45 HO25       -3.1200   -7.5520    2.8940 ho        1 3BK      0.415000
     46 H14        -5.3420   -4.9830    3.6520 h1        1 3BK      0.102700
     47 HO24       -3.8470   -6.3030    4.7280 ho        1 3BK      0.425000
@<TRIPOS>BOND
     1    1    2 ar  
     2    1    8 ar  
     3    1   30 1   
     4    2    3 1   
     5    2    4 ar  
     6    4    5 1   
     7    4    6 ar  
     8    6    7 ar  
     9    6   31 1   
    10    7    8 ar  
    11    7   32 1   
    12    8    9 1   
    13    9   10 1   
    14    9   33 1   
    15    9   34 1   
    16   10   11 1   
    17   10   35 1   
    18   11   12 2   
    19   11   20 1   
    20   12   13 1   
    21   13   14 ar  
    22   13   19 ar  
    23   14   15 1   
    24   14   16 ar  
    25   15   36 1   
    26   15   37 1   
    27   16   17 ar  
    28   17   18 ar  
    29   17   38 1   
    30   18   19 ar  
    31   19   20 1   
    32   20   21 1   
    33   21   22 1   
    34   21   28 1   
    35   21   39 1   
    36   22   23 1   
    37   23   24 1   
    38   23   26 1   
    39   23   40 1   
    40   24   25 1   
    41   24   41 1   
    42   24   42 1   
    43   25   43 1   
    44   26   27 1   
    45   26   28 1   
    46   26   44 1   
    47   27   45 1   
    48   28   29 1   
    49   28   46 1   
    50   29   47 1   
@<TRIPOS>SUBSTRUCTURE
     1 3BK         1 TEMP              0 ****  ****    0 ROOT
