@<TRIPOS>MOLECULE
3BK
   47    50     1     0     0
SMALL
bcc


@<TRIPOS>ATOM
      1 C18        -3.3820   -0.2120   -0.7670 ca        1 3BK     -0.098000
      2 C19        -4.7080    0.2320   -0.7300 ca        1 3BK      0.013400
      3 CL28       -5.2080    1.4190   -1.8320 cl        1 3BK     -0.062400
      4 C20        -5.6000   -0.3060    0.2100 ca        1 3BK      0.023400
      5 CL29       -7.2140    0.2070    0.2820 cl        1 3BK     -0.064400
      6 C21        -5.1570   -1.2850    1.1070 ca        1 3BK     -0.120000
      7 C22        -3.8350   -1.7200    1.0700 ca        1 3BK     -0.111000
      8 C17        -2.9440   -1.1880    0.1320 ca        1 3BK     -0.102300
      9 C16        -1.5340   -1.6960    0.0700 c3        1 3BK      0.230100
     10 N15        -0.5570   -0.6220    0.1680 nh        1 3BK     -0.761200
     11 C6          0.7880   -1.0240    0.2960 cc        1 3BK      0.601700
     12 N7          1.2750   -2.2620   -0.0020 nd        1 3BK     -0.592100
     13 C8          2.6630   -2.1560    0.1560 ca        1 3BK     -0.201200
     14 C4          3.7170   -3.1140   -0.0140 ca        1 3BK      0.744200
     15 N27         3.4270   -4.4160   -0.3390 nh        1 3BK     -0.951500
     16 N1          5.0170   -2.7100    0.1970 nb        1 3BK     -0.782000
     17 C2          5.2180   -1.4230    0.5750 ca        1 3BK      0.677900
     18 N3          4.3240   -0.4250    0.7820 nb        1 3BK     -0.753000
     19 C9          3.0330   -0.8130    0.5690 ca        1 3BK      0.456800
     20 N5          1.8240   -0.1000    0.7230 na        1 3BK     -0.289000
     21 C10         1.6640    1.3300    0.8200 c3        1 3BK      0.247800
     22 O11         1.7810    1.9600   -0.4660 os        1 3BK     -0.420600
     23 C12         2.9330    2.8110   -0.5330 c3        1 3BK      0.063100
     24 C23         3.8540    2.3040   -1.6430 c3        1 3BK      0.119400
     25 O26         3.2470    2.4480   -2.9080 oh        1 3BK     -0.594800
     26 C13         3.6140    2.8220    0.8460 c3        1 3BK      0.087100
     27 O25         3.7440    4.1330    1.3650 oh        1 3BK     -0.602800
     28 C14         2.6740    2.0340    1.7830 c3        1 3BK      0.138100
     29 O24         1.8730    2.8420    2.6220 oh        1 3BK     -0.599800
     30 H18        -2.6820    0.2060   -1.5090 ha        1 3BK      0.166000
     31 H21        -5.8550   -1.7100    1.8450 ha        1 3BK      0.154000
     32 H22        -3.4960   -2.4890    1.7810 ha        1 3BK      0.144000
     33 H16        -1.3800   -2.4730    0.8750 h1        1 3BK      0.068200
     34 H16A       -1.3730   -2.2050   -0.9270 h1        1 3BK      0.068200
     35 HN15       -0.8230    0.0930    0.8170 hn        1 3BK      0.407800
     36 HN27        2.5050   -4.6280   -0.6330 hn        1 3BK      0.443800
     37 HN2A        4.1590   -5.0420   -0.5690 hn        1 3BK      0.443800
     38 H2          6.2820   -1.1470    0.7360 h5        1 3BK      0.051100
     39 H10         0.6080    1.5530    1.1610 h2        1 3BK      0.107700
     40 H12         2.5360    3.8310   -0.7980 h1        1 3BK      0.087700
     41 H23         4.7810    2.9360   -1.6900 h1        1 3BK      0.056200
     42 H23A        4.1300    1.2320   -1.4620 h1        1 3BK      0.056200
     43 HO26        2.4160    1.9540   -2.8810 ho        1 3BK      0.415000
     44 H13         4.6220    2.3280    0.8020 h1        1 3BK      0.080700
     45 HO25        4.3110    4.6220    0.7560 ho        1 3BK      0.421000
     46 H14         3.2530    1.3180    2.4240 h1        1 3BK      0.091700
     47 HO24        2.4090    3.5890    2.9210 ho        1 3BK      0.437000
@<TRIPOS>BOND
     1    1    2 ar  
     2    1    8 ar  
     3    1   30 1   
     4    2    3 1   
     5    2    4 ar  
     6    4    5 1   
     7    4    6 ar  
     8    6    7 ar  
     9    6   31 1   
    10    7    8 ar  
    11    7   32 1   
    12    8    9 1   
    13    9   10 1   
    14    9   33 1   
    15    9   34 1   
    16   10   11 1   
    17   10   35 1   
    18   11   12 2   
    19   11   20 1   
    20   12   13 1   
    21   13   14 ar  
    22   13   19 ar  
    23   14   15 1   
    24   14   16 ar  
    25   15   36 1   
    26   15   37 1   
    27   16   17 ar  
    28   17   18 ar  
    29   17   38 1   
    30   18   19 ar  
    31   19   20 1   
    32   20   21 1   
    33   21   22 1   
    34   21   28 1   
    35   21   39 1   
    36   22   23 1   
    37   23   24 1   
    38   23   26 1   
    39   23   40 1   
    40   24   25 1   
    41   24   41 1   
    42   24   42 1   
    43   25   43 1   
    44   26   27 1   
    45   26   28 1   
    46   26   44 1   
    47   27   45 1   
    48   28   29 1   
    49   28   46 1   
    50   29   47 1   
@<TRIPOS>SUBSTRUCTURE
     1 3BK         1 TEMP              0 ****  ****    0 ROOT
