@<TRIPOS>MOLECULE
3BK
   47    50     1     0     0
SMALL
bcc


@<TRIPOS>ATOM
      1 C18        -0.0300   -0.0180   -0.3790 ca        1 3BK     -0.106000
      2 C19         1.3580    0.1630   -0.3860 ca        1 3BK      0.014400
      3 Cl28        2.1490    0.3840   -1.8690 cl        1 3BK     -0.066400
      4 C20         2.0700    0.1570    0.8230 ca        1 3BK      0.023400
      5 Cl29        3.7520    0.3710    0.8510 cl        1 3BK     -0.065400
      6 C21         1.3870   -0.0280    2.0300 ca        1 3BK     -0.121000
      7 C22         0.0060   -0.2020    2.0320 ca        1 3BK     -0.100000
      8 C17        -0.7070   -0.1970    0.8280 ca        1 3BK     -0.098300
      9 C16        -2.2010   -0.3440    0.8300 c3        1 3BK      0.231100
     10 N15        -2.6240   -1.5770    1.4740 nu        1 3BK     -0.766200
     11 C6         -4.0140   -1.8270    1.4620 cc        1 3BK      0.597700
     12 N7         -4.9940   -0.9860    1.0300 nd        1 3BK     -0.590100
     13 C8         -6.1920   -1.6700    1.2710 ca        1 3BK     -0.205200
     14 C4         -7.5600   -1.3100    1.0280 ca        1 3BK      0.745200
     15 N27        -7.8670   -0.1070    0.4420 nv        1 3BK     -0.952500
     16 N1         -8.5490   -2.2090    1.3550 nb        1 3BK     -0.785000
     17 C2         -8.1620   -3.4010    1.8770 ca        1 3BK      0.677900
     18 N3         -6.9220   -3.8710    2.1540 nb        1 3BK     -0.753000
     19 C9         -5.9330   -2.9770    1.8540 ca        1 3BK      0.456800
     20 N5         -4.5400   -3.0480    2.0430 na        1 3BK     -0.286000
     21 C10        -3.7010   -4.1730    2.3780 c3        1 3BK      0.240800
     22 O11        -3.1640   -4.7720    1.1890 os        1 3BK     -0.421600
     23 C12        -3.8240   -6.0110    0.8920 c3        1 3BK      0.100100
     24 C23        -4.8080   -5.8290   -0.2620 c3        1 3BK      0.117400
     25 O26        -4.0530   -5.8940   -1.4610 oh        1 3BK     -0.595800
     26 C13        -4.5270   -6.4830    2.1820 c3        1 3BK      0.090100
     27 O25        -3.9550   -7.6630    2.6990 oh        1 3BK     -0.587800
     28 C14        -4.3810   -5.3140    3.1860 c3        1 3BK      0.087100
     29 O24        -3.4580   -5.6520    4.2090 oh        1 3BK     -0.600800
     30 H18        -0.5840   -0.0160   -1.3310 ha        1 3BK      0.154000
     31 H21         1.9440   -0.0340    2.9800 ha        1 3BK      0.154000
     32 H22        -0.5280   -0.3440    2.9850 ha        1 3BK      0.154000
     33 H16        -2.6490    0.5150    1.4110 h1        1 3BK      0.065700
     34 H16A       -2.5860   -0.2730   -0.2300 h1        1 3BK      0.065700
     35 HN15       -2.0970   -2.3790    1.1760 hn        1 3BK      0.416800
     36 HN27       -7.1470    0.5680    0.3560 hn        1 3BK      0.444300
     37 HN2A       -8.8100    0.1890    0.3860 hn        1 3BK      0.444300
     38 H2         -8.9960   -4.0970    2.1120 h5        1 3BK      0.051100
     39 H10        -2.8010   -3.7810    2.9460 h2        1 3BK      0.124700
     40 H12        -2.9990   -6.7120    0.5830 h1        1 3BK      0.103700
     41 H23        -5.3390   -4.8460   -0.1730 h1        1 3BK      0.040200
     42 H23A       -5.5590   -6.6650   -0.2580 h1        1 3BK      0.040200
     43 HO26       -4.5990   -5.5050   -2.1540 ho        1 3BK      0.405000
     44 H13        -5.6070   -6.7370    2.0090 h1        1 3BK      0.108700
     45 HO25       -3.0120   -7.4940    2.8420 ho        1 3BK      0.416000
     46 H14        -5.3610   -5.0280    3.6460 h1        1 3BK      0.101700
     47 HO24       -3.8600   -6.3730    4.7130 ho        1 3BK      0.425000
@<TRIPOS>BOND
     1    1    2 ar  
     2    1    8 ar  
     3    1   30 1   
     4    2    3 1   
     5    2    4 ar  
     6    4    5 1   
     7    4    6 ar  
     8    6    7 ar  
     9    6   31 1   
    10    7    8 ar  
    11    7   32 1   
    12    8    9 1   
    13    9   10 1   
    14    9   33 1   
    15    9   34 1   
    16   10   11 1   
    17   10   35 1   
    18   11   12 2   
    19   11   20 1   
    20   12   13 1   
    21   13   14 ar  
    22   13   19 ar  
    23   14   15 1   
    24   14   16 ar  
    25   15   36 1   
    26   15   37 1   
    27   16   17 ar  
    28   17   18 ar  
    29   17   38 1   
    30   18   19 ar  
    31   19   20 1   
    32   20   21 1   
    33   21   22 1   
    34   21   28 1   
    35   21   39 1   
    36   22   23 1   
    37   23   24 1   
    38   23   26 1   
    39   23   40 1   
    40   24   25 1   
    41   24   41 1   
    42   24   42 1   
    43   25   43 1   
    44   26   27 1   
    45   26   28 1   
    46   26   44 1   
    47   27   45 1   
    48   28   29 1   
    49   28   46 1   
    50   29   47 1   
@<TRIPOS>SUBSTRUCTURE
     1 3BK         1 TEMP              0 ****  ****    0 ROOT
