@<TRIPOS>MOLECULE
3BK
   49    52     1     0     0
SMALL
bcc


@<TRIPOS>ATOM
      1 C18        -0.0020   -0.3170    0.5260 ca        1 3BK     -0.089000
      2 C19         1.3790   -0.2060    0.7060 ca        1 3BK      0.009400
      3 CL28        2.3950   -0.3650   -0.6300 cl        1 3BK     -0.000400
      4 C20         1.8990    0.0410    1.9940 ca        1 3BK      0.068400
      5 CL29        3.5540    0.1860    2.2470 cl        1 3BK      0.021600
      6 C21         1.0220    0.1720    3.0820 ca        1 3BK     -0.112000
      7 C22        -0.3510    0.0550    2.8980 ca        1 3BK     -0.081000
      8 C17        -0.8680   -0.1890    1.6190 ca        1 3BK     -0.210300
      9 C16        -2.3350   -0.2540    1.4060 c3        1 3BK      0.206100
     10 N15        -2.7850   -1.7050    1.4570 n4        1 3BK     -0.703000
     11 C6         -4.1990   -1.8960    1.1230 cc        1 3BK      0.479700
     12 N7         -5.1340   -0.9010    1.1930 nd        1 3BK     -0.515100
     13 C8         -6.3070   -1.4970    0.7480 ca        1 3BK     -0.178200
     14 C4         -7.6350   -1.0260    0.5580 ca        1 3BK      0.570200
     15 N27        -7.9630    0.3670    0.9160 n4        1 3BK     -0.825300
     16 N1         -8.5970   -1.8170    0.0590 nb        1 3BK     -0.650000
     17 C2         -8.2430   -3.1100   -0.2660 ca        1 3BK      0.702900
     18 N3         -7.0440   -3.7080   -0.1370 nb        1 3BK     -0.575000
     19 C9         -6.0680   -2.9080    0.3890 ca        1 3BK      0.508800
     20 N5         -4.7160   -3.1460    0.6660 na        1 3BK     -0.229000
     21 C10        -3.9360   -4.3770    0.4670 c3        1 3BK      0.210800
     22 O11        -4.7830   -5.4810    0.2120 os        1 3BK     -0.353600
     23 C12        -4.5010   -6.5800    1.1110 c3        1 3BK      0.061100
     24 C23        -5.6290   -6.7260    2.1400 c3        1 3BK      0.112400
     25 O26        -6.7120   -5.8780    1.8390 oh        1 3BK     -0.594800
     26 C13        -3.1390   -6.2910    1.7680 c3        1 3BK      0.105100
     27 O25        -2.0790   -6.8110    0.9950 oh        1 3BK     -0.602800
     28 C14        -3.0250   -4.7510    1.6900 c3        1 3BK      0.100100
     29 O24        -1.7350   -4.2420    1.4820 oh        1 3BK     -0.641800
     30 H18        -0.4040   -0.4840   -0.4870 ha        1 3BK      0.152000
     31 H21         1.4280    0.3760    4.0890 ha        1 3BK      0.184000
     32 H22        -1.0250    0.1760    3.7610 ha        1 3BK      0.147000
     33 H16        -2.8940    0.3060    2.2080 hx        1 3BK      0.115700
     34 H16A       -2.6230    0.1510    0.3940 hx        1 3BK      0.115700
     35 HN15       -2.6160   -2.0850    2.4030 hn        1 3BK      0.484800
     36 HN27       -7.3500    1.0020    0.3880 hn        1 3BK      0.488133
     37 HN2A       -7.8040    0.4970    1.9240 hn        1 3BK      0.488133
     38 H2         -9.0730   -3.7300   -0.6930 h5        1 3BK      0.123100
     39 H10        -3.3210   -4.2090   -0.4720 h2        1 3BK      0.117700
     40 H12        -4.4480   -7.4730    0.4280 h1        1 3BK      0.124700
     41 H23        -5.2960   -6.4060    3.1650 h1        1 3BK      0.071700
     42 H23A       -5.9560   -7.8000    2.1780 h1        1 3BK      0.071700
     43 HO26       -7.0970   -6.1890    1.0090 ho        1 3BK      0.424000
     44 H13        -3.0930   -6.6530    2.8290 h1        1 3BK      0.099700
     45 HO25       -1.8830   -7.7040    1.3120 ho        1 3BK      0.456000
     46 H14        -3.3960   -4.3000    2.6520 h1        1 3BK      0.087700
     47 HO24       -1.1650   -4.9310    1.0950 ho        1 3BK      0.484000
     48 H152       -2.1960   -2.2610    0.8040 hn        1 3BK      0.484800
     49 H273       -8.9490    0.5850    0.6970 hn        1 3BK      0.488133
@<TRIPOS>BOND
     1    1    2 ar  
     2    1    8 ar  
     3    1   30 1   
     4    2    3 1   
     5    2    4 ar  
     6    4    5 1   
     7    4    6 ar  
     8    6    7 ar  
     9    6   31 1   
    10    7    8 ar  
    11    7   32 1   
    12    8    9 1   
    13    9   10 1   
    14    9   33 1   
    15    9   34 1   
    16   10   11 1   
    17   10   35 1   
    18   10   48 1   
    19   11   12 2   
    20   11   20 1   
    21   12   13 1   
    22   13   14 ar  
    23   13   19 ar  
    24   14   15 1   
    25   14   16 ar  
    26   15   36 1   
    27   15   37 1   
    28   15   49 1   
    29   16   17 ar  
    30   17   18 ar  
    31   17   38 1   
    32   18   19 ar  
    33   19   20 1   
    34   20   21 1   
    35   21   22 1   
    36   21   28 1   
    37   21   39 1   
    38   22   23 1   
    39   23   24 1   
    40   23   26 1   
    41   23   40 1   
    42   24   25 1   
    43   24   41 1   
    44   24   42 1   
    45   25   43 1   
    46   26   27 1   
    47   26   28 1   
    48   26   44 1   
    49   27   45 1   
    50   28   29 1   
    51   28   46 1   
    52   29   47 1   
@<TRIPOS>SUBSTRUCTURE
     1 3BK         1 TEMP              0 ****  ****    0 ROOT
