@<TRIPOS>MOLECULE
3BK
   47    42     1     0     0
SMALL
bcc


@<TRIPOS>ATOM
      1 C18         3.9610    2.7710    0.9660 c1        1 3BK     -0.096000
      2 C19         5.3300    2.8610    0.7820 c1        1 3BK     -0.065000
      3 CL28        6.3890    3.1950    2.1750 cl        1 3BK      0.013000
      4 C20         5.8650    2.8010   -0.5010 c1        1 3BK     -0.055000
      5 CL29        7.6360    2.9540   -0.7410 cl        1 3BK      0.013000
      6 C21         5.0170    2.6490   -1.6070 c2        1 3BK     -0.120000
      7 C22         3.6320    2.5580   -1.4190 c1        1 3BK     -0.110000
      8 C17         3.1050    2.6180   -0.1430 c1        1 3BK     -0.091000
      9 C16         1.5330    2.6180    0.0740 c3        1 3BK     -0.013000
     10 N15         1.0730    1.2240    0.3070 n3        1 3BK     -0.251000
     11 C6         -0.3170    0.9090    0.2270 c2        1 3BK      0.120000
     12 N7         -1.1180    2.0030    0.1320 n2        1 3BK     -0.164000
     13 C8         -2.4110    1.5840    0.1640 c1        1 3BK     -0.213000
     14 C4         -3.6080    2.2730    0.0660 c1        1 3BK      0.222000
     15 N27        -4.1810    3.5970    0.0840 n3        1 3BK     -0.348000
     16 N1         -4.7720    1.6070    0.0840 n1        1 3BK     -0.258000
     17 C2         -4.7780    0.2400    0.2000 c1        1 3BK      0.015000
     18 N3         -3.5970   -0.4430    0.2980 n1        1 3BK     -0.227000
     19 C9         -2.4130    0.2390    0.2790 c1        1 3BK      0.065000
     20 N5         -1.1070   -0.1810    0.3180 n1        1 3BK     -0.204000
     21 C10        -0.4820   -1.4520    0.2970 c2        1 3BK      0.149000
     22 O11        -0.8640   -2.2330   -1.0490 os        1 3BK     -0.278000
     23 C12        -0.7020   -3.4850   -0.7960 c3        1 3BK     -0.010000
     24 C23        -1.7700   -4.3470   -1.5820 c3        1 3BK     -0.033000
     25 O26        -1.3150   -4.5450   -2.9860 oh        1 3BK     -0.323000
     26 C13        -0.9200   -3.6200    0.7340 c3        1 3BK     -0.021000
     27 O25         0.0760   -4.3140    1.2800 oh        1 3BK     -0.315000
     28 C14        -0.9210   -2.1800    1.2770 c3        1 3BK     -0.024000
     29 O24        -0.0120   -2.0660    2.4600 oh        1 3BK     -0.327000
     30 H18         3.6080    2.8100    1.8200 ha        1 3BK      0.164000
     31 H21         5.3740    2.6090   -2.4650 ha        1 3BK      0.154000
     32 H22         3.0050    2.4440   -2.2320 ha        1 3BK      0.144000
     33 H16         1.2960    3.2140    0.9130 h1        1 3BK      0.105000
     34 H16A        1.0820    2.9910   -0.7360 h1        1 3BK      0.105000
     35 HN15        1.6920    0.5470    0.3910 hn        1 3BK      0.213000
     36 HN27       -3.6100    4.3740   -0.0230 hn        1 3BK      0.238500
     37 HN2A       -5.1050    3.7070    0.2270 hn        1 3BK      0.238500
     38 H2         -5.6410   -0.2540    0.2120 ha        1 3BK      0.188000
     39 H10         0.5170   -1.3480    0.3610 h4        1 3BK      0.164000
     40 H12         0.2270   -3.7710   -1.0440 h1        1 3BK      0.143000
     41 H23        -1.8680   -5.2090   -1.1520 h1        1 3BK      0.079500
     42 H23A       -2.6410   -3.8760   -1.5810 h1        1 3BK      0.079500
     43 HO26       -1.9010   -5.1320   -3.4250 ho        1 3BK      0.204000
     44 H13        -1.8070   -4.0660    0.9260 h1        1 3BK      0.148000
     45 HO25       -0.2530   -4.9920    1.7370 ho        1 3BK      0.216000
     46 H14        -1.8270   -1.9130    1.5190 h1        1 3BK      0.142000
     47 HO24       -0.4790   -1.9680    3.1700 ho        1 3BK      0.224000
@<TRIPOS>BOND
     1    1    8 1   
     2    1   30 1   
     3    2    3 1   
     4    2    4 1   
     5    4    6 1   
     6    6    7 1   
     7    6   31 1   
     8    7   32 1   
     9    8    9 1   
    10    9   10 1   
    11    9   33 1   
    12    9   34 1   
    13   10   11 1   
    14   10   35 1   
    15   11   12 1   
    16   11   20 1   
    17   12   13 1   
    18   13   19 1   
    19   14   15 1   
    20   14   16 1   
    21   15   36 1   
    22   15   37 1   
    23   17   18 1   
    24   17   38 1   
    25   21   22 1   
    26   21   28 1   
    27   21   39 1   
    28   22   23 1   
    29   23   24 1   
    30   23   26 1   
    31   23   40 1   
    32   24   25 1   
    33   24   41 1   
    34   24   42 1   
    35   25   43 1   
    36   26   27 1   
    37   26   28 1   
    38   26   44 1   
    39   27   45 1   
    40   28   29 1   
    41   28   46 1   
    42   29   47 1   
@<TRIPOS>SUBSTRUCTURE
     1 3BK         1 TEMP              0 ****  ****    0 ROOT
