@<TRIPOS>MOLECULE
3BM
   41    42     1     0     0
SMALL
bcc


@<TRIPOS>ATOM
      1 C01         0.5720   -1.0050   -0.4310 ca        1 3BM      0.088600
      2 C02         1.9170   -0.6300   -0.6310 ca        1 3BM     -0.208000
      3 C03         2.8390   -0.7070    0.4090 ca        1 3BM     -0.062000
      4 C04         2.4500   -1.1570    1.6710 ca        1 3BM      0.009900
      5 C05         1.1220   -1.5170    1.8930 ca        1 3BM     -0.051000
      6 C06         0.1850   -1.4450    0.8590 ca        1 3BM     -0.018600
      7 N07        -0.3680   -1.0340   -1.4980 nh        1 3BM     -0.633000
      8 C08        -0.0530   -0.2870   -2.6690 ca        1 3BM      0.114600
      9 C09         0.3760   -0.9680   -3.8340 ca        1 3BM     -0.182600
     10 C10         0.6400   -0.2700   -5.0210 ca        1 3BM     -0.040000
     11 C11         0.4930    1.1090   -5.0840 ca        1 3BM     -0.144000
     12 C12         0.0480    1.8170   -3.9550 ca        1 3BM      0.178900
     13 C13        -0.2340    1.1180   -2.7440 ca        1 3BM      0.076900
     14 C14         0.4620   -2.4330   -3.9070 c         1 3BM      0.603700
     15 N15         1.1800   -3.1190   -2.7350 n4        1 3BM     -0.458300
     16 O16         0.0510   -3.1700   -4.7840 o         1 3BM     -0.381100
     17 O17         2.0020   -4.0730   -3.2630 os        1 3BM     -0.208100
     18 C18         2.4280   -5.1470   -2.3870 c3        1 3BM      0.095400
     19 C19         1.2580   -6.0350   -1.9780 c3        1 3BM      0.104100
     20 C20         1.7760   -7.3400   -1.3630 c3        1 3BM      0.103400
     21 O21         0.5000   -5.2850   -1.0380 oh        1 3BM     -0.655800
     22 O22         0.6270   -7.9840   -0.8440 oh        1 3BM     -0.609800
     23 I23         3.7960   -1.2710    3.1680 i         1 3BM     -0.077900
     24 CL24       -1.4210   -1.8870    1.1800 cl        1 3BM     -0.050400
     25 F25        -0.6860    1.8070   -1.6760 f         1 3BM     -0.091900
     26 F26        -0.1180    3.1490   -4.0040 f         1 3BM     -0.079900
     27 H02         2.2420   -0.2190   -1.6000 ha        1 3BM      0.142000
     28 H03         3.8800   -0.3920    0.2240 ha        1 3BM      0.164000
     29 H05         0.7930   -1.8570    2.8930 ha        1 3BM      0.180000
     30 HN07       -1.3050   -0.8320   -1.1810 hn        1 3BM      0.440800
     31 H10         0.9570   -0.8260   -5.9220 ha        1 3BM      0.178000
     32 H11         0.7070    1.6560   -6.0180 ha        1 3BM      0.192000
     33 HN15        1.7480   -2.4370   -2.2000 hn        1 3BM      0.482800
     34 H18         3.1360   -5.6950   -3.0700 h1        1 3BM      0.109700
     35 H18A        2.9640   -4.7290   -1.4960 h1        1 3BM      0.109700
     36 H19         0.6050   -6.2670   -2.8680 h1        1 3BM      0.085700
     37 H20         2.5060   -7.1240   -0.5370 h1        1 3BM      0.051700
     38 H20A        2.2650   -7.9720   -2.1500 h1        1 3BM      0.051700
     39 HO21       -0.1020   -5.8950   -0.5840 ho        1 3BM      0.469000
     40 HO22        0.9160   -8.8190   -0.4540 ho        1 3BM      0.437000
     41 H152        0.4660   -3.5400   -2.1010 hn        1 3BM      0.482800
@<TRIPOS>BOND
     1    1    2 ar  
     2    1    6 ar  
     3    1    7 1   
     4    2    3 ar  
     5    2   27 1   
     6    3    4 ar  
     7    3   28 1   
     8    4    5 ar  
     9    4   23 1   
    10    5    6 ar  
    11    5   29 1   
    12    6   24 1   
    13    7    8 1   
    14    7   30 1   
    15    8    9 ar  
    16    8   13 ar  
    17    9   10 ar  
    18    9   14 1   
    19   10   11 ar  
    20   10   31 1   
    21   11   12 ar  
    22   11   32 1   
    23   12   13 ar  
    24   12   26 1   
    25   13   25 1   
    26   14   15 1   
    27   14   16 2   
    28   15   17 1   
    29   15   33 1   
    30   15   41 1   
    31   17   18 1   
    32   18   19 1   
    33   18   34 1   
    34   18   35 1   
    35   19   20 1   
    36   19   21 1   
    37   19   36 1   
    38   20   22 1   
    39   20   37 1   
    40   20   38 1   
    41   21   39 1   
    42   22   40 1   
@<TRIPOS>SUBSTRUCTURE
     1 3BM         1 TEMP              0 ****  ****    0 ROOT
