@<TRIPOS>MOLECULE
3BM
   42    43     1     0     0
SMALL
bcc


@<TRIPOS>ATOM
      1 C01         0.0420    0.1400    0.1400 ca        1 3BM     -0.082400
      2 C02         1.1470    1.0070    0.1740 ca        1 3BM     -0.091000
      3 C03         1.8310    1.2060    1.3700 ca        1 3BM     -0.073000
      4 C04         1.4270    0.5560    2.5390 ca        1 3BM      0.072900
      5 C05         0.3220   -0.2970    2.5110 ca        1 3BM     -0.067000
      6 C06        -0.3800   -0.5120    1.3210 ca        1 3BM      0.017400
      7 N07        -0.7400   -0.0310   -1.0960 n4        1 3BM     -0.513800
      8 C08         0.0640   -0.0980   -2.3230 ca        1 3BM      0.017600
      9 C09         0.6120   -1.3170   -2.8150 ca        1 3BM     -0.167600
     10 C10         1.3270   -1.3100   -4.0180 ca        1 3BM     -0.033000
     11 C11         1.5290   -0.1410   -4.7470 ca        1 3BM     -0.117000
     12 C12         1.0080    1.0740   -4.2810 ca        1 3BM      0.218900
     13 C13         0.2670    1.0950   -3.0530 ca        1 3BM      0.113900
     14 C14         0.3520   -2.5840   -2.1230 c         1 3BM      0.593700
     15 N15         1.3790   -3.7070   -2.2490 n4        1 3BM     -0.450300
     16 O16        -0.6070   -2.8710   -1.4180 o         1 3BM     -0.420100
     17 O17         1.2320   -4.2770   -3.4850 os        1 3BM     -0.226100
     18 C18         1.8890   -5.5590   -3.7130 c3        1 3BM      0.096400
     19 C19         1.3720   -6.6460   -2.7780 c3        1 3BM      0.105100
     20 C20         1.8750   -8.0220   -3.2360 c3        1 3BM      0.108400
     21 O21         1.8580   -6.3150   -1.4820 oh        1 3BM     -0.676800
     22 O22         1.5500   -8.8910   -2.1670 oh        1 3BM     -0.611800
     23 I23         2.4210    0.8620    4.2670 i         1 3BM     -0.004900
     24 CL24       -1.7350   -1.5250    1.3210 cl        1 3BM     -0.014400
     25 F25        -0.2410    2.2660   -2.6190 f         1 3BM     -0.072900
     26 F26         1.1830    2.2150   -4.9570 f         1 3BM     -0.038900
     27 H02         1.4690    1.5520   -0.7300 ha        1 3BM      0.160000
     28 H03         2.6930    1.8990    1.3820 ha        1 3BM      0.193000
     29 H05        -0.0210   -0.8050    3.4350 ha        1 3BM      0.204000
     30 HN07       -1.3250   -0.8870   -1.0120 hn        1 3BM      0.489800
     31 H10         1.7250   -2.2510   -4.4440 ha        1 3BM      0.187000
     32 H11         2.0920   -0.1610   -5.7010 ha        1 3BM      0.219000
     33 HN15        2.3390   -3.3400   -2.1480 hn        1 3BM      0.490800
     34 H18         1.5700   -5.7470   -4.7790 h1        1 3BM      0.122200
     35 H18A        2.9990   -5.4280   -3.6320 h1        1 3BM      0.122200
     36 H19         0.2450   -6.6450   -2.7470 h1        1 3BM      0.086700
     37 H20         2.9850   -8.0040   -3.3980 h1        1 3BM      0.059700
     38 H20A        1.3520   -8.3310   -4.1780 h1        1 3BM      0.059700
     39 HO21        1.8400   -7.1170   -0.9330 ho        1 3BM      0.488000
     40 HO22        1.8230   -9.7830   -2.4240 ho        1 3BM      0.452000
     41 H072       -1.3770    0.7850   -1.1700 hn        1 3BM      0.489800
     42 H152        1.1950   -4.4210   -1.4980 hn        1 3BM      0.490800
@<TRIPOS>BOND
     1    1    2 ar  
     2    1    6 ar  
     3    1    7 1   
     4    2    3 ar  
     5    2   27 1   
     6    3    4 ar  
     7    3   28 1   
     8    4    5 ar  
     9    4   23 1   
    10    5    6 ar  
    11    5   29 1   
    12    6   24 1   
    13    7    8 1   
    14    7   30 1   
    15    7   41 1   
    16    8    9 ar  
    17    8   13 ar  
    18    9   10 ar  
    19    9   14 1   
    20   10   11 ar  
    21   10   31 1   
    22   11   12 ar  
    23   11   32 1   
    24   12   13 ar  
    25   12   26 1   
    26   13   25 1   
    27   14   15 1   
    28   14   16 2   
    29   15   17 1   
    30   15   33 1   
    31   15   42 1   
    32   17   18 1   
    33   18   19 1   
    34   18   34 1   
    35   18   35 1   
    36   19   20 1   
    37   19   21 1   
    38   19   36 1   
    39   20   22 1   
    40   20   37 1   
    41   20   38 1   
    42   21   39 1   
    43   22   40 1   
@<TRIPOS>SUBSTRUCTURE
     1 3BM         1 TEMP              0 ****  ****    0 ROOT
