@<TRIPOS>MOLECULE
3BM
   40    41     1     0     0
SMALL
bcc


@<TRIPOS>ATOM
      1 C01         0.8040    0.9320    0.7120 ca        1 3BM      0.192600
      2 C02         1.5830    1.1310   -0.4510 ca        1 3BM     -0.181000
      3 C03         2.8370    0.5480   -0.5790 ca        1 3BM     -0.056000
      4 C04         3.3550   -0.2580    0.4340 ca        1 3BM     -0.010100
      5 C05         2.6050   -0.4760    1.5880 ca        1 3BM     -0.055000
      6 C06         1.3460    0.1050    1.7340 ca        1 3BM     -0.041600
      7 N07        -0.4500    1.5210    0.8910 nh        1 3BM     -0.640000
      8 C08        -1.0670    2.3400   -0.0610 ca        1 3BM      0.187600
      9 C09        -2.3510    2.0230   -0.5790 ca        1 3BM     -0.194600
     10 C10        -3.0150    2.8960   -1.4430 ca        1 3BM     -0.066000
     11 C11        -2.4320    4.0870   -1.8490 ca        1 3BM     -0.171000
     12 C12        -1.1560    4.4270   -1.3740 ca        1 3BM      0.135900
     13 C13        -0.4720    3.5700   -0.4720 ca        1 3BM      0.062900
     14 C14        -3.0240    0.7560   -0.1730 c         1 3BM      0.623700
     15 N15        -3.6760    0.0360   -1.2200 n         1 3BM     -0.352400
     16 O16        -3.1160    0.3940    1.0110 o         1 3BM     -0.557100
     17 O17        -3.9070   -1.2580   -0.9600 os        1 3BM     -0.255900
     18 C18        -5.1650   -1.5220   -0.2790 c3        1 3BM      0.096400
     19 C19        -5.2800   -3.0440   -0.2600 c3        1 3BM      0.089100
     20 C20        -6.1390   -3.4870    0.9290 c3        1 3BM      0.103400
     21 O21        -5.8250   -3.5580   -1.4630 oh        1 3BM     -0.590800
     22 O22        -6.2640   -4.8910    0.9730 oh        1 3BM     -0.591800
     23 I23         5.1760   -1.1030    0.2350 i         1 3BM     -0.131900
     24 CL24        0.4730   -0.2000    3.1620 cl        1 3BM     -0.078400
     25 F25         0.7380    3.9560   -0.0110 f         1 3BM     -0.107900
     26 F26        -0.5730    5.5840   -1.7580 f         1 3BM     -0.114900
     27 H02         1.2020    1.7680   -1.2640 ha        1 3BM      0.144000
     28 H03         3.4180    0.7320   -1.4980 ha        1 3BM      0.149000
     29 H05         2.9990   -1.1110    2.4000 ha        1 3BM      0.161000
     30 HN07       -1.0770    1.0450    1.5170 hn        1 3BM      0.472800
     31 H10        -4.0250    2.6440   -1.8090 ha        1 3BM      0.158000
     32 H11        -2.9560    4.7720   -2.5330 ha        1 3BM      0.164000
     33 HN15       -3.1780    0.0840   -2.1020 hn        1 3BM      0.307500
     34 H18        -5.1030   -1.1070    0.7610 h1        1 3BM      0.061700
     35 H18A       -6.0140   -1.0540   -0.8380 h1        1 3BM      0.061700
     36 H19        -4.2570   -3.5180   -0.2030 h1        1 3BM      0.113700
     37 H20        -5.6550   -3.2020    1.9000 h1        1 3BM      0.051200
     38 H20A       -7.1580   -3.0180    0.8600 h1        1 3BM      0.051200
     39 HO21       -6.6670   -3.1120   -1.6180 ho        1 3BM      0.398000
     40 HO22       -6.4490   -5.1940    0.0730 ho        1 3BM      0.413000
@<TRIPOS>BOND
     1    1    2 ar  
     2    1    6 ar  
     3    1    7 1   
     4    2    3 ar  
     5    2   27 1   
     6    3    4 ar  
     7    3   28 1   
     8    4    5 ar  
     9    4   23 1   
    10    5    6 ar  
    11    5   29 1   
    12    6   24 1   
    13    7    8 1   
    14    7   30 1   
    15    8    9 ar  
    16    8   13 ar  
    17    9   10 ar  
    18    9   14 1   
    19   10   11 ar  
    20   10   31 1   
    21   11   12 ar  
    22   11   32 1   
    23   12   13 ar  
    24   12   26 1   
    25   13   25 1   
    26   14   15 1   
    27   14   16 2   
    28   15   17 1   
    29   15   33 1   
    30   17   18 1   
    31   18   19 1   
    32   18   34 1   
    33   18   35 1   
    34   19   20 1   
    35   19   21 1   
    36   19   36 1   
    37   20   22 1   
    38   20   37 1   
    39   20   38 1   
    40   21   39 1   
    41   22   40 1   
@<TRIPOS>SUBSTRUCTURE
     1 3BM         1 TEMP              0 ****  ****    0 ROOT
