@<TRIPOS>MOLECULE
3BM
   40    36     1     0     0
SMALL
bcc


@<TRIPOS>ATOM
      1 C01        -0.1380   -2.3510    2.7210 c1        1 3BM      0.110000
      2 C02         0.0050   -3.7000    2.3790 c1        1 3BM     -0.117000
      3 C03        -1.0570   -4.5790    2.5580 c1        1 3BM     -0.117000
      4 C04        -2.2520   -4.1190    3.0730 c1        1 3BM     -0.295000
      5 C05        -2.3940   -2.7720    3.4150 c1        1 3BM     -0.057000
      6 C06        -1.3340   -1.8940    3.2370 c1        1 3BM     -0.118000
      7 N07         0.9290   -1.4210    2.4530 n3        1 3BM     -0.264000
      8 C08         1.6740   -1.5050    1.2070 c2        1 3BM      0.107000
      9 C09         1.6290   -0.4490    0.2910 c2        1 3BM     -0.163000
     10 C10         2.3510   -0.5240   -0.8800 c1        1 3BM     -0.075000
     11 C11         3.1140   -1.6320   -1.1460 c1        1 3BM     -0.170000
     12 C12         3.1600   -2.6950   -0.2240 c1        1 3BM      0.098000
     13 C13         2.4440   -2.6230    0.9370 c2        1 3BM      0.028000
     14 C14         0.6390    0.6970    0.4990 c2        1 3BM      0.295000
     15 N15         0.5910    1.7890   -0.4480 n         1 3BM     -0.163000
     16 O16        -0.0130    0.7390    1.4750 o         1 3BM     -0.317000
     17 O17        -0.6220    2.4460   -0.7000 os        1 3BM     -0.143000
     18 C18        -0.3870    3.5900   -1.5370 c3        1 3BM     -0.081000
     19 C19        -1.3040    3.5310   -2.7390 c3        1 3BM     -0.002000
     20 C20        -1.5450    4.9720   -3.2800 c3        1 3BM     -0.055000
     21 O21        -0.7180    2.7500   -3.7330 oh        1 3BM     -0.361000
     22 O22        -2.4190    4.9130   -4.4210 oh        1 3BM     -0.340000
     23 I23        -3.8830   -5.4340    3.2830 i         1 3BM      0.150000
     24 CL24       -1.4770   -0.2520    3.7600 cl        1 3BM     -0.002000
     25 F25         2.5690   -3.6000    1.8700 f         1 3BM     -0.075000
     26 F26         3.9980   -3.7110   -0.4220 f         1 3BM     -0.083000
     27 H02         0.8420   -4.0210    2.0190 ha        1 3BM      0.147000
     28 H03        -0.9550   -5.5430    2.3150 ha        1 3BM      0.147000
     29 H05        -3.2650   -2.4380    3.7910 ha        1 3BM      0.159000
     30 HN07        1.1420   -0.7640    3.0780 hn        1 3BM      0.265000
     31 H10         2.3200    0.2340   -1.5390 ha        1 3BM      0.160000
     32 H11         3.6220   -1.6840   -1.9710 ha        1 3BM      0.162000
     33 HN15        1.3360    2.0240   -0.9080 hn        1 3BM      0.210000
     34 H18         0.5350    3.5890   -1.8320 h1        1 3BM      0.121500
     35 H18A       -0.5650    4.4030   -1.0330 h1        1 3BM      0.121500
     36 H19        -2.1550    3.1360   -2.4780 h1        1 3BM      0.106000
     37 H20        -1.9620    5.5260   -2.5730 h1        1 3BM      0.081000
     38 H20A       -0.6710    5.3780   -3.5470 h1        1 3BM      0.081000
     39 HO21       -1.3330    2.2730   -4.1310 ho        1 3BM      0.232000
     40 HO22       -2.4510    5.7210   -4.8190 ho        1 3BM      0.215000
@<TRIPOS>BOND
     1    1    6 1   
     2    1    7 1   
     3    2    3 1   
     4    2   27 1   
     5    3   28 1   
     6    4    5 1   
     7    4   23 1   
     8    5   29 1   
     9    6   24 1   
    10    7    8 1   
    11    7   30 1   
    12    8    9 1   
    13    8   13 1   
    14    9   10 1   
    15    9   14 1   
    16   10   31 1   
    17   11   12 1   
    18   11   32 1   
    19   12   13 1   
    20   13   25 1   
    21   14   15 1   
    22   14   16 1   
    23   15   17 1   
    24   15   33 1   
    25   17   18 1   
    26   18   19 1   
    27   18   34 1   
    28   18   35 1   
    29   19   20 1   
    30   19   21 1   
    31   19   36 1   
    32   20   22 1   
    33   20   37 1   
    34   20   38 1   
    35   21   39 1   
    36   22   40 1   
@<TRIPOS>SUBSTRUCTURE
     1 3BM         1 TEMP              0 ****  ****    0 ROOT
