@<TRIPOS>MOLECULE
3BM
   41    42     1     0     0
SMALL
bcc


@<TRIPOS>ATOM
      1 C01         0.7970   -0.9240   -0.4590 ca        1 3BM      0.088600
      2 C02         2.1380   -0.6460   -0.8000 ca        1 3BM     -0.208000
      3 C03         3.1490   -0.7420    0.1510 ca        1 3BM     -0.062000
      4 C04         2.8570   -1.1160    1.4630 ca        1 3BM      0.009900
      5 C05         1.5370   -1.3790    1.8250 ca        1 3BM     -0.051000
      6 C06         0.5100   -1.2860    0.8810 ca        1 3BM     -0.018600
      7 N07        -0.2400   -0.9340   -1.4310 nu        1 3BM     -0.633000
      8 C08         0.0050   -0.2560   -2.6590 ca        1 3BM      0.114600
      9 C09         0.2780   -1.0090   -3.8270 ca        1 3BM     -0.182600
     10 C10         0.4690   -0.3780   -5.0640 ca        1 3BM     -0.040000
     11 C11         0.4010    1.0040   -5.1760 ca        1 3BM     -0.144000
     12 C12         0.1110    1.7840   -4.0440 ca        1 3BM      0.178900
     13 C13        -0.0950    1.1540   -2.7810 ca        1 3BM      0.076900
     14 C14         0.2660   -2.4780   -3.8400 c         1 3BM      0.603700
     15 N15         1.0500   -3.1630   -2.7100 ny        1 3BM     -0.458300
     16 O16        -0.2720   -3.2210   -4.6400 o         1 3BM     -0.381100
     17 O17         1.7570   -4.1890   -3.2680 os        1 3BM     -0.208100
     18 C18         2.1930   -5.2560   -2.3890 c3        1 3BM      0.095400
     19 C19         1.0120   -6.0470   -1.8380 c3        1 3BM      0.104100
     20 C20         1.5000   -7.3610   -1.2170 c3        1 3BM      0.103400
     21 O21         0.3950   -5.2130   -0.8650 oh        1 3BM     -0.655800
     22 O22         0.3650   -7.9060   -0.5690 oh        1 3BM     -0.609800
     23 I23         4.3300   -1.2570    2.8310 i         1 3BM     -0.077900
     24 Cl24       -1.0810   -1.6090    1.3710 cl        1 3BM     -0.050400
     25 F25        -0.3990    1.9130   -1.7080 f         1 3BM     -0.091900
     26 F26         0.0230    3.1220   -4.1380 f         1 3BM     -0.079900
     27 H02         2.3930   -0.2960   -1.8140 ha        1 3BM      0.142000
     28 H03         4.1850   -0.5030   -0.1450 ha        1 3BM      0.164000
     29 H05         1.2850   -1.6560    2.8650 ha        1 3BM      0.180000
     30 HN07       -1.1290   -0.6580   -1.0380 hn        1 3BM      0.440800
     31 H10         0.6630   -0.9880   -5.9640 ha        1 3BM      0.178000
     32 H11         0.5580    1.4990   -6.1500 ha        1 3BM      0.192000
     33 HN15        0.3750   -3.5100   -1.9940 hn        1 3BM      0.482800
     34 H18         2.8350   -4.8420   -1.5690 h1        1 3BM      0.109700
     35 H18A        2.7980   -5.8760   -3.1090 h1        1 3BM      0.109700
     36 H19         0.2650   -6.2660   -2.6540 h1        1 3BM      0.085700
     37 H20         2.3160   -7.1660   -0.4710 h1        1 3BM      0.051700
     38 H20A        1.8710   -8.0530   -2.0180 h1        1 3BM      0.051700
     39 HO21       -0.2000   -5.7640   -0.3330 ho        1 3BM      0.469000
     40 HO22        0.6360   -8.7430   -0.1720 ho        1 3BM      0.437000
     41 H152        1.7080   -2.4990   -2.2630 hn        1 3BM      0.482800
@<TRIPOS>BOND
     1    1    2 ar  
     2    1    6 ar  
     3    1    7 1   
     4    2    3 ar  
     5    2   27 1   
     6    3    4 ar  
     7    3   28 1   
     8    4    5 ar  
     9    4   23 1   
    10    5    6 ar  
    11    5   29 1   
    12    6   24 1   
    13    7    8 1   
    14    7   30 1   
    15    8    9 ar  
    16    8   13 ar  
    17    9   10 ar  
    18    9   14 1   
    19   10   11 ar  
    20   10   31 1   
    21   11   12 ar  
    22   11   32 1   
    23   12   13 ar  
    24   12   26 1   
    25   13   25 1   
    26   14   15 1   
    27   14   16 2   
    28   15   17 1   
    29   15   33 1   
    30   15   41 1   
    31   17   18 1   
    32   18   19 1   
    33   18   34 1   
    34   18   35 1   
    35   19   20 1   
    36   19   21 1   
    37   19   36 1   
    38   20   22 1   
    39   20   37 1   
    40   20   38 1   
    41   21   39 1   
    42   22   40 1   
@<TRIPOS>SUBSTRUCTURE
     1 3BM         1 TEMP              0 ****  ****    0 ROOT
