@<TRIPOS>MOLECULE
3BN
   73    76     1     0     0
SMALL
bcc


@<TRIPOS>ATOM
      1 C1          0.0690    1.1230   -4.3990 cx        1 3BN     -0.091900
      2 C2          1.2560    0.2390   -4.0650 cx        1 3BN     -0.022500
      3 C3          1.4510    1.5810   -4.7420 cx        1 3BN     -0.091900
      4 N1          1.6480    0.0270   -2.6580 ny        1 3BN     -0.722000
      5 C4          3.0430   -0.4920   -2.5430 c3        1 3BN      0.103800
      6 C5          3.4280   -0.7900   -1.0790 c3        1 3BN      0.107100
      7 C6          4.8770   -1.3490   -1.0060 c3        1 3BN      0.111500
      8 N2          5.1490   -1.9610    0.3440 ny        1 3BN     -0.680800
      9 C7          5.0280   -0.9500    1.4700 c         1 3BN      0.591700
     10 O2          3.8590   -0.7270    1.7860 o         1 3BN     -0.496100
     11 O3          2.4900   -1.7360   -0.6020 oh        1 3BN     -0.609800
     12 C8          5.1820   -2.3700   -2.1140 c3        1 3BN     -0.049100
     13 C9          6.2440   -0.3680    2.0120 ca        1 3BN     -0.205600
     14 C10         7.5150   -0.5750    1.4610 ca        1 3BN     -0.071000
     15 C11         8.6230    0.0690    2.0180 ca        1 3BN     -0.141600
     16 C12         8.4760    0.9270    3.1080 ca        1 3BN     -0.015000
     17 C13         7.1950    1.1540    3.6780 ca        1 3BN      0.158600
     18 C14         6.0860    0.4810    3.1260 ca        1 3BN     -0.065000
     19 C15         9.9500   -0.1540    1.3660 c         1 3BN      0.605300
     20 N3          7.0320    2.0360    4.7590 nh        1 3BN     -0.671900
     21 O4          9.9740   -0.4310    0.1580 o         1 3BN     -0.544100
     22 C16         6.0890    1.6490    5.7740 c3        1 3BN      0.184100
     23 C17        12.3390    0.4340    1.5840 ca        1 3BN     -0.080000
     24 C18        13.5110    0.5370    2.3330 ca        1 3BN     -0.131000
     25 C19        13.5200    0.1560    3.6740 ca        1 3BN     -0.075000
     26 C20        12.3530   -0.3290    4.2720 ca        1 3BN     -0.131000
     27 C21        11.1770   -0.4210    3.5340 ca        1 3BN     -0.080000
     28 C22        11.1620   -0.0360    2.1850 ca        1 3BN     -0.193600
     29 S1          7.6170    3.6110    4.7070 s6        1 3BN      1.458900
     30 C23         8.1570    3.8740    6.2760 c3        1 3BN     -0.388300
     31 O5          8.7020    3.6250    3.8140 o         1 3BN     -0.636300
     32 O6          6.5460    4.4640    4.4200 o         1 3BN     -0.636300
     33 C24         6.5390   -4.4630   -1.9180 ca        1 3BN     -0.136500
     34 C25         7.7660   -5.1130   -1.7690 ca        1 3BN     -0.106500
     35 C26         8.9350   -4.3730   -1.5910 ca        1 3BN     -0.090000
     36 C27         8.8800   -2.9770   -1.5690 ca        1 3BN     -0.106500
     37 C28         7.6600   -2.3260   -1.7320 ca        1 3BN     -0.136500
     38 C29         6.4800   -3.0660   -1.8970 ca        1 3BN     -0.188300
     39 H11        -0.4870    1.6410   -3.5940 hc        1 3BN      0.119200
     40 H12A       -0.6140    0.7720   -5.2000 hc        1 3BN      0.119200
     41 H2          1.4150   -0.6960   -4.6520 hx        1 3BN      0.150700
     42 H31         1.8890    2.4290   -4.1830 hc        1 3BN      0.119200
     43 H32         1.7900    1.5730   -5.7980 hc        1 3BN      0.119200
     44 HN1         1.0070   -0.6630   -2.2350 hn        1 3BN      0.460800
     45 H41         3.7520    0.2680   -2.9770 hx        1 3BN      0.127200
     46 H42         3.0920   -1.4430   -3.1530 hx        1 3BN      0.127200
     47 H5          3.3850    0.1590   -0.4680 h1        1 3BN      0.083700
     48 H6          5.5910   -0.4750   -1.1110 hx        1 3BN      0.119700
     49 HN2         6.0930   -2.3800    0.3200 hn        1 3BN      0.478800
     50 HO3         2.3050   -1.5430    0.3330 ho        1 3BN      0.459000
     51 H81         5.2350   -1.8080   -3.0870 hc        1 3BN      0.085700
     52 H82         4.3420   -3.1140   -2.1800 hc        1 3BN      0.085700
     53 H10         7.6990   -1.2070    0.5740 ha        1 3BN      0.154000
     54 H12         9.3700    1.4580    3.4980 ha        1 3BN      0.211000
     55 H14         5.0780    0.6240    3.5540 ha        1 3BN      0.174000
     56 H161        5.0640    2.0510    5.5450 h1        1 3BN      0.059033
     57 H162        6.0240    0.5320    5.8650 h1        1 3BN      0.059033
     58 H163        6.4270    2.0570    6.7660 h1        1 3BN      0.059033
     59 H19        14.4480    0.2320    4.2630 ha        1 3BN      0.157000
     60 H20        12.3670   -0.6420    5.3270 ha        1 3BN      0.154500
     61 H21        10.2650   -0.8160    4.0060 ha        1 3BN      0.140500
     62 H231        8.6590    3.0070    6.7740 h1        1 3BN      0.141367
     63 H232        7.3510    4.2150    6.9770 h1        1 3BN      0.141367
     64 H233        8.9260    4.6970    6.2890 h1        1 3BN      0.141367
     65 H24         5.6250   -5.0570   -2.0750 ha        1 3BN      0.138500
     66 H25         7.8080   -6.2140   -1.8020 ha        1 3BN      0.173000
     67 H26         9.9030   -4.8880   -1.4790 ha        1 3BN      0.168000
     68 H27         9.8000   -2.3810   -1.4280 ha        1 3BN      0.173000
     69 H28         7.6410   -1.2260   -1.7670 ha        1 3BN      0.138500
     70 H17        12.3300    0.7190    0.5200 ha        1 3BN      0.140500
     71 H121        1.5600    0.9080   -2.1380 hn        1 3BN      0.460800
     72 H22         4.4630   -2.7150    0.4950 hn        1 3BN      0.478800
     73 H18        14.4310    0.9160    1.8600 ha        1 3BN      0.154500
@<TRIPOS>BOND
     1    1    2 1   
     2    1    3 1   
     3    1   39 1   
     4    1   40 1   
     5    2    3 1   
     6    2    4 1   
     7    2   41 1   
     8    3   42 1   
     9    3   43 1   
    10    4    5 1   
    11    4   44 1   
    12    4   71 1   
    13    5    6 1   
    14    5   45 1   
    15    5   46 1   
    16    6    7 1   
    17    6   11 1   
    18    6   47 1   
    19    7    8 1   
    20    7   12 1   
    21    7   48 1   
    22    8    9 1   
    23    8   49 1   
    24    8   72 1   
    25    9   10 2   
    26    9   13 1   
    27   11   50 1   
    28   12   38 1   
    29   12   51 1   
    30   12   52 1   
    31   13   14 ar  
    32   13   18 ar  
    33   14   15 ar  
    34   14   53 1   
    35   15   16 ar  
    36   15   19 1   
    37   16   17 ar  
    38   16   54 1   
    39   17   18 ar  
    40   17   20 1   
    41   18   55 1   
    42   19   21 2   
    43   19   28 1   
    44   20   22 1   
    45   20   29 1   
    46   22   56 1   
    47   22   57 1   
    48   22   58 1   
    49   23   24 ar  
    50   23   28 ar  
    51   23   70 1   
    52   24   25 ar  
    53   24   73 1   
    54   25   26 ar  
    55   25   59 1   
    56   26   27 ar  
    57   26   60 1   
    58   27   28 ar  
    59   27   61 1   
    60   29   30 1   
    61   29   31 2   
    62   29   32 2   
    63   30   62 1   
    64   30   63 1   
    65   30   64 1   
    66   33   34 ar  
    67   33   38 ar  
    68   33   65 1   
    69   34   35 ar  
    70   34   66 1   
    71   35   36 ar  
    72   35   67 1   
    73   36   37 ar  
    74   36   68 1   
    75   37   38 ar  
    76   37   69 1   
@<TRIPOS>SUBSTRUCTURE
     1 3BN         1 TEMP              0 ****  ****    0 ROOT
