@<TRIPOS>MOLECULE
3BN
   73    76     1     0     0
SMALL
bcc


@<TRIPOS>ATOM
      1 C1          0.2040    1.2570   -4.3810 cx        1 3BN     -0.091900
      2 C2          1.3790    0.3510   -4.0630 cx        1 3BN     -0.022500
      3 C3          1.5950    1.7200   -4.6770 cx        1 3BN     -0.091900
      4 N1          1.7430    0.0750   -2.6590 n4        1 3BN     -0.722000
      5 C4          3.1330   -0.4560   -2.5410 c3        1 3BN      0.103800
      6 C5          3.4870   -0.8200   -1.0840 c3        1 3BN      0.107100
      7 C6          4.9320   -1.3880   -1.0080 c3        1 3BN      0.111500
      8 N2          5.1800   -2.0470    0.3230 n4        1 3BN     -0.680800
      9 C7          5.0380   -1.0730    1.4790 c         1 3BN      0.591700
     10 O2          3.8650   -0.8900    1.8040 o         1 3BN     -0.496100
     11 O3          2.5370   -1.7810   -0.6670 oh        1 3BN     -0.609800
     12 C8          5.2490   -2.3730   -2.1460 c3        1 3BN     -0.049100
     13 C9          6.2390   -0.4690    2.0290 ca        1 3BN     -0.205600
     14 C10         7.5220   -0.6650    1.4990 ca        1 3BN     -0.071000
     15 C11         8.6120    0.0060    2.0550 ca        1 3BN     -0.141600
     16 C12         8.4390    0.8840    3.1280 ca        1 3BN     -0.014000
     17 C13         7.1470    1.0950    3.6790 ca        1 3BN      0.158600
     18 C14         6.0560    0.3940    3.1290 ca        1 3BN     -0.065000
     19 C15         9.9510   -0.2050    1.4210 c         1 3BN      0.605300
     20 N3          6.9570    2.0030    4.7340 nh        1 3BN     -0.671900
     21 O4          9.9900   -0.4970    0.2160 o         1 3BN     -0.544100
     22 C16         6.1570    1.5660    5.8450 c3        1 3BN      0.184100
     23 C17        12.3320    0.4060    1.6530 ca        1 3BN     -0.080000
     24 C18        13.4930    0.5370    2.4120 ca        1 3BN     -0.131000
     25 C19        13.4890    0.1890    3.7630 ca        1 3BN     -0.075000
     26 C20        12.3200   -0.2910    4.3580 ca        1 3BN     -0.131000
     27 C21        11.1530   -0.4110    3.6090 ca        1 3BN     -0.080000
     28 C22        11.1510   -0.0590    2.2510 ca        1 3BN     -0.193600
     29 S1          7.4070    3.6100    4.5560 s6        1 3BN      1.458900
     30 C23         7.6660    4.1090    6.1380 c3        1 3BN     -0.388300
     31 O5          8.6090    3.6320    3.8300 o         1 3BN     -0.636300
     32 O6          6.3270    4.3080    4.0020 o         1 3BN     -0.636300
     33 C24         6.5860   -4.4830   -2.0030 ca        1 3BN     -0.136000
     34 C25         7.8040   -5.1480   -1.8560 ca        1 3BN     -0.106500
     35 C26         8.9760   -4.4250   -1.6300 ca        1 3BN     -0.090000
     36 C27         8.9320   -3.0300   -1.5590 ca        1 3BN     -0.106500
     37 C28         7.7200   -2.3630   -1.7180 ca        1 3BN     -0.136000
     38 C29         6.5370   -3.0870   -1.9320 ca        1 3BN     -0.188300
     39 H11        -0.4650    0.9450   -5.2100 hc        1 3BN      0.119200
     40 H12A       -0.3650    1.7420   -3.5650 hc        1 3BN      0.119200
     41 H2          1.5450   -0.5590   -4.6870 hx        1 3BN      0.150700
     42 H31         1.9540    1.7570   -5.7260 hc        1 3BN      0.119200
     43 H32         2.0270    2.5410   -4.0720 hc        1 3BN      0.119200
     44 HN1         1.0900   -0.6300   -2.2800 hn        1 3BN      0.460800
     45 H41         3.8530    0.3190   -2.9270 hx        1 3BN      0.127200
     46 H42         3.1900   -1.3800   -3.1900 hx        1 3BN      0.127200
     47 H5          3.4370    0.1020   -0.4330 h1        1 3BN      0.083700
     48 H6          5.6530   -0.5150   -1.0730 hx        1 3BN      0.119700
     49 HN2         4.4930   -2.8050    0.4360 hn        1 3BN      0.478800
     50 HO3         2.3380   -1.6320    0.2730 ho        1 3BN      0.459000
     51 H81         4.4040   -3.1070   -2.2520 hc        1 3BN      0.085700
     52 H82         5.3220   -1.7780   -3.0980 hc        1 3BN      0.085700
     53 H10         7.7280   -1.3130    0.6280 ha        1 3BN      0.154000
     54 H12         9.3160    1.4420    3.5200 ha        1 3BN      0.211000
     55 H14         5.0420    0.5270    3.5470 ha        1 3BN      0.174000
     56 H161        5.1750    2.1140    5.8610 h1        1 3BN      0.059033
     57 H162        5.9470    0.4650    5.7970 h1        1 3BN      0.059033
     58 H163        6.7080    1.7680    6.8050 h1        1 3BN      0.059033
     59 H19        14.4100    0.2880    4.3610 ha        1 3BN      0.157000
     60 H20        12.3230   -0.5770    5.4210 ha        1 3BN      0.154500
     61 H21        10.2390   -0.8020    4.0800 ha        1 3BN      0.140500
     62 H231        8.1010    5.1470    6.1520 h1        1 3BN      0.141367
     63 H232        8.3930    3.4850    6.7180 h1        1 3BN      0.141367
     64 H233        6.7370    4.1730    6.7600 h1        1 3BN      0.141367
     65 H24         5.6700   -5.0640   -2.1970 ha        1 3BN      0.138500
     66 H25         7.8400   -6.2470   -1.9280 ha        1 3BN      0.173000
     67 H26         9.9390   -4.9520   -1.5210 ha        1 3BN      0.168000
     68 H27         9.8530   -2.4460   -1.3810 ha        1 3BN      0.173000
     69 H28         7.7100   -1.2620   -1.7140 ha        1 3BN      0.138500
     70 H17        12.3330    0.6650    0.5820 ha        1 3BN      0.140500
     71 H121        1.6480    0.9330   -2.1030 hn        1 3BN      0.460800
     72 H22         6.1250   -2.4650    0.3020 hn        1 3BN      0.478800
     73 H18        14.4160    0.9120    1.9410 ha        1 3BN      0.154500
@<TRIPOS>BOND
     1    1    2 1   
     2    1    3 1   
     3    1   39 1   
     4    1   40 1   
     5    2    3 1   
     6    2    4 1   
     7    2   41 1   
     8    3   42 1   
     9    3   43 1   
    10    4    5 1   
    11    4   44 1   
    12    4   71 1   
    13    5    6 1   
    14    5   45 1   
    15    5   46 1   
    16    6    7 1   
    17    6   11 1   
    18    6   47 1   
    19    7    8 1   
    20    7   12 1   
    21    7   48 1   
    22    8    9 1   
    23    8   49 1   
    24    8   72 1   
    25    9   10 2   
    26    9   13 1   
    27   11   50 1   
    28   12   38 1   
    29   12   51 1   
    30   12   52 1   
    31   13   14 ar  
    32   13   18 ar  
    33   14   15 ar  
    34   14   53 1   
    35   15   16 ar  
    36   15   19 1   
    37   16   17 ar  
    38   16   54 1   
    39   17   18 ar  
    40   17   20 1   
    41   18   55 1   
    42   19   21 2   
    43   19   28 1   
    44   20   22 1   
    45   20   29 1   
    46   22   56 1   
    47   22   57 1   
    48   22   58 1   
    49   23   24 ar  
    50   23   28 ar  
    51   23   70 1   
    52   24   25 ar  
    53   24   73 1   
    54   25   26 ar  
    55   25   59 1   
    56   26   27 ar  
    57   26   60 1   
    58   27   28 ar  
    59   27   61 1   
    60   29   30 1   
    61   29   31 2   
    62   29   32 2   
    63   30   62 1   
    64   30   63 1   
    65   30   64 1   
    66   33   34 ar  
    67   33   38 ar  
    68   33   65 1   
    69   34   35 ar  
    70   34   66 1   
    71   35   36 ar  
    72   35   67 1   
    73   36   37 ar  
    74   36   68 1   
    75   37   38 ar  
    76   37   69 1   
@<TRIPOS>SUBSTRUCTURE
     1 3BN         1 TEMP              0 ****  ****    0 ROOT
