@<TRIPOS>MOLECULE
3BN
   71    65     1     0     0
SMALL
bcc


@<TRIPOS>ATOM
      1 C1         -2.7450   -6.5530    1.2840 cx        1 3BN     -0.202000
      2 C2         -2.4570   -6.1080   -0.1410 cx        1 3BN     -0.097000
      3 C3         -3.5310   -7.1500    0.1270 cx        1 3BN     -0.202000
      4 N1         -2.9350   -4.7920   -0.4960 n3        1 3BN     -0.288000
      5 C4         -1.8540   -4.0300   -1.0980 c3        1 3BN     -0.108000
      6 C5         -1.4020   -2.9330   -0.1300 c3        1 3BN      0.010000
      7 C6         -0.0840   -2.3500   -0.6030 c3        1 3BN      0.038000
      8 N2          0.0860   -1.0520   -0.0510 n         1 3BN     -0.361000
      9 C7          0.2060    0.0970   -0.9240 c2        1 3BN      0.348000
     10 O2          0.5060   -0.0570   -2.0970 o         1 3BN     -0.366000
     11 O3         -1.2390   -3.4760    1.1470 oh        1 3BN     -0.336000
     12 C8          1.0640   -3.2500   -0.1480 c3        1 3BN     -0.135000
     13 C9          0.0190    1.5180   -0.3580 c2        1 3BN     -0.107000
     14 C10         0.4590    2.6240   -1.0900 c2        1 3BN     -0.041000
     15 C11         0.2120    3.9160   -0.6200 c1        1 3BN     -0.138000
     16 C12        -0.4720    4.1010    0.5760 c1        1 3BN     -0.100000
     17 C13        -0.9120    2.9950    1.3080 c1        1 3BN      0.034000
     18 C14        -0.6640    1.7030    0.8380 c1        1 3BN     -0.114000
     19 C15         0.6270    5.1400   -1.4690 c2        1 3BN      0.307000
     20 N3         -1.5890    3.1860    2.5600 n3        1 3BN     -0.781000
     21 O4         -0.0480    5.4730   -2.4330 o         1 3BN     -0.275000
     22 C16        -0.8400    3.2230    3.7800 c3        1 3BN     -0.079000
     23 C17         2.3710    6.7040   -2.1910 c1        1 3BN     -0.076000
     24 C18         3.4920    7.5130   -2.0260 c1        1 3BN     -0.124250
     25 C19         4.1700    7.5230   -0.8130 c1        1 3BN     -0.124250
     26 C20         3.7270    6.7240    0.2400 c1        1 3BN     -0.124250
     27 C21         2.6050    5.9140    0.0750 c1        1 3BN     -0.124250
     28 C22         1.9270    5.9040   -1.1370 c1        1 3BN     -0.152000
     29 S1         -3.2260    3.3820    2.5900 s4        1 3BN      2.032800
     30 C23        -3.7110    4.3130    4.0310 c2        1 3BN     -0.948000
     31 O5         -3.6990    4.0060    1.3820 o         1 3BN     -0.535900
     32 O6         -3.9070    2.1120    2.5340 o         1 3BN     -0.535900
     33 C24         3.2720   -3.4970   -1.1170 c1        1 3BN     -0.127000
     34 C25         4.2160   -4.1580   -1.8990 c1        1 3BN     -0.124250
     35 C26         3.8020   -4.9860   -2.9380 c1        1 3BN     -0.124250
     36 C27         2.4430   -5.1540   -3.1960 c1        1 3BN     -0.124250
     37 C28         1.4990   -4.4930   -2.4140 c1        1 3BN     -0.124250
     38 C29         1.9130   -3.6650   -1.3750 c1        1 3BN     -0.069000
     39 H11        -2.0700   -7.1410    1.6930 hc        1 3BN      0.114000
     40 H12A       -3.2300   -5.9090    1.8390 hc        1 3BN      0.114000
     41 H2         -1.6210   -6.4480   -0.5330 h1        1 3BN      0.097000
     42 H31        -4.4550   -6.8410    0.0360 hc        1 3BN      0.114000
     43 H32        -3.2970   -8.0780   -0.1150 hc        1 3BN      0.114000
     44 HN1        -3.6280   -4.8700   -1.0970 hn        1 3BN      0.161000
     45 H41        -2.1690   -3.6190   -1.9370 h1        1 3BN      0.084500
     46 H42        -1.1010   -4.6270   -1.2900 h1        1 3BN      0.084500
     47 H5         -2.0810   -2.2230   -0.1000 h1        1 3BN      0.087000
     48 H6         -0.0850   -2.2920   -1.5840 h1        1 3BN      0.129000
     49 HN2         0.1450   -0.9440    0.8590 hn        1 3BN      0.239000
     50 HO3        -1.0200   -4.3380    1.0780 ho        1 3BN      0.221000
     51 H81         1.6300   -2.7600    0.4930 hc        1 3BN      0.104000
     52 H82         0.7000   -4.0500    0.2830 hc        1 3BN      0.104000
     53 H10         0.9420    2.4940   -1.9350 ha        1 3BN      0.177000
     54 H12        -0.6460    5.0070    0.9060 ha        1 3BN      0.150000
     55 H14        -0.9730    0.9270    1.3520 ha        1 3BN      0.180000
     56 H161        0.1210    3.1680    3.5770 h1        1 3BN      0.093667
     57 H162       -1.0270    4.0610    4.2520 h1        1 3BN      0.093667
     58 H163       -1.1000    2.4640    4.3470 h1        1 3BN      0.093667
     59 H17         1.8920    6.6970   -3.0480 ha        1 3BN      0.153000
     60 H18         3.8050    8.0780   -2.7680 ha        1 3BN      0.135125
     61 H19         4.9620    8.0950   -0.6970 ha        1 3BN      0.135125
     62 H20         4.2060    6.7310    1.0970 ha        1 3BN      0.135125
     63 H21         2.2950    5.3540    0.8130 ha        1 3BN      0.135125
     64 H231       -3.4820    5.2590    3.9010 ha        1 3BN      0.160333
     65 H232       -4.6780    4.2260    4.1650 ha        1 3BN      0.160333
     66 H233       -3.2370    3.9660    4.8210 ha        1 3BN      0.160333
     67 H24         3.5640   -2.9130   -0.3840 ha        1 3BN      0.130000
     68 H25         5.1740   -4.0400   -1.7180 ha        1 3BN      0.135125
     69 H26         4.4680   -5.4520   -3.4900 ha        1 3BN      0.135125
     70 H27         2.1510   -5.7380   -3.9290 ha        1 3BN      0.135125
     71 H28         0.5430   -4.6110   -2.5960 ha        1 3BN      0.135125
@<TRIPOS>BOND
     1    1    2 1   
     2    1    3 1   
     3    1   39 1   
     4    1   40 1   
     5    2    3 1   
     6    2    4 1   
     7    2   41 1   
     8    3   42 1   
     9    3   43 1   
    10    4    5 1   
    11    4   44 1   
    12    5    6 1   
    13    5   45 1   
    14    5   46 1   
    15    6    7 1   
    16    6   11 1   
    17    6   47 1   
    18    7    8 1   
    19    7   12 1   
    20    7   48 1   
    21    8    9 1   
    22    8   49 1   
    23    9   10 1   
    24    9   13 1   
    25   11   50 1   
    26   12   38 1   
    27   12   51 1   
    28   12   52 1   
    29   13   14 1   
    30   13   18 1   
    31   14   15 1   
    32   14   53 1   
    33   15   19 1   
    34   16   17 1   
    35   16   54 1   
    36   17   20 1   
    37   18   55 1   
    38   19   21 1   
    39   19   28 1   
    40   20   22 1   
    41   20   29 1   
    42   22   56 1   
    43   22   57 1   
    44   22   58 1   
    45   23   28 1   
    46   23   59 1   
    47   24   25 1   
    48   24   60 1   
    49   25   61 1   
    50   26   27 1   
    51   26   62 1   
    52   27   63 1   
    53   29   31 1   
    54   29   32 1   
    55   30   64 1   
    56   30   65 1   
    57   30   66 1   
    58   33   38 1   
    59   33   67 1   
    60   34   35 1   
    61   34   68 1   
    62   35   69 1   
    63   36   37 1   
    64   36   70 1   
    65   37   71 1   
@<TRIPOS>SUBSTRUCTURE
     1 3BN         1 TEMP              0 ****  ****    0 ROOT
