@<TRIPOS>MOLECULE
3BN
   74    76     1     0     0
SMALL
bcc


@<TRIPOS>ATOM
      1 C1         -1.3970   -1.8700   -3.2530 cx        1 3BN     -0.088400
      2 C2          0.1200   -1.9040   -3.2870 cx        1 3BN     -0.028500
      3 C3         -0.6500   -0.8020   -3.9870 cx        1 3BN     -0.088400
      4 N1          0.8950   -1.6350   -2.0560 n4        1 3BN     -0.723000
      5 C4          2.3200   -1.3170   -2.3620 c3        1 3BN      0.086800
      6 C5          3.1730   -1.1030   -1.0930 c3        1 3BN      0.100100
      7 C6          4.6410   -0.7670   -1.4940 c3        1 3BN      0.132500
      8 N2          5.5690   -0.8730   -0.3080 n4        1 3BN     -0.680800
      9 C7          5.5420    0.3080    0.6340 c         1 3BN      0.580700
     10 O2          4.5430    1.0170    0.5750 o         1 3BN     -0.451100
     11 O3          3.1740   -2.3100   -0.3500 oh        1 3BN     -0.604800
     12 C8          5.1520   -1.6650   -2.6370 c3        1 3BN     -0.052100
     13 C9          6.7030    0.4830    1.5150 ca        1 3BN     -0.192600
     14 C10         7.6710   -0.5080    1.7090 ca        1 3BN     -0.040000
     15 C11         8.7470   -0.2740    2.5720 ca        1 3BN     -0.125600
     16 C12         8.8660    0.9440    3.2430 ca        1 3BN     -0.021000
     17 C13         7.8950    1.9540    3.0540 ca        1 3BN      0.012600
     18 C14         6.8080    1.7120    2.1950 ca        1 3BN     -0.044000
     19 C15         9.7940   -1.3440    2.6860 c         1 3BN      0.592300
     20 N3          8.0390    3.2240    3.7250 nh        1 3BN     -0.792600
     21 O4         10.0610   -1.9900    1.6650 o         1 3BN     -0.506100
     22 C16         7.9530    3.1080    5.1790 c3        1 3BN      0.092100
     23 C17        11.7080   -2.1470    4.0140 ca        1 3BN     -0.081500
     24 C18        12.3300   -2.4050    5.2360 ca        1 3BN     -0.129500
     25 C19        11.6800   -2.0970    6.4300 ca        1 3BN     -0.064000
     26 C20        10.4040   -1.5260    6.4050 ca        1 3BN     -0.129500
     27 C21         9.7830   -1.2550    5.1910 ca        1 3BN     -0.081500
     28 C22        10.4330   -1.5610    3.9850 ca        1 3BN     -0.205600
     29 S1         10.1120    4.3630    3.0630 s4        1 3BN      1.650500
     30 C23        10.0930    5.4820    4.1960 c3        1 3BN     -0.582800
     31 O5         10.8510    3.2570    3.2910 o         1 3BN     -0.403400
     32 O6          9.5660    4.6770    1.8710 o         1 3BN     -0.403400
     33 C24         7.5090   -2.4640   -2.3810 ca        1 3BN     -0.132500
     34 C25         8.8670   -2.3690   -2.6790 ca        1 3BN     -0.107000
     35 C26         9.3370   -1.3260   -3.4800 ca        1 3BN     -0.082000
     36 C27         8.4460   -0.3760   -3.9810 ca        1 3BN     -0.107000
     37 C28         7.0860   -0.4670   -3.6850 ca        1 3BN     -0.132500
     38 C29         6.6100   -1.5100   -2.8820 ca        1 3BN     -0.193300
     39 H11        -1.9330   -2.6620   -3.8170 hc        1 3BN      0.121700
     40 H12A       -1.9310   -1.6100   -2.3180 hc        1 3BN      0.121700
     41 H2          0.6290   -2.6880   -3.8960 hx        1 3BN      0.153700
     42 H31        -0.6480    0.2270   -3.5810 hc        1 3BN      0.121700
     43 H32        -0.6390   -0.8010   -5.0970 hc        1 3BN      0.121700
     44 HN1         0.4620   -0.8580   -1.5440 hn        1 3BN      0.456800
     45 H41         2.7290   -2.1930   -2.9490 hx        1 3BN      0.131200
     46 H42         2.3520   -0.3910   -3.0030 hx        1 3BN      0.131200
     47 H5          2.7670   -0.2420   -0.4870 h1        1 3BN      0.092700
     48 H6          4.6650    0.3140   -1.8310 hx        1 3BN      0.123700
     49 HN2         5.3260   -1.7260    0.2160 hn        1 3BN      0.485300
     50 HO3         2.6830   -2.1700    0.4730 ho        1 3BN      0.444000
     51 H81         4.5950   -1.3660   -3.5680 hc        1 3BN      0.091700
     52 H82         4.9060   -2.7370   -2.4060 hc        1 3BN      0.091700
     53 H10         7.6390   -1.4900    1.2050 ha        1 3BN      0.165000
     54 H12         9.7390    1.1020    3.9080 ha        1 3BN      0.196000
     55 H14         6.0250    2.4770    2.0370 ha        1 3BN      0.176000
     56 H161        8.0170    4.1370    5.6250 h1        1 3BN      0.083700
     57 H162        8.8010    2.4770    5.5570 h1        1 3BN      0.083700
     58 H163        6.9890    2.6400    5.5180 h1        1 3BN      0.083700
     59 H19        12.1670   -2.3130    7.3960 ha        1 3BN      0.167000
     60 H20         9.8850   -1.3050    7.3520 ha        1 3BN      0.161500
     61 H21         8.7680   -0.8330    5.1790 ha        1 3BN      0.138500
     62 H231       10.9800    6.2030    4.1790 h1        1 3BN      0.215700
     63 H232       10.1280    5.1150    5.2690 h1        1 3BN      0.215700
     64 H233        9.2190    6.2040    4.1810 h1        1 3BN      0.215700
     65 H24         7.1410   -3.3230   -1.7990 ha        1 3BN      0.137000
     66 H25         9.5690   -3.1310   -2.2990 ha        1 3BN      0.169500
     67 H26        10.4090   -1.2660   -3.7340 ha        1 3BN      0.173000
     68 H27         8.8130    0.4360   -4.6310 ha        1 3BN      0.169500
     69 H28         6.3860    0.2690   -4.1110 ha        1 3BN      0.137000
     70 H17        12.2080   -2.4100    3.0670 ha        1 3BN      0.138500
     71 H121        0.8610   -2.4780   -1.4630 hn        1 3BN      0.456800
     72 H22         6.5350   -0.9860   -0.6770 hn        1 3BN      0.485300
     73 H311        7.3070    3.8430    3.3980 hn        1 3BN      0.406800
     74 H18        13.3330   -2.8640    5.2530 ha        1 3BN      0.161500
@<TRIPOS>BOND
     1    1    2 1   
     2    1    3 1   
     3    1   39 1   
     4    1   40 1   
     5    2    3 1   
     6    2    4 1   
     7    2   41 1   
     8    3   42 1   
     9    3   43 1   
    10    4    5 1   
    11    4   44 1   
    12    4   71 1   
    13    5    6 1   
    14    5   45 1   
    15    5   46 1   
    16    6    7 1   
    17    6   11 1   
    18    6   47 1   
    19    7    8 1   
    20    7   12 1   
    21    7   48 1   
    22    8    9 1   
    23    8   49 1   
    24    8   72 1   
    25    9   10 2   
    26    9   13 1   
    27   11   50 1   
    28   12   38 1   
    29   12   51 1   
    30   12   52 1   
    31   13   14 ar  
    32   13   18 ar  
    33   14   15 ar  
    34   14   53 1   
    35   15   16 ar  
    36   15   19 1   
    37   16   17 ar  
    38   16   54 1   
    39   17   18 ar  
    40   17   20 1   
    41   18   55 1   
    42   19   21 2   
    43   19   28 1   
    44   20   22 1   
    45   20   73 1   
    46   22   56 1   
    47   22   57 1   
    48   22   58 1   
    49   23   24 ar  
    50   23   28 ar  
    51   23   70 1   
    52   24   25 ar  
    53   24   74 1   
    54   25   26 ar  
    55   25   59 1   
    56   26   27 ar  
    57   26   60 1   
    58   27   28 ar  
    59   27   61 1   
    60   29   30 1   
    61   29   31 1   
    62   29   32 1   
    63   30   62 1   
    64   30   63 1   
    65   30   64 1   
    66   33   34 ar  
    67   33   38 ar  
    68   33   65 1   
    69   34   35 ar  
    70   34   66 1   
    71   35   36 ar  
    72   35   67 1   
    73   36   37 ar  
    74   36   68 1   
    75   37   38 ar  
    76   37   69 1   
@<TRIPOS>SUBSTRUCTURE
     1 3BN         1 TEMP              0 ****  ****    0 ROOT
