@<TRIPOS>MOLECULE
3BN
   71    74     1     0     0
SMALL
bcc


@<TRIPOS>ATOM
      1 C1         -3.4790    6.6160    1.1660 cx        1 3BN     -0.127900
      2 C2         -2.9120    5.3310    0.5970 cx        1 3BN      0.105500
      3 C3         -2.2330    6.0310    1.7610 cx        1 3BN     -0.127900
      4 N1         -3.5910    4.0830    0.8020 n3        1 3BN     -0.803200
      5 C4         -2.9160    2.9530    0.1950 c3        1 3BN      0.136800
      6 C5         -3.8120    1.7060    0.1170 c3        1 3BN      0.117100
      7 C6         -3.0880    0.5310   -0.6060 c3        1 3BN      0.076700
      8 N2         -1.7810    0.2490   -0.0670 n         1 3BN     -0.557900
      9 C7         -0.6240    0.6600   -0.6970 c         1 3BN      0.675700
     10 O2         -0.6540    1.3880   -1.7090 o         1 3BN     -0.599100
     11 O3         -5.0210    1.9890   -0.5700 oh        1 3BN     -0.596800
     12 C8         -4.0260   -0.6910   -0.5520 c3        1 3BN     -0.055100
     13 C9          0.6730    0.2230   -0.0940 ca        1 3BN     -0.119600
     14 C10         0.8700   -1.0930    0.3250 ca        1 3BN     -0.093000
     15 C11         2.1160   -1.4660    0.8370 ca        1 3BN     -0.147600
     16 C12         3.1570   -0.5380    0.9160 ca        1 3BN     -0.099000
     17 C13         2.9620    0.7990    0.5060 ca        1 3BN      0.145600
     18 C14         1.6930    1.1710    0.0040 ca        1 3BN     -0.121000
     19 C15         2.3770   -2.8630    1.2660 c         1 3BN      0.588300
     20 N3          4.0080    1.7410    0.5910 nh        1 3BN     -0.674900
     21 O4          3.4760   -3.3950    1.0610 o         1 3BN     -0.520100
     22 C16         4.9910    1.5210    1.6180 c3        1 3BN      0.192100
     23 C17         1.2140   -4.9820    1.8280 ca        1 3BN     -0.084500
     24 C18         0.2050   -5.6900    2.4780 ca        1 3BN     -0.143000
     25 C19        -0.7300   -5.0140    3.2620 ca        1 3BN     -0.101000
     26 C20        -0.6560   -3.6270    3.3940 ca        1 3BN     -0.143000
     27 C21         0.3440   -2.9130    2.7370 ca        1 3BN     -0.084500
     28 C22         1.2830   -3.5870    1.9480 ca        1 3BN     -0.171600
     29 S1          4.1910    3.0100   -0.4520 s6        1 3BN      1.459900
     30 C23         4.2480    2.2520   -1.9660 c3        1 3BN     -0.373300
     31 O5          3.0640    3.8490   -0.4190 o         1 3BN     -0.645300
     32 O6          5.4310    3.6320   -0.2070 o         1 3BN     -0.645300
     33 C24        -3.2030   -3.0460   -0.7590 ca        1 3BN     -0.127500
     34 C25        -2.7660   -4.1240   -1.5290 ca        1 3BN     -0.125500
     35 C26        -2.6600   -3.9980   -2.9130 ca        1 3BN     -0.130000
     36 C27        -2.9950   -2.7910   -3.5280 ca        1 3BN     -0.125500
     37 C28        -3.4340   -1.7140   -2.7610 ca        1 3BN     -0.127500
     38 C29        -3.5380   -1.8320   -1.3690 ca        1 3BN     -0.083300
     39 H11        -3.4080    7.5290    0.5490 hc        1 3BN      0.073200
     40 H12A       -4.4140    6.5840    1.7520 hc        1 3BN      0.073200
     41 H2         -2.3900    5.4130   -0.3880 h1        1 3BN      0.062700
     42 H31        -2.2870    5.5830    2.7680 hc        1 3BN      0.073200
     43 H32        -1.2620    6.5200    1.5730 hc        1 3BN      0.073200
     44 HN1        -4.5400    4.1470    0.4790 hn        1 3BN      0.370800
     45 H41        -2.0210    2.7250    0.8380 h1        1 3BN      0.048700
     46 H42        -2.5330    3.1740   -0.8470 h1        1 3BN      0.048700
     47 H5         -4.1480    1.3890    1.1430 h1        1 3BN      0.087700
     48 H6         -2.9570    0.8330   -1.6910 h1        1 3BN      0.083700
     49 HN2        -1.7260   -0.3570    0.7150 hn        1 3BN      0.314500
     50 HO3        -4.7850    2.3290   -1.4430 ho        1 3BN      0.400000
     51 H81        -4.1710   -1.0070    0.5150 hc        1 3BN      0.066700
     52 H82        -5.0280   -0.3530   -0.9370 hc        1 3BN      0.066700
     53 H10         0.0690   -1.8430    0.2380 ha        1 3BN      0.154000
     54 H12         4.1340   -0.8780    1.2980 ha        1 3BN      0.160000
     55 H14         1.4820    2.2080   -0.3230 ha        1 3BN      0.188000
     56 H161        4.4960    1.2090    2.5770 h1        1 3BN      0.057033
     57 H162        5.7180    0.7200    1.3130 h1        1 3BN      0.057033
     58 H163        5.5620    2.4730    1.8020 h1        1 3BN      0.057033
     59 H18         0.1520   -6.7840    2.3770 ha        1 3BN      0.139000
     60 H19        -1.5220   -5.5740    3.7800 ha        1 3BN      0.138000
     61 H20        -1.3860   -3.0940    4.0220 ha        1 3BN      0.139000
     62 H21         0.4040   -1.8190    2.8470 ha        1 3BN      0.147000
     63 H231        3.3450    1.6320   -2.1950 h1        1 3BN      0.124033
     64 H232        4.3060    3.0180   -2.7820 h1        1 3BN      0.124033
     65 H233        5.1360    1.5880   -2.1020 h1        1 3BN      0.124033
     66 H24        -3.2900   -3.1550    0.3320 ha        1 3BN      0.130500
     67 H25        -2.5060   -5.0750   -1.0410 ha        1 3BN      0.132500
     68 H26        -2.3140   -4.8480   -3.5200 ha        1 3BN      0.133000
     69 H27        -2.9140   -2.6890   -4.6200 ha        1 3BN      0.132500
     70 H28        -3.7000   -0.7650   -3.2490 ha        1 3BN      0.130500
     71 H17         1.9690   -5.5090    1.2220 ha        1 3BN      0.147000
@<TRIPOS>BOND
     1    1    2 1   
     2    1    3 1   
     3    1   39 1   
     4    1   40 1   
     5    2    3 1   
     6    2    4 1   
     7    2   41 1   
     8    3   42 1   
     9    3   43 1   
    10    4    5 1   
    11    4   44 1   
    12    5    6 1   
    13    5   45 1   
    14    5   46 1   
    15    6    7 1   
    16    6   11 1   
    17    6   47 1   
    18    7    8 1   
    19    7   12 1   
    20    7   48 1   
    21    8    9 1   
    22    8   49 1   
    23    9   10 2   
    24    9   13 1   
    25   11   50 1   
    26   12   38 1   
    27   12   51 1   
    28   12   52 1   
    29   13   14 ar  
    30   13   18 ar  
    31   14   15 ar  
    32   14   53 1   
    33   15   16 ar  
    34   15   19 1   
    35   16   17 ar  
    36   16   54 1   
    37   17   18 ar  
    38   17   20 1   
    39   18   55 1   
    40   19   21 2   
    41   19   28 1   
    42   20   22 1   
    43   20   29 1   
    44   22   56 1   
    45   22   57 1   
    46   22   58 1   
    47   23   24 ar  
    48   23   28 ar  
    49   23   71 1   
    50   24   25 ar  
    51   24   59 1   
    52   25   26 ar  
    53   25   60 1   
    54   26   27 ar  
    55   26   61 1   
    56   27   28 ar  
    57   27   62 1   
    58   29   30 1   
    59   29   31 2   
    60   29   32 2   
    61   30   63 1   
    62   30   64 1   
    63   30   65 1   
    64   33   34 ar  
    65   33   38 ar  
    66   33   66 1   
    67   34   35 ar  
    68   34   67 1   
    69   35   36 ar  
    70   35   68 1   
    71   36   37 ar  
    72   36   69 1   
    73   37   38 ar  
    74   37   70 1   
@<TRIPOS>SUBSTRUCTURE
     1 3BN         1 TEMP              0 ****  ****    0 ROOT
