@<TRIPOS>MOLECULE
3BP
   78    80     1     0     0
SMALL
bcc


@<TRIPOS>ATOM
      1 C15        -0.2000    0.0760    1.1750 c         1 3BP      0.641100
      2 O1          0.1190   -0.1920    2.3510 o         1 3BP     -0.618100
      3 N17         0.7050    0.0060    0.1420 n         1 3BP     -0.553900
      4 C18         2.1130   -0.2100    0.3770 c3        1 3BP      0.034700
      5 C19         2.5670   -1.6630    0.1580 c3        1 3BP     -0.087400
      6 C20         1.8840   -2.6050    1.1250 c3        1 3BP     -0.153400
      7 C28         2.9670    0.6670   -0.5750 c         1 3BP      0.642100
      8 O30         2.5410    1.0070   -1.6980 o         1 3BP     -0.609100
      9 N31         4.2000    1.0590   -0.1100 n         1 3BP     -0.555900
     10 C32         5.1410    1.7700   -0.9360 c3        1 3BP      0.128300
     11 C16         6.7450   -0.1700   -1.1420 ca        1 3BP     -0.123500
     12 C17         8.0420   -0.6820   -1.1660 ca        1 3BP     -0.100000
     13 C22         9.1300    0.1730   -0.9740 ca        1 3BP     -0.128900
     14 C23         8.9190    1.5390   -0.7660 ca        1 3BP     -0.100000
     15 C24         7.6220    2.0460   -0.7400 ca        1 3BP     -0.123500
     16 C25         6.5270    1.1940   -0.9270 ca        1 3BP     -0.106300
     17 N1         10.8850   -1.0900   -2.0250 n2        1 3BP     -0.825100
     18 C2          2.6800   -3.8840    1.2980 c         1 3BP      0.657100
     19 O2          3.8680   -3.9930    0.9280 o         1 3BP     -0.620100
     20 N3          2.0550   -4.9490    1.8980 n         1 3BP     -0.677000
     21 C1         -2.4140   -0.9200    0.7520 c3        1 3BP     -0.051100
     22 N4         -2.2000    1.3680    1.7550 n3        1 3BP     -0.911100
     23 C5         -1.6680    0.4300    0.8110 c3        1 3BP      0.187500
     24 O4         -2.4890    3.7530    2.3400 o         1 3BP     -0.649800
     25 O3         -2.6160    3.1040    0.0250 o         1 3BP     -0.649800
     26 C9         -4.5500    2.4910    1.5850 c3        1 3BP     -0.321600
     27 C8         -5.3710    3.6490    1.0810 c3        1 3BP     -0.073100
     28 N2         11.2780   -0.1010    0.1580 nh        1 3BP     -0.961800
     29 C11        -4.9130   -1.0070    0.9190 ca        1 3BP     -0.126500
     30 C7         -3.7650   -0.8000    0.1460 ca        1 3BP     -0.098300
     31 C3         -3.9060   -0.5120   -1.2170 ca        1 3BP     -0.126500
     32 C4         -5.1690   -0.4260   -1.7950 ca        1 3BP     -0.117000
     33 C13        -6.3200   -0.6320   -1.0210 cp        1 3BP     -0.029000
     34 C6         -6.1780   -0.9250    0.3420 ca        1 3BP     -0.117000
     35 C12        -9.1970    0.5390   -3.1460 ca        1 3BP     -0.130000
     36 C10        -7.9300    0.4550   -2.5710 ca        1 3BP     -0.116500
     37 C21        -7.6470   -0.5430   -1.6270 cp        1 3BP     -0.045000
     38 C27        -8.6530   -1.4540   -1.2720 ca        1 3BP     -0.116500
     39 C14        -9.9160   -1.3670   -1.8530 ca        1 3BP     -0.130000
     40 C29       -10.1910   -0.3710   -2.7890 ca        1 3BP     -0.123000
     41 H17         0.4490    0.3040   -0.7740 hn        1 3BP      0.339500
     42 H18         2.3280    0.0680    1.4550 h1        1 3BP      0.092700
     43 H191        2.3610   -1.9810   -0.8970 hc        1 3BP      0.073700
     44 H192        3.6800   -1.7100    0.3100 hc        1 3BP      0.073700
     45 H201        1.7780   -2.1150    2.1330 hc        1 3BP      0.075200
     46 H202        0.8500   -2.8380    0.7600 hc        1 3BP      0.075200
     47 H31         4.5380    0.6800    0.7430 hn        1 3BP      0.318500
     48 H321        4.7600    1.7840   -2.0010 h1        1 3BP      0.072700
     49 H322        5.1780    2.8410   -0.5740 h1        1 3BP      0.072700
     50 H16         5.8930   -0.8490   -1.3020 ha        1 3BP      0.139500
     51 H1          8.2080   -1.7560   -1.3450 ha        1 3BP      0.144500
     52 H23         9.7710    2.2230   -0.6350 ha        1 3BP      0.144500
     53 H24         7.4600    3.1230   -0.5770 ha        1 3BP      0.139500
     54 HN1        11.8190   -1.4420   -2.0170 hn        1 3BP      0.383400
     55 HN31        1.1300   -4.8760    2.2330 hn        1 3BP      0.312000
     56 HN32        2.5560   -5.7880    2.0520 hn        1 3BP      0.312000
     57 H11A       -1.7950   -1.6230    0.1300 hc        1 3BP      0.066200
     58 H12A       -2.4800   -1.3540    1.7860 hc        1 3BP      0.066200
     59 HN4        -2.0350    1.1000    2.7000 hn        1 3BP      0.462800
     60 H5         -1.7170    0.9070   -0.2180 h1        1 3BP      0.095700
     61 H91        -4.8010    2.3220    2.6660 h1        1 3BP      0.113700
     62 H92        -4.8830    1.5580    1.0520 h1        1 3BP      0.113700
     63 H81        -6.4600    3.4330    1.1940 hc        1 3BP      0.053367
     64 H82        -5.1370    4.5770    1.6600 hc        1 3BP      0.053367
     65 H83        -5.1610    3.8360   -0.0020 hc        1 3BP      0.053367
     66 HN21       10.9400    0.6340    0.7330 hn        1 3BP      0.400800
     67 HN22       12.2660   -0.1470    0.0790 hn        1 3BP      0.400800
     68 H11        -4.8180   -1.2420    1.9900 ha        1 3BP      0.136000
     69 H3         -3.0110   -0.3530   -1.8380 ha        1 3BP      0.136000
     70 H4         -5.2650   -0.2020   -2.8690 ha        1 3BP      0.141000
     71 H6         -7.0730   -1.0880    0.9620 ha        1 3BP      0.141000
     72 H12        -9.4100    1.3270   -3.8840 ha        1 3BP      0.134500
     73 H10        -7.1500    1.1780   -2.8520 ha        1 3BP      0.135500
     74 H27        -8.4380   -2.2450   -0.5390 ha        1 3BP      0.135500
     75 H14       -10.6980   -2.0880   -1.5710 ha        1 3BP      0.134500
     76 H29       -11.1900   -0.3030   -3.2460 ha        1 3BP      0.134000
     77 C26        10.5250   -0.3750   -1.0020 ce        1 3BP      0.652800
     78 S1         -2.8720    2.7970    1.3790 s6        1 3BP      1.455900
@<TRIPOS>BOND
     1    1    2 2   
     2    1    3 1   
     3    1   23 1   
     4    3    4 1   
     5    3   41 1   
     6    4    5 1   
     7    4    7 1   
     8    4   42 1   
     9    5    6 1   
    10    5   43 1   
    11    5   44 1   
    12    6   18 1   
    13    6   45 1   
    14    6   46 1   
    15    7    8 2   
    16    7    9 1   
    17    9   10 1   
    18    9   47 1   
    19   10   16 1   
    20   10   48 1   
    21   10   49 1   
    22   11   12 ar  
    23   11   16 ar  
    24   11   50 1   
    25   12   13 ar  
    26   12   51 1   
    27   13   14 ar  
    28   13   77 1   
    29   14   15 ar  
    30   14   52 1   
    31   15   16 ar  
    32   15   53 1   
    33   17   54 1   
    34   17   77 2   
    35   18   19 2   
    36   18   20 1   
    37   20   55 1   
    38   20   56 1   
    39   21   23 1   
    40   21   30 1   
    41   21   57 1   
    42   21   58 1   
    43   22   23 1   
    44   22   59 1   
    45   22   78 1   
    46   23   60 1   
    47   24   78 2   
    48   25   78 2   
    49   26   27 1   
    50   26   61 1   
    51   26   62 1   
    52   26   78 1   
    53   27   63 1   
    54   27   64 1   
    55   27   65 1   
    56   28   66 1   
    57   28   67 1   
    58   28   77 1   
    59   29   30 ar  
    60   29   34 ar  
    61   29   68 1   
    62   30   31 ar  
    63   31   32 ar  
    64   31   69 1   
    65   32   33 ar  
    66   32   70 1   
    67   33   34 ar  
    68   33   37 1   
    69   34   71 1   
    70   35   36 ar  
    71   35   40 ar  
    72   35   72 1   
    73   36   37 ar  
    74   36   73 1   
    75   37   38 ar  
    76   38   39 ar  
    77   38   74 1   
    78   39   40 ar  
    79   39   75 1   
    80   40   76 1   
@<TRIPOS>SUBSTRUCTURE
     1 3BP         1 TEMP              0 ****  ****    0 ROOT
