@<TRIPOS>MOLECULE
3BP
   78    67     1     0     0
SMALL
bcc


@<TRIPOS>ATOM
      1 C15         0.3190    1.1990   -0.3840 c1        1 3BP      0.281000
      2 O1          1.5200    1.3290   -0.3770 o         1 3BP     -0.384000
      3 N17        -0.4110    1.1390    0.8690 n2        1 3BP     -0.372000
      4 C18         0.2890    0.8650    2.1000 c3        1 3BP      0.012000
      5 C19        -0.3400    1.6620    3.2330 c3        1 3BP     -0.162000
      6 C20         0.6760    2.6800    3.7650 c3        1 3BP     -0.188000
      7 C28         0.1990   -0.6120    2.4120 c2        1 3BP      0.275000
      8 O30        -0.6900   -1.2830    1.9200 o         1 3BP     -0.373000
      9 N31         1.2060   -1.2500    3.2850 n         1 3BP     -0.361000
     10 C32         1.1790   -2.7190    3.4870 c3        1 3BP      0.004000
     11 C16         2.4070   -3.5290    5.5390 c1        1 3BP     -0.118000
     12 C17         3.5350   -4.0400    6.1730 c1        1 3BP     -0.117000
     13 C22         4.7170   -4.1860    5.4690 c1        1 3BP     -0.109000
     14 C23         4.7760   -3.8240    4.1340 c1        1 3BP     -0.119500
     15 C24         3.6520   -3.3160    3.5010 c1        1 3BP     -0.119500
     16 C25         2.4680   -3.1690    4.2050 c1        1 3BP     -0.104000
     17 C26         5.9680   -4.7660    6.1680 c2        1 3BP      0.114000
     18 N1          6.8240   -3.9590    6.7680 n1        1 3BP     -0.301000
     19 C2          0.2050    3.2120    5.1430 c2        1 3BP      0.300000
     20 O2         -0.9920    3.3000    5.3870 o         1 3BP     -0.372000
     21 N3          1.1750    3.7400    6.0830 n         1 3BP     -0.433000
     22 C1         -0.9570    2.5100   -2.0610 c3        1 3BP     -0.130000
     23 N4          0.4430    0.6920   -2.7480 n3        1 3BP     -0.879000
     24 C5         -0.4400    1.1420   -1.7210 c3        1 3BP      0.042000
     25 S1          1.0530   -0.8590   -2.6980 s4        1 3BP      2.029800
     26 O4          1.5670   -1.1730   -1.4030 o         1 3BP     -0.533900
     27 O3          0.0090   -1.8330   -2.8260 o         1 3BP     -0.533900
     28 C9          2.2850   -1.0710   -3.9470 c2        1 3BP     -0.856000
     29 C8          3.0860   -2.3490   -3.6680 c3        1 3BP     -0.194000
     30 N2          6.2000   -6.1750    6.1630 n3        1 3BP     -0.331000
     31 C11        -1.9460    2.6870   -4.4300 c1        1 3BP     -0.119500
     32 C7         -2.1510    2.3890   -3.0750 c1        1 3BP     -0.092000
     33 C3         -3.4280    2.0860   -2.6160 c1        1 3BP     -0.121000
     34 C4         -4.5100    2.0790   -3.5100 c1        1 3BP     -0.114500
     35 C13        -4.3020    2.3780   -4.8620 c1        1 3BP     -0.034000
     36 C6         -3.0220    2.6810   -5.3180 c1        1 3BP     -0.119500
     37 C12        -7.1810    3.2260   -6.9510 c1        1 3BP     -0.119500
     38 C10        -6.1020    3.3620   -6.1010 c1        1 3BP     -0.114500
     39 C21        -5.3410    2.2530   -5.7630 c1        1 3BP     -0.034000
     40 C27        -5.6630    1.0130   -6.2770 c1        1 3BP     -0.119500
     41 C14        -6.7440    0.8770   -7.1290 c1        1 3BP     -0.119500
     42 C29        -7.5040    1.9850   -7.4660 c1        1 3BP     -0.119500
     43 H17        -1.3030    1.3220    0.8840 hn        1 3BP      0.243000
     44 H18         1.2360    1.1230    2.0030 h1        1 3BP      0.130000
     45 H191       -1.1330    2.1340    2.9010 hc        1 3BP      0.112500
     46 H192       -0.6010    1.0540    3.9560 hc        1 3BP      0.112500
     47 H201        1.5430    2.2500    3.8630 hc        1 3BP      0.114000
     48 H202        0.7510    3.4200    3.1410 hc        1 3BP      0.114000
     49 H31         1.8080   -0.7280    3.7550 hn        1 3BP      0.247000
     50 H321        1.1170   -3.1700    2.6100 h1        1 3BP      0.108500
     51 H322        0.4010   -2.9580    4.0340 h1        1 3BP      0.108500
     52 H16         1.5620   -3.4250    6.0420 ha        1 3BP      0.157000
     53 H1          3.4930   -4.2940    7.1130 ha        1 3BP      0.140000
     54 H23         5.6140   -3.9280    3.6350 ha        1 3BP      0.136500
     55 H24         3.6940   -3.0610    2.5590 ha        1 3BP      0.136500
     56 HN1         6.6760   -3.0550    6.7710 DU        1 3BP      0.150000
     57 HN31        1.0430    4.5710    6.4640 hn        1 3BP      0.227000
     58 HN32        1.9490    3.2770    6.2510 hn        1 3BP      0.227000
     59 H11A       -0.2430    3.0350   -2.4630 hc        1 3BP      0.107000
     60 H12A       -1.2650    2.9510   -1.2470 hc        1 3BP      0.107000
     61 HN4         0.6290    1.2380   -3.4680 hn        1 3BP      0.255000
     62 H5         -1.1840    0.5250   -1.6430 h1        1 3BP      0.136000
     63 H91         1.8530   -1.1430   -4.8220 ha        1 3BP      0.147000
     64 H92         2.8840   -0.3040   -3.9430 ha        1 3BP      0.147000
     65 H81         2.4690   -3.1070   -3.5750 hc        1 3BP      0.093667
     66 H82         3.5990   -2.2390   -2.8380 hc        1 3BP      0.093667
     67 H83         3.7000   -2.5170   -4.4130 hc        1 3BP      0.093667
     68 HN21        5.5170   -6.7510    5.9650 hn        1 3BP      0.194000
     69 HN22        7.0270   -6.5050    6.3850 hn        1 3BP      0.194000
     70 H11        -1.0450    2.9010   -4.7540 ha        1 3BP      0.136500
     71 H3         -3.5740    1.8760   -1.6600 ha        1 3BP      0.132000
     72 H4         -5.4240    1.8630   -3.1830 ha        1 3BP      0.137500
     73 H6         -2.8750    2.8920   -6.2770 ha        1 3BP      0.136500
     74 H12        -7.7170    4.0090   -7.1890 ha        1 3BP      0.136500
     75 H10        -5.8760    4.2330   -5.7400 ha        1 3BP      0.137500
     76 H27        -5.1330    0.2390   -6.0410 ha        1 3BP      0.136500
     77 H14        -6.9700    0.0080   -7.4900 ha        1 3BP      0.136500
     78 H29        -8.2540    1.8910   -8.0580 ha        1 3BP      0.136500
@<TRIPOS>BOND
     1    1    2 1   
     2    1   24 1   
     3    3    4 1   
     4    3   43 1   
     5    4    5 1   
     6    4    7 1   
     7    4   44 1   
     8    5    6 1   
     9    5   45 1   
    10    5   46 1   
    11    6   19 1   
    12    6   47 1   
    13    6   48 1   
    14    7    8 1   
    15    7    9 1   
    16    9   10 1   
    17    9   49 1   
    18   10   16 1   
    19   10   50 1   
    20   10   51 1   
    21   11   16 1   
    22   11   52 1   
    23   12   13 1   
    24   12   53 1   
    25   13   17 1   
    26   14   15 1   
    27   14   54 1   
    28   15   55 1   
    29   17   18 1   
    30   17   30 1   
    31   19   20 1   
    32   19   21 1   
    33   21   57 1   
    34   21   58 1   
    35   22   24 1   
    36   22   32 1   
    37   22   59 1   
    38   22   60 1   
    39   23   24 1   
    40   23   25 1   
    41   23   61 1   
    42   24   62 1   
    43   25   26 1   
    44   25   27 1   
    45   28   29 1   
    46   28   63 1   
    47   28   64 1   
    48   29   65 1   
    49   29   66 1   
    50   29   67 1   
    51   30   68 1   
    52   30   69 1   
    53   31   36 1   
    54   31   70 1   
    55   32   33 1   
    56   33   71 1   
    57   34   35 1   
    58   34   72 1   
    59   36   73 1   
    60   37   42 1   
    61   37   74 1   
    62   38   39 1   
    63   38   75 1   
    64   40   41 1   
    65   40   76 1   
    66   41   77 1   
    67   42   78 1   
@<TRIPOS>SUBSTRUCTURE
     1 3BP         1 TEMP              0 ****  ****    0 ROOT
