@<TRIPOS>MOLECULE
3BP
   78    70     1     0     0
SMALL
bcc


@<TRIPOS>ATOM
      1 C15        -0.5840   -1.9580   -0.2590 c2        1 3BP      0.288000
      2 O1         -0.6300   -0.7140   -0.0690 o         1 3BP     -0.445000
      3 N17        -0.1950   -2.8160    0.7270 n         1 3BP     -0.399000
      4 C18         0.0540    0.1900    3.0620 c2        1 3BP     -0.219000
      5 C19         0.2080    1.4960    3.2970 c2        1 3BP     -0.097000
      6 C20         0.0690    2.5030    2.2160 c3        1 3BP     -0.165000
      7 C28         0.2080   -0.8980    4.0560 c2        1 3BP      0.347000
      8 O30         0.1580   -2.1010    3.6890 o         1 3BP     -0.442000
      9 N31         0.3940   -0.6170    5.3810 n         1 3BP     -0.422000
     10 C32         0.7200   -3.9600    6.2410 c1        1 3BP     -0.167000
     11 C16         0.3140    2.5340    6.7800 c2        1 3BP     -0.193500
     12 C17         1.3670    1.9970    7.3190 c1        1 3BP     -0.176000
     13 C22         2.4240    1.4710    7.8590 c2        1 3BP     -0.193500
     14 C23         1.8020   -4.1760    9.6310 c1        1 3BP      0.173000
     15 C24         1.2880   -4.8380    8.6150 c2        1 3BP     -0.323000
     16 C25         0.9840   -4.3590    7.3390 c1        1 3BP     -0.147000
     17 N1          3.7100   -0.1410   10.8890 n1        1 3BP     -0.095000
     18 C2         -0.4070    3.8390    2.7610 c2        1 3BP      0.306000
     19 O2         -0.1820    4.1970    3.9370 o         1 3BP     -0.386000
     20 N3         -1.0800    4.6760    1.9090 n         1 3BP     -0.434000
     21 C1         -3.7560    2.3870   -0.0220 c3        1 3BP     -0.184000
     22 N4         -0.3740   -2.5510   -2.6620 n3        1 3BP     -0.620000
     23 C5         -1.0540   -2.5170   -1.5540 c1        1 3BP     -0.106000
     24 O4         -0.4510   -2.7150   -5.1330 o         1 3BP     -0.910500
     25 O3         -1.3090   -4.5600   -3.8970 o         1 3BP     -0.910500
     26 C9         -2.6910   -2.3960   -3.9470 c3        1 3BP     -0.871000
     27 C8         -3.5960   -2.8550   -5.0630 c3        1 3BP     -0.211000
     28 N2          3.1820   -2.4150   11.8610 n3        1 3BP     -0.264000
     29 C11        -2.4390    1.2950   -1.8190 c2        1 3BP     -0.418000
     30 C7         -3.4490    2.2770   -1.4710 c2        1 3BP     -0.030000
     31 C3         -4.0710    3.0290   -2.3900 c2        1 3BP     -0.222000
     32 C4         -2.3240    1.9250   -7.2120 c1        1 3BP      0.017000
     33 C13        -1.4720    1.4100   -6.1830 c2        1 3BP     -0.181000
     34 C6         -2.0510    0.8390   -2.9830 c1        1 3BP      0.122000
     35 C12        -5.8290    0.3850   -6.5020 c1        1 3BP     -0.570000
     36 C10        -5.5190    1.4630   -7.1920 c2        1 3BP      0.130000
     37 C21        -0.8950    1.8110   -7.3500 c2        1 3BP     -0.050000
     38 C27         0.2520    1.9650   -8.0810 c1        1 3BP     -0.120000
     39 C14         1.2480    2.1010   -8.7340 c1        1 3BP     -0.119000
     40 C29        -6.1070   -0.6630   -5.8320 c1        1 3BP      0.154000
     41 H17        -0.0500   -2.4690    1.6520 hn        1 3BP      0.245000
     42 H18        -0.3120   -3.7910    0.6110 hn        1 3BP      0.245000
     43 H191        0.4580    1.9180    4.2890 ha        1 3BP      0.156000
     44 H192       -0.2020   -0.1890    2.0510 ha        1 3BP      0.180000
     45 H201        1.0790    2.6740    1.7480 hc        1 3BP      0.124000
     46 H202       -0.6160    2.1230    1.4090 hc        1 3BP      0.124000
     47 H31         0.4590    0.3130    5.7160 hn        1 3BP      0.236000
     48 H321        0.4870   -3.6080    5.2590 ha        1 3BP      0.262000
     49 H322        0.5020   -1.3640    6.0240 hn        1 3BP      0.236000
     50 H16         0.3700    3.3750    6.0680 ha        1 3BP      0.142750
     51 H1         -0.7040    2.1900    7.0170 ha        1 3BP      0.142750
     52 H23         2.9620    0.6280    7.4010 ha        1 3BP      0.142750
     53 H24         1.0670   -5.9210    8.7820 ha        1 3BP      0.209000
     54 HN1         2.8450    1.8320    8.8100 ha        1 3BP      0.142750
     55 HN31       -1.2830    4.4100    0.9810 hn        1 3BP      0.229000
     56 HN32       -1.3840    5.5610    2.2320 hn        1 3BP      0.229000
     57 H11A       -2.8300    2.6410    0.5520 hc        1 3BP      0.085000
     58 H12A       -4.1460    1.4110    0.3620 hc        1 3BP      0.085000
     59 HN4         0.5720   -2.2330   -2.7540 hn        1 3BP      0.211000
     60 H5         -4.5230    3.1760    0.1730 hc        1 3BP      0.085000
     61 H91        -2.5930   -1.2730   -4.0060 h1        1 3BP      0.185000
     62 H92        -3.2110   -2.5840   -2.9650 h1        1 3BP      0.185000
     63 H81        -3.8200   -3.9460   -4.9640 hc        1 3BP      0.105667
     64 H82        -4.5660   -2.2940   -5.0340 hc        1 3BP      0.105667
     65 H83        -3.1200   -2.6690   -6.0580 hc        1 3BP      0.105667
     66 HN21        2.4980   -2.3810   12.5920 hn        1 3BP      0.211000
     67 HN22        2.9620   -3.1070   11.1610 hn        1 3BP      0.211000
     68 H11        -1.9060    0.8230   -0.9470 ha        1 3BP      0.239000
     69 H3         -4.8370    3.7650   -2.1160 ha        1 3BP      0.121000
     70 H4         -3.8610    2.9510   -3.4660 ha        1 3BP      0.121000
     71 H6         -1.3330    0.9930   -5.1970 ha        1 3BP      0.220000
     72 H12        -6.2470    2.2750   -7.3660 ha        1 3BP      0.139500
     73 H10        -4.5100    1.6210   -7.6300 ha        1 3BP      0.139500
     74 H27        -4.0660    3.1540   -5.8950 ha        1 3BP      0.002500
     75 H14        -4.6670    3.3500   -5.6480 ha        1 3BP      0.002500
     76 H29         2.1290    2.2210   -9.3140 ha        1 3BP      0.234000
     77 C26         3.4160   -1.1880   11.3220 c1        1 3BP     -0.073000
     78 S1         -1.1930   -3.1750   -4.0320 s6        1 3BP      2.790000
@<TRIPOS>BOND
     1    1    2 1   
     2    1    3 1   
     3    1   23 1   
     4    3   41 1   
     5    3   42 1   
     6    4    5 1   
     7    4    7 1   
     8    4   44 1   
     9    5    6 1   
    10    5   43 1   
    11    6   18 1   
    12    6   45 1   
    13    6   46 1   
    14    7    8 1   
    15    7    9 1   
    16    9   47 1   
    17    9   49 1   
    18   10   16 1   
    19   10   48 1   
    20   11   12 1   
    21   11   50 1   
    22   11   51 1   
    23   12   13 1   
    24   13   52 1   
    25   13   54 1   
    26   14   15 1   
    27   15   16 1   
    28   15   53 1   
    29   17   77 1   
    30   18   19 1   
    31   18   20 1   
    32   20   55 1   
    33   20   56 1   
    34   21   30 1   
    35   21   57 1   
    36   21   58 1   
    37   21   60 1   
    38   22   23 1   
    39   22   59 1   
    40   22   78 1   
    41   24   78 1   
    42   25   78 1   
    43   26   27 1   
    44   26   61 1   
    45   26   62 1   
    46   26   78 1   
    47   27   63 1   
    48   27   64 1   
    49   27   65 1   
    50   28   66 1   
    51   28   67 1   
    52   28   77 1   
    53   29   30 1   
    54   29   34 1   
    55   29   68 1   
    56   30   31 1   
    57   31   69 1   
    58   31   70 1   
    59   32   33 1   
    60   32   37 1   
    61   33   37 1   
    62   33   71 1   
    63   35   36 1   
    64   35   40 1   
    65   36   72 1   
    66   36   73 1   
    67   37   38 1   
    68   38   39 1   
    69   39   76 1   
    70   74   75 1   
@<TRIPOS>SUBSTRUCTURE
     1 3BP         1 TEMP              0 ****  ****    0 ROOT
