@<TRIPOS>MOLECULE
3BQ
   52    54     1     0     0
SMALL
bcc


@<TRIPOS>ATOM
      1 O           1.0650   -2.1030    0.0230 o         1 3BQ     -0.473100
      2 C4          1.5970   -0.9940    0.0800 c         1 3BQ      0.645100
      3 N2          1.4600    0.0340    0.9630 n         1 3BQ     -0.381100
      4 C5          0.8520   -0.1660    2.2450 ca        1 3BQ     -0.007400
      5 C13         1.3660    0.5220    3.3380 ca        1 3BQ     -0.112000
      6 C12         0.7330    0.4030    4.6020 ca        1 3BQ      0.000000
      7 C11         1.2040    1.0910    5.7540 ca        1 3BQ     -0.238300
      8 C10         0.5330    0.9170    6.9540 ca        1 3BQ      0.425200
      9 N3         -0.5680    0.1150    7.1000 nb        1 3BQ     -0.625000
     10 C9         -1.0140   -0.5300    6.0350 ca        1 3BQ      0.437200
     11 C8         -0.4070   -0.4330    4.7350 ca        1 3BQ     -0.155300
     12 C7         -0.8980   -1.1330    3.6080 ca        1 3BQ     -0.046000
     13 C6         -0.2890   -1.0110    2.3820 ca        1 3BQ     -0.150000
     14 N1          2.4880   -0.7300   -1.1870 n4        1 3BQ     -0.688800
     15 C3          1.6180   -0.5390   -2.3810 c3        1 3BQ      0.105800
     16 C2          2.3710   -0.6610   -3.7040 c3        1 3BQ     -0.110400
     17 C1          1.5470   -0.1910   -4.9130 c3        1 3BQ     -0.057000
     18 C           2.3280   -0.5690   -6.1930 c3        1 3BQ      0.095800
     19 N           2.1560   -1.9730   -6.6600 n4        1 3BQ     -0.837600
     20 C18         1.4520    1.3460   -4.9020 c3        1 3BQ     -0.090400
     21 C17         0.5280    1.9130   -5.9620 c3        1 3BQ     -0.086900
     22 C16        -0.8320    1.2500   -5.9680 c3        1 3BQ     -0.090400
     23 C15        -0.7200   -0.2590   -6.0300 c3        1 3BQ     -0.086900
     24 C14         0.1380   -0.7790   -4.8930 c3        1 3BQ     -0.090400
     25 H1          2.0410    0.8450    0.8920 hn        1 3BQ      0.344500
     26 H2          2.2500    1.1760    3.2630 ha        1 3BQ      0.146000
     27 H3          2.0830    1.7460    5.6850 ha        1 3BQ      0.156000
     28 H4          0.8580    1.4300    7.8800 h4        1 3BQ      0.051100
     29 H5         -1.9050   -1.1730    6.1750 h4        1 3BQ      0.045100
     30 H6         -1.7820   -1.7830    3.7260 ha        1 3BQ      0.166000
     31 H7         -0.6770   -1.5690    1.5160 ha        1 3BQ      0.155000
     32 H8          3.1150    0.0680   -1.0740 hn        1 3BQ      0.453800
     33 H9          1.1320    0.4750   -2.2880 hx        1 3BQ      0.121700
     34 H10         0.8090   -1.3300   -2.3310 hx        1 3BQ      0.121700
     35 H11         2.6660   -1.7350   -3.8460 hc        1 3BQ      0.060200
     36 H12         3.3140   -0.0500   -3.6700 hc        1 3BQ      0.060200
     37 H13         3.4310   -0.3960   -6.0280 hx        1 3BQ      0.123700
     38 H14         1.9840    0.0960   -7.0430 hx        1 3BQ      0.123700
     39 H15         2.7290   -2.1310   -7.4990 hn        1 3BQ      0.467467
     40 H16         2.4380   -2.6390   -5.9350 hn        1 3BQ      0.467467
     41 H18         2.4790    1.7800   -5.0320 hc        1 3BQ      0.057700
     42 H19         1.0720    1.6680   -3.8970 hc        1 3BQ      0.057700
     43 H20         0.9970    1.8280   -6.9780 hc        1 3BQ      0.061450
     44 H21         0.4010    3.0130   -5.7660 hc        1 3BQ      0.061450
     45 H22        -1.4220    1.6190   -6.8490 hc        1 3BQ      0.077200
     46 H23        -1.3990    1.5440   -5.0450 hc        1 3BQ      0.077200
     47 H24        -1.7450   -0.7130   -5.9530 hc        1 3BQ      0.061450
     48 H25        -0.2970   -0.5660   -7.0220 hc        1 3BQ      0.061450
     49 H26         0.1690   -1.8990   -4.8920 hc        1 3BQ      0.057700
     50 H27        -0.3630   -0.4730   -3.9330 hc        1 3BQ      0.057700
     51 H121        3.0570   -1.5760   -1.3080 hn        1 3BQ      0.453800
     52 HN3         1.1690   -2.1460   -6.8950 hn        1 3BQ      0.467467
@<TRIPOS>BOND
     1    1    2 2   
     2    2    3 1   
     3    2   14 1   
     4    3    4 1   
     5    3   25 1   
     6    4    5 ar  
     7    4   13 ar  
     8    5    6 ar  
     9    5   26 1   
    10    6    7 ar  
    11    6   11 ar  
    12    7    8 ar  
    13    7   27 1   
    14    8    9 ar  
    15    8   28 1   
    16    9   10 ar  
    17   10   11 ar  
    18   10   29 1   
    19   11   12 ar  
    20   12   13 ar  
    21   12   30 1   
    22   13   31 1   
    23   14   15 1   
    24   14   32 1   
    25   14   51 1   
    26   15   16 1   
    27   15   33 1   
    28   15   34 1   
    29   16   17 1   
    30   16   35 1   
    31   16   36 1   
    32   17   18 1   
    33   17   20 1   
    34   17   24 1   
    35   18   19 1   
    36   18   37 1   
    37   18   38 1   
    38   19   39 1   
    39   19   40 1   
    40   19   52 1   
    41   20   21 1   
    42   20   41 1   
    43   20   42 1   
    44   21   22 1   
    45   21   43 1   
    46   21   44 1   
    47   22   23 1   
    48   22   45 1   
    49   22   46 1   
    50   23   24 1   
    51   23   47 1   
    52   23   48 1   
    53   24   49 1   
    54   24   50 1   
@<TRIPOS>SUBSTRUCTURE
     1 3BQ         1 TEMP              0 ****  ****    0 ROOT
