@<TRIPOS>MOLECULE
3BQ
   50    52     1     0     0
SMALL
bcc


@<TRIPOS>ATOM
      1 O          -0.1740    0.4980   -0.1680 o         1 3BQ     -0.616100
      2 C4          1.0310    0.1750   -0.0670 c         1 3BQ      0.755100
      3 N2          1.6930    0.1000    1.1820 n         1 3BQ     -0.464100
      4 C5          1.0290    0.1530    2.4210 ca        1 3BQ      0.094600
      5 C13         1.5810   -0.5150    3.5150 ca        1 3BQ     -0.198000
      6 C12         0.9880   -0.4160    4.7940 ca        1 3BQ      0.015000
      7 C11         1.5220   -1.0750    5.9380 ca        1 3BQ     -0.238300
      8 C10         0.8790   -0.9320    7.1540 ca        1 3BQ      0.387200
      9 N3         -0.2570   -0.1860    7.3350 nb        1 3BQ     -0.671000
     10 C9         -0.7600    0.4290    6.2770 ca        1 3BQ      0.430200
     11 C8         -0.1880    0.3600    4.9640 ca        1 3BQ     -0.181300
     12 C7         -0.7420    1.0240    3.8440 ca        1 3BQ     -0.083000
     13 C6         -0.1590    0.9330    2.6060 ca        1 3BQ     -0.136000
     14 N1          1.7780   -0.1480   -1.2160 n         1 3BQ     -0.550900
     15 C3          1.1840    0.1730   -2.4980 c3        1 3BQ      0.084000
     16 C2          2.0910   -0.1990   -3.6690 c3        1 3BQ     -0.088400
     17 C1          1.3920   -0.1660   -5.0330 c3        1 3BQ     -0.035000
     18 C           2.4870   -0.1080   -6.1280 c3        1 3BQ      0.161800
     19 N           3.4290   -1.1990   -6.1060 n3        1 3BQ     -0.916800
     20 C18         0.5200    1.0840   -5.1720 c3        1 3BQ     -0.071400
     21 C17        -0.2950    1.1010   -6.4490 c3        1 3BQ     -0.075400
     22 C16        -1.1480   -0.1450   -6.5700 c3        1 3BQ     -0.078400
     23 C15        -0.3090   -1.4000   -6.4590 c3        1 3BQ     -0.075400
     24 C14         0.5240   -1.4140   -5.1950 c3        1 3BQ     -0.071400
     25 H1          2.5620   -0.3900    1.2040 hn        1 3BQ      0.308500
     26 H2          2.4910   -1.1270    3.4150 ha        1 3BQ      0.134000
     27 H3          2.4300   -1.6830    5.8410 ha        1 3BQ      0.141000
     28 H4          1.2570   -1.4240    8.0680 h4        1 3BQ      0.021100
     29 H5         -1.6770    1.0270    6.4370 h4        1 3BQ      0.021100
     30 H6         -1.6570    1.6230    3.9810 ha        1 3BQ      0.140000
     31 H7         -0.6090    1.4530    1.7440 ha        1 3BQ      0.175000
     32 H8          2.7680   -0.0750   -1.1700 hn        1 3BQ      0.293500
     33 H9          0.2070   -0.3870   -2.5640 h1        1 3BQ      0.058200
     34 H10         0.9450    1.2760   -2.5430 h1        1 3BQ      0.058200
     35 H11         2.4990   -1.2340   -3.5080 hc        1 3BQ      0.045200
     36 H12         2.9600    0.5120   -3.6910 hc        1 3BQ      0.045200
     37 H13         2.9970    0.8990   -6.0340 h1        1 3BQ      0.028700
     38 H14         1.9810   -0.1310   -7.1350 h1        1 3BQ      0.028700
     39 H15         3.9090   -1.2500   -5.2300 hn        1 3BQ      0.348300
     40 H16         4.0980   -1.0920   -6.8420 hn        1 3BQ      0.348300
     41 H18         1.1670    1.9970   -5.1230 hc        1 3BQ      0.046700
     42 H19        -0.1990    1.1280   -4.3100 hc        1 3BQ      0.046700
     43 H20        -0.9560    2.0070   -6.4480 hc        1 3BQ      0.040950
     44 H21         0.3800    1.1870   -7.3400 hc        1 3BQ      0.040950
     45 H22        -1.6860   -0.1370   -7.5540 hc        1 3BQ      0.040700
     46 H23        -1.9260   -0.1420   -5.7610 hc        1 3BQ      0.040700
     47 H24        -0.9820   -2.2980   -6.4610 hc        1 3BQ      0.040950
     48 H25         0.3590   -1.4880   -7.3560 hc        1 3BQ      0.040950
     49 H26         1.1750   -2.3270   -5.1940 hc        1 3BQ      0.046700
     50 H27        -0.1630   -1.4890   -4.3090 hc        1 3BQ      0.046700
@<TRIPOS>BOND
     1    1    2 2   
     2    2    3 1   
     3    2   14 1   
     4    3    4 1   
     5    3   25 1   
     6    4    5 ar  
     7    4   13 ar  
     8    5    6 ar  
     9    5   26 1   
    10    6    7 ar  
    11    6   11 ar  
    12    7    8 ar  
    13    7   27 1   
    14    8    9 ar  
    15    8   28 1   
    16    9   10 ar  
    17   10   11 ar  
    18   10   29 1   
    19   11   12 ar  
    20   12   13 ar  
    21   12   30 1   
    22   13   31 1   
    23   14   15 1   
    24   14   32 1   
    25   15   16 1   
    26   15   33 1   
    27   15   34 1   
    28   16   17 1   
    29   16   35 1   
    30   16   36 1   
    31   17   18 1   
    32   17   20 1   
    33   17   24 1   
    34   18   19 1   
    35   18   37 1   
    36   18   38 1   
    37   19   39 1   
    38   19   40 1   
    39   20   21 1   
    40   20   41 1   
    41   20   42 1   
    42   21   22 1   
    43   21   43 1   
    44   21   44 1   
    45   22   23 1   
    46   22   45 1   
    47   22   46 1   
    48   23   24 1   
    49   23   47 1   
    50   23   48 1   
    51   24   49 1   
    52   24   50 1   
@<TRIPOS>SUBSTRUCTURE
     1 3BQ         1 TEMP              0 ****  ****    0 ROOT
