@<TRIPOS>MOLECULE
3BQ
   52    54     1     0     0
SMALL
bcc


@<TRIPOS>ATOM
      1 O           1.0470   -2.1080    0.0180 o         1 3BQ     -0.473100
      2 C4          1.5890   -1.0030    0.0790 c         1 3BQ      0.645100
      3 N2          1.4600    0.0230    0.9650 ns        1 3BQ     -0.381100
      4 C5          0.8480   -0.1740    2.2450 ca        1 3BQ     -0.007400
      5 C13         1.3670    0.5050    3.3410 ca        1 3BQ     -0.112000
      6 C12         0.7310    0.3890    4.6030 ca        1 3BQ      0.000000
      7 C11         1.2060    1.0690    5.7580 ca        1 3BQ     -0.238300
      8 C10         0.5320    0.8980    6.9560 ca        1 3BQ      0.425200
      9 N3         -0.5760    0.1050    7.0980 nb        1 3BQ     -0.625000
     10 C9         -1.0270   -0.5320    6.0310 ca        1 3BQ      0.437200
     11 C8         -0.4160   -0.4370    4.7330 ca        1 3BQ     -0.155300
     12 C7         -0.9130   -1.1300    3.6030 ca        1 3BQ     -0.046000
     13 C6         -0.3010   -1.0100    2.3780 ca        1 3BQ     -0.150000
     14 N1          2.4840   -0.7440   -1.1860 ny        1 3BQ     -0.688800
     15 C3          1.6170   -0.5400   -2.3810 c3        1 3BQ      0.105800
     16 C2          2.3700   -0.6650   -3.7030 c3        1 3BQ     -0.110400
     17 C1          1.5520   -0.1830   -4.9110 c3        1 3BQ     -0.057000
     18 C           2.3310   -0.5650   -6.1920 c3        1 3BQ      0.095800
     19 N           2.1460   -1.9660   -6.6640 nz        1 3BQ     -0.837600
     20 C18         1.4730    1.3550   -4.8960 c3        1 3BQ     -0.090400
     21 C17         0.5560    1.9340   -5.9550 c3        1 3BQ     -0.086900
     22 C16        -0.8100    1.2850   -5.9640 c3        1 3BQ     -0.090400
     23 C15        -0.7140   -0.2250   -6.0310 c3        1 3BQ     -0.086900
     24 C14         0.1380   -0.7570   -4.8960 c3        1 3BQ     -0.090400
     25 H1          2.0490    0.8290    0.8970 hn        1 3BQ      0.344500
     26 H2          2.2570    1.1510    3.2690 ha        1 3BQ      0.146000
     27 H3          2.0920    1.7160    5.6920 ha        1 3BQ      0.156000
     28 H4          0.8610    1.4050    7.8850 h4        1 3BQ      0.051100
     29 H5         -1.9230   -1.1670    6.1680 h4        1 3BQ      0.045100
     30 H6         -1.8030   -1.7720    3.7170 ha        1 3BQ      0.166000
     31 H7         -0.6920   -1.5610    1.5100 ha        1 3BQ      0.155000
     32 H8          3.1180    0.0480   -1.0700 hn        1 3BQ      0.453800
     33 H9          1.1410    0.4780   -2.2850 hx        1 3BQ      0.121700
     34 H10         0.8000   -1.3230   -2.3340 hx        1 3BQ      0.121700
     35 H11         3.3200   -0.0630   -3.6660 hc        1 3BQ      0.060200
     36 H12         2.6540   -1.7420   -3.8490 hc        1 3BQ      0.060200
     37 H13         1.9950    0.1070   -7.0400 hx        1 3BQ      0.123700
     38 H14         3.4350   -0.4030   -6.0250 hx        1 3BQ      0.123700
     39 H15         2.4210   -2.6360   -5.9410 hn        1 3BQ      0.467467
     40 H16         2.7180   -2.1260   -7.5030 hn        1 3BQ      0.467467
     41 H18         2.5040    1.7790   -5.0230 hc        1 3BQ      0.057700
     42 H19         1.0950    1.6770   -3.8900 hc        1 3BQ      0.057700
     43 H20         1.0250    1.8480   -6.9710 hc        1 3BQ      0.061450
     44 H21         0.4390    3.0350   -5.7550 hc        1 3BQ      0.061450
     45 H22        -1.3760    1.5810   -5.0410 hc        1 3BQ      0.077200
     46 H23        -1.3970    1.6630   -6.8440 hc        1 3BQ      0.077200
     47 H24        -1.7440   -0.6690   -5.9570 hc        1 3BQ      0.061450
     48 H25        -0.2930   -0.5320   -7.0240 hc        1 3BQ      0.061450
     49 H26        -0.3620   -0.4500   -3.9350 hc        1 3BQ      0.057700
     50 H27         0.1570   -1.8770   -4.8980 hc        1 3BQ      0.057700
     51 H121        3.0450   -1.5950   -1.3100 hn        1 3BQ      0.453800
     52 HN3         1.1570   -2.1270   -6.9010 hn        1 3BQ      0.467467
@<TRIPOS>BOND
     1    1    2 2   
     2    2    3 1   
     3    2   14 1   
     4    3    4 1   
     5    3   25 1   
     6    4    5 ar  
     7    4   13 ar  
     8    5    6 ar  
     9    5   26 1   
    10    6    7 ar  
    11    6   11 ar  
    12    7    8 ar  
    13    7   27 1   
    14    8    9 ar  
    15    8   28 1   
    16    9   10 ar  
    17   10   11 ar  
    18   10   29 1   
    19   11   12 ar  
    20   12   13 ar  
    21   12   30 1   
    22   13   31 1   
    23   14   15 1   
    24   14   32 1   
    25   14   51 1   
    26   15   16 1   
    27   15   33 1   
    28   15   34 1   
    29   16   17 1   
    30   16   35 1   
    31   16   36 1   
    32   17   18 1   
    33   17   20 1   
    34   17   24 1   
    35   18   19 1   
    36   18   37 1   
    37   18   38 1   
    38   19   39 1   
    39   19   40 1   
    40   19   52 1   
    41   20   21 1   
    42   20   41 1   
    43   20   42 1   
    44   21   22 1   
    45   21   43 1   
    46   21   44 1   
    47   22   23 1   
    48   22   45 1   
    49   22   46 1   
    50   23   24 1   
    51   23   47 1   
    52   23   48 1   
    53   24   49 1   
    54   24   50 1   
@<TRIPOS>SUBSTRUCTURE
     1 3BQ         1 TEMP              0 ****  ****    0 ROOT
