@<TRIPOS>MOLECULE
3BR
   11    10     1     0     0
SMALL
bcc


@<TRIPOS>ATOM
      1 BR1        -2.6980   -0.0000   -0.9080 br        1 3BR     -0.179400
      2 C1         -0.7860   -0.0000   -0.9080 c3        1 3BR     -0.009000
      3 C2         -0.2820   -0.0000    0.5190 c3        1 3BR     -0.081400
      4 C3          1.2310    0.0000    0.5190 c3        1 3BR     -0.096100
      5 H11        -0.4610    0.7970   -1.3680 h1        1 3BR      0.071700
      6 H12        -0.4610   -0.7970   -1.3680 h1        1 3BR      0.071700
      7 H21        -0.6070    0.7970    0.9790 hc        1 3BR      0.055700
      8 H22        -0.6070   -0.7970    0.9790 hc        1 3BR      0.055700
      9 H31         1.5570    0.7970    0.0590 hc        1 3BR      0.037700
     10 H32         1.5570   -0.7970    0.0590 hc        1 3BR      0.037700
     11 H33         1.5570    0.0000    1.4390 hc        1 3BR      0.037700
@<TRIPOS>BOND
     1    1    2 1   
     2    2    3 1   
     3    2    5 1   
     4    2    6 1   
     5    3    4 1   
     6    3    7 1   
     7    3    8 1   
     8    4    9 1   
     9    4   10 1   
    10    4   11 1   
@<TRIPOS>SUBSTRUCTURE
     1 3BR         1 TEMP              0 ****  ****    0 ROOT
