@<TRIPOS>MOLECULE
3BR
   11    10     1     0     0
SMALL
bcc


@<TRIPOS>ATOM
      1 BR1         0.0280   -0.0000   -0.0640 br        1 3BR     -0.179400
      2 C1          1.9530   -0.0000    0.0270 c3        1 3BR     -0.009000
      3 C2          2.4850    0.0000    1.4390 c3        1 3BR     -0.081400
      4 C3          3.9940    0.0000    1.4360 c3        1 3BR     -0.096100
      5 H11         2.2940   -0.9080   -0.5220 h1        1 3BR      0.071700
      6 H12         2.2940    0.9080   -0.5220 h1        1 3BR      0.071700
      7 H21         2.1110    0.9040    1.9900 hc        1 3BR      0.055700
      8 H22         2.1110   -0.9040    1.9900 hc        1 3BR      0.055700
      9 H31         4.3890    0.9050    0.9160 hc        1 3BR      0.037700
     10 H32         4.3890   -0.9050    0.9160 hc        1 3BR      0.037700
     11 H33         4.3780    0.0000    2.4850 hc        1 3BR      0.037700
@<TRIPOS>BOND
     1    1    2 1   
     2    2    3 1   
     3    2    5 1   
     4    2    6 1   
     5    3    4 1   
     6    3    7 1   
     7    3    8 1   
     8    4    9 1   
     9    4   10 1   
    10    4   11 1   
@<TRIPOS>SUBSTRUCTURE
     1 3BR         1 TEMP              0 ****  ****    0 ROOT
