@<TRIPOS>MOLECULE
3BR
   11    10     1     0     0
SMALL
bcc


@<TRIPOS>ATOM
      1 BR1        -0.0320    0.0000   -1.0560 br        1 3BR     -0.179400
      2 C1         -0.6300   -0.0000    0.7760 c3        1 3BR     -0.009000
      3 C2          0.5010   -0.0000    1.7740 c3        1 3BR     -0.081400
      4 C3         -0.0360    0.0000    3.1840 c3        1 3BR     -0.096100
      5 H11        -1.2640   -0.9080    0.8990 h1        1 3BR      0.071700
      6 H12        -1.2640    0.9080    0.8990 h1        1 3BR      0.071700
      7 H21         1.1490    0.9040    1.6200 hc        1 3BR      0.055700
      8 H22         1.1490   -0.9040    1.6200 hc        1 3BR      0.055700
      9 H31         0.8080   -0.0000    3.9150 hc        1 3BR      0.037700
     10 H32        -0.6640    0.9050    3.3690 hc        1 3BR      0.037700
     11 H33        -0.6640   -0.9050    3.3690 hc        1 3BR      0.037700
@<TRIPOS>BOND
     1    1    2 1   
     2    2    3 1   
     3    2    5 1   
     4    2    6 1   
     5    3    4 1   
     6    3    7 1   
     7    3    8 1   
     8    4    9 1   
     9    4   10 1   
    10    4   11 1   
@<TRIPOS>SUBSTRUCTURE
     1 3BR         1 TEMP              0 ****  ****    0 ROOT
