@<TRIPOS>MOLECULE
3BS
   51    52     1     0     0
SMALL
bcc


@<TRIPOS>ATOM
      1 CAQ        -3.8940   -0.4530    1.0370 c3        1 3BS     -0.108400
      2 CAR        -5.2490    0.2780    1.0620 c3        1 3BS      0.174700
      3 CAS        -5.0470    1.7250    1.5390 c3        1 3BS     -0.090100
      4 CAH        -6.0970   -0.4220    2.1460 c3        1 3BS     -0.090100
      5 NAX        -5.9820    0.2550   -0.2480 n3        1 3BS     -0.470100
      6 OAY        -6.5400   -0.9620   -0.4040 oh        1 3BS     -0.429300
      7 CAW        -5.1280    0.5390   -1.4480 c3        1 3BS      0.174700
      8 CAV        -4.8900    2.0490   -1.5910 c3        1 3BS     -0.090100
      9 CAZ        -5.8630    0.0980   -2.7320 c3        1 3BS     -0.090100
     10 CAU        -3.7790   -0.2040   -1.4480 c3        1 3BS     -0.108400
     11 CAP        -3.0140    0.0020   -0.1350 c3        1 3BS      0.087700
     12 NAO        -1.7450   -0.7090   -0.1520 n         1 3BS     -0.521900
     13 CAN        -0.5340   -0.0810    0.0660 c         1 3BS      0.594400
     14 SAT        -0.4250    1.5270    0.2550 s         1 3BS     -0.566400
     15 NAM         0.5750   -0.9380    0.1060 n         1 3BS     -0.442100
     16 CAL         1.9150   -0.5490    0.2370 ca        1 3BS      0.135600
     17 CAF         2.9290   -1.3500   -0.3630 ca        1 3BS     -0.061600
     18 CAE         4.2730   -1.0250   -0.2160 ca        1 3BS      0.007000
     19 CLAG        2.5260   -2.7350   -1.2740 cl        1 3BS     -0.093400
     20 CAK         2.3260    0.5700    0.9940 ca        1 3BS     -0.156000
     21 CAJ         3.6750    0.8750    1.1210 ca        1 3BS      0.002000
     22 CAD         4.6670    0.0980    0.5170 ca        1 3BS     -0.397500
     23 SAC         6.3040    0.4850    0.6960 sy        1 3BS      1.530200
     24 OAI         6.4660    1.1590    1.9240 o         1 3BS     -0.657300
     25 OAA         7.0580   -0.6890    0.4840 o         1 3BS     -0.657300
     26 NAB         6.5720    1.5080   -0.5060 n3        1 3BS     -1.026700
     27 HAQ        -3.3700   -0.2540    2.0070 hc        1 3BS      0.055200
     28 HAQA       -4.0860   -1.5560    0.9620 hc        1 3BS      0.055200
     29 HAS        -4.1120    2.1690    1.1250 hc        1 3BS      0.044867
     30 HASA       -5.9110    2.3710    1.2520 hc        1 3BS      0.044867
     31 HASB       -4.9570    1.7320    2.6530 hc        1 3BS      0.044867
     32 HAH        -5.5470   -0.3940    3.1160 hc        1 3BS      0.044867
     33 HAHA       -7.0740    0.1020    2.2680 hc        1 3BS      0.044867
     34 HAHB       -6.2900   -1.4880    1.8760 hc        1 3BS      0.044867
     35 HOAY       -7.4990   -0.7820   -0.4240 ho        1 3BS      0.419000
     36 HAV        -4.1900    2.4380   -0.8170 hc        1 3BS      0.044867
     37 HAVA       -4.4410    2.2480   -2.5950 hc        1 3BS      0.044867
     38 HAVB       -5.8540    2.6070   -1.5150 hc        1 3BS      0.044867
     39 HAZ        -6.8360    0.6350   -2.8230 hc        1 3BS      0.044867
     40 HAZA       -5.2300    0.3440   -3.6180 hc        1 3BS      0.044867
     41 HAZB       -6.0560   -1.0010   -2.7240 hc        1 3BS      0.044867
     42 HAU        -3.9740   -1.2970   -1.6080 hc        1 3BS      0.055200
     43 HAUA       -3.1680    0.1710   -2.3090 hc        1 3BS      0.055200
     44 HAP        -2.7790    1.1080   -0.0160 h1        1 3BS      0.120700
     45 HNAO       -1.8070   -1.6980   -0.2480 hn        1 3BS      0.308500
     46 HNAM        0.4510   -1.8940   -0.1670 hn        1 3BS      0.321500
     47 HAE         5.0460   -1.6710   -0.6730 ha        1 3BS      0.170000
     48 HAK         1.5710    1.2200    1.4750 ha        1 3BS      0.194000
     49 HAJ         3.9700    1.7470    1.7350 ha        1 3BS      0.160000
     50 HNAB        6.4650    2.4870   -0.4250 hn        1 3BS      0.448800
     51 HNAA        6.8760    1.2290   -1.4040 hn        1 3BS      0.448800
@<TRIPOS>BOND
     1    1    2 1   
     2    1   11 1   
     3    1   27 1   
     4    1   28 1   
     5    2    3 1   
     6    2    4 1   
     7    2    5 1   
     8    3   29 1   
     9    3   30 1   
    10    3   31 1   
    11    4   32 1   
    12    4   33 1   
    13    4   34 1   
    14    5    6 1   
    15    5    7 1   
    16    6   35 1   
    17    7    8 1   
    18    7    9 1   
    19    7   10 1   
    20    8   36 1   
    21    8   37 1   
    22    8   38 1   
    23    9   39 1   
    24    9   40 1   
    25    9   41 1   
    26   10   11 1   
    27   10   42 1   
    28   10   43 1   
    29   11   12 1   
    30   11   44 1   
    31   12   13 1   
    32   12   45 1   
    33   13   14 2   
    34   13   15 1   
    35   15   16 1   
    36   15   46 1   
    37   16   17 ar  
    38   16   20 ar  
    39   17   18 ar  
    40   17   19 1   
    41   18   22 ar  
    42   18   47 1   
    43   20   21 ar  
    44   20   48 1   
    45   21   22 ar  
    46   21   49 1   
    47   22   23 1   
    48   23   24 2   
    49   23   25 2   
    50   23   26 1   
    51   26   50 1   
    52   26   51 1   
@<TRIPOS>SUBSTRUCTURE
     1 3BS         1 TEMP              0 ****  ****    0 ROOT
