@<TRIPOS>MOLECULE
3BS
   53    54     1     0     0
SMALL
bcc


@<TRIPOS>ATOM
      1 CAQ         0.2830    0.3200   -0.3710 c3        1 3BS     -0.131900
      2 CAR         1.7260    0.3480    0.1900 c3        1 3BS      0.180700
      3 CAS         2.2580    1.7860    0.1920 c3        1 3BS     -0.097100
      4 CAH         2.5880   -0.4320   -0.8270 c3        1 3BS     -0.097100
      5 NAX         1.8430   -0.2780    1.5450 n3        1 3BS     -0.448100
      6 OAY         1.7420   -1.6110    1.4090 oh        1 3BS     -0.431300
      7 CAW         0.8090    0.1740    2.5300 c3        1 3BS      0.180700
      8 CAV         1.1320    1.5720    3.0740 c3        1 3BS     -0.097100
      9 CAZ         0.7910   -0.7790    3.7450 c3        1 3BS     -0.097100
     10 CAU        -0.6300    0.1530    1.9560 c3        1 3BS     -0.131900
     11 CAP        -0.7150    0.9020    0.6290 c3        1 3BS      0.126500
     12 NAO        -2.1250    0.8340    0.0540 ny        1 3BS     -0.647800
     13 CAN        -2.9180    2.1310    0.1440 c         1 3BS      0.286400
     14 SAT        -3.3060    2.7600   -1.2210 s         1 3BS     -0.082400
     15 NAM        -3.1640    2.5380    1.4460 ns        1 3BS     -0.400100
     16 CAL        -4.0510    3.5420    1.8550 ca        1 3BS      0.165600
     17 CAF        -4.1910    3.7860    3.2590 ca        1 3BS     -0.055600
     18 CAE        -5.0930    4.7320    3.7220 ca        1 3BS      0.040000
     19 ClAG       -3.2780    2.9190    4.3930 cl        1 3BS     -0.009400
     20 CAK        -4.8310    4.3230    0.9730 ca        1 3BS     -0.181000
     21 CAJ        -5.7250    5.2640    1.4610 ca        1 3BS      0.050000
     22 CAD        -5.8890    5.4930    2.8410 ca        1 3BS     -0.532500
     23 SAC        -7.0490    6.4760    3.3990 sy        1 3BS      1.480200
     24 OAI        -7.9730    6.8370    2.4450 o         1 3BS     -0.545800
     25 OAA        -7.3510    6.2800    4.7270 o         1 3BS     -0.545800
     26 NAB        -6.0480    8.0880    3.5210 nz        1 3BS     -0.795500
     27 HAQ         0.0220   -0.7500   -0.6000 hc        1 3BS      0.072700
     28 HAQA        0.2710    0.9060   -1.3270 hc        1 3BS      0.072700
     29 HAS         1.5600    2.4960    0.6910 hc        1 3BS      0.057117
     30 HASA        3.2460    1.8340    0.7110 hc        1 3BS      0.057117
     31 HASB        2.4000    2.1220   -0.8650 hc        1 3BS      0.057117
     32 HAH         2.5000    0.0480   -1.8310 hc        1 3BS      0.057117
     33 HAHA        3.6590   -0.4100   -0.5110 hc        1 3BS      0.057117
     34 HAHB        2.2580   -1.4960   -0.9040 hc        1 3BS      0.057117
     35 HOAY        2.6150   -1.9540    1.6860 ho        1 3BS      0.450000
     36 HAV         2.2360    1.7420    3.1150 hc        1 3BS      0.057117
     37 HAVA        0.6710    2.3770    2.4570 hc        1 3BS      0.057117
     38 HAVB        0.7300    1.6680    4.1130 hc        1 3BS      0.057117
     39 HAZ         0.5660   -1.8280    3.4330 hc        1 3BS      0.057117
     40 HAZA        0.0110   -0.4430    4.4680 hc        1 3BS      0.057117
     41 HAZB        1.7860   -0.7630    4.2530 hc        1 3BS      0.057117
     42 HAU        -0.9230   -0.9230    1.8120 hc        1 3BS      0.072700
     43 HAUA       -1.3110    0.6080    2.7200 hc        1 3BS      0.072700
     44 HAP        -0.4830    1.9980    0.7820 hx        1 3BS      0.105700
     45 HNAO       -2.6350    0.0680    0.5120 hn        1 3BS      0.470300
     46 HNAM       -2.6850    2.0690    2.2000 hn        1 3BS      0.359500
     47 HAE        -5.2090    4.8730    4.8180 ha        1 3BS      0.197000
     48 HAK        -4.7520    4.1940   -0.1260 ha        1 3BS      0.204000
     49 HAJ        -6.3440    5.8310    0.7350 ha        1 3BS      0.189000
     50 HNAB       -6.0510    8.4360    4.4820 hn        1 3BS      0.465133
     51 HNAA       -6.4710    8.8130    2.9370 hn        1 3BS      0.465133
     52 HAO2       -2.0610    0.6190   -0.9600 hn        1 3BS      0.470300
     53 HAB3       -5.0790    7.9900    3.2340 hn        1 3BS      0.465133
@<TRIPOS>BOND
     1    1    2 1   
     2    1   11 1   
     3    1   27 1   
     4    1   28 1   
     5    2    3 1   
     6    2    4 1   
     7    2    5 1   
     8    3   29 1   
     9    3   30 1   
    10    3   31 1   
    11    4   32 1   
    12    4   33 1   
    13    4   34 1   
    14    5    6 1   
    15    5    7 1   
    16    6   35 1   
    17    7    8 1   
    18    7    9 1   
    19    7   10 1   
    20    8   36 1   
    21    8   37 1   
    22    8   38 1   
    23    9   39 1   
    24    9   40 1   
    25    9   41 1   
    26   10   11 1   
    27   10   42 1   
    28   10   43 1   
    29   11   12 1   
    30   11   44 1   
    31   12   13 1   
    32   12   45 1   
    33   12   52 1   
    34   13   14 2   
    35   13   15 1   
    36   15   16 1   
    37   15   46 1   
    38   16   17 ar  
    39   16   20 ar  
    40   17   18 ar  
    41   17   19 1   
    42   18   22 ar  
    43   18   47 1   
    44   20   21 ar  
    45   20   48 1   
    46   21   22 ar  
    47   21   49 1   
    48   22   23 1   
    49   23   24 2   
    50   23   25 2   
    51   23   26 1   
    52   26   50 1   
    53   26   51 1   
    54   26   53 1   
@<TRIPOS>SUBSTRUCTURE
     1 3BS         1 TEMP              0 ****  ****    0 ROOT
