@<TRIPOS>MOLECULE
3BS
   53    54     1     0     0
SMALL
bcc


@<TRIPOS>ATOM
      1 CAQ         0.2850    0.3710   -0.4170 c3        1 3BS     -0.131900
      2 CAR         1.7190    0.3560    0.1660 c3        1 3BS      0.180700
      3 CAS         2.2720    1.7850    0.2300 c3        1 3BS     -0.097100
      4 CAH         2.5850   -0.3980   -0.8670 c3        1 3BS     -0.097100
      5 NAX         1.8070   -0.3220    1.4980 n3        1 3BS     -0.448100
      6 OAY         1.6880   -1.6480    1.3100 oh        1 3BS     -0.431300
      7 CAW         0.7650    0.1080    2.4840 c3        1 3BS      0.180700
      8 CAV         1.0990    1.4800    3.0860 c3        1 3BS     -0.097100
      9 CAZ         0.7140   -0.8900    3.6620 c3        1 3BS     -0.097100
     10 CAU        -0.6660    0.1310    1.8890 c3        1 3BS     -0.131900
     11 CAP        -0.7200    0.9300    0.5910 c3        1 3BS      0.126500
     12 NAO        -2.1220    0.9050   -0.0080 n4        1 3BS     -0.647800
     13 CAN        -2.8970    2.2090    0.1210 c         1 3BS      0.286400
     14 SAT        -3.2550    2.8960   -1.2250 s         1 3BS     -0.082400
     15 NAM        -3.1570    2.5710    1.4330 n         1 3BS     -0.400100
     16 CAL        -4.0340    3.5730    1.8670 ca        1 3BS      0.165600
     17 CAF        -4.1940    3.7630    3.2770 ca        1 3BS     -0.055600
     18 CAE        -5.0890    4.7060    3.7630 ca        1 3BS      0.040000
     19 CLAG       -3.3150    2.8360    4.3910 cl        1 3BS     -0.009400
     20 CAK        -4.7860    4.4010    1.0040 ca        1 3BS     -0.181000
     21 CAJ        -5.6730    5.3370    1.5140 ca        1 3BS      0.050000
     22 CAD        -5.8570    5.5140    2.8990 ca        1 3BS     -0.532500
     23 SAC        -7.0110    6.4940    3.4770 sy        1 3BS      1.480200
     24 OAI        -7.9120    6.9070    2.5230 o         1 3BS     -0.545800
     25 OAA        -7.3390    6.2500    4.7910 o         1 3BS     -0.545800
     26 NAB        -5.9860    8.0820    3.6800 n4        1 3BS     -0.795500
     27 HAQ         0.2960    0.9930   -1.3490 hc        1 3BS      0.072700
     28 HAQA        0.0120   -0.6850   -0.6890 hc        1 3BS      0.072700
     29 HAS         2.4350    2.1580   -0.8110 hc        1 3BS      0.057117
     30 HASA        1.5770    2.4860    0.7460 hc        1 3BS      0.057117
     31 HASB        3.2530    1.7990    0.7650 hc        1 3BS      0.057117
     32 HAH         2.5190    0.1200   -1.8530 hc        1 3BS      0.057117
     33 HAHA        3.6510   -0.4040   -0.5350 hc        1 3BS      0.057117
     34 HAHB        2.2410   -1.4530   -0.9890 hc        1 3BS      0.057117
     35 HOAY        2.5520   -2.0140    1.5870 ho        1 3BS      0.450000
     36 HAV         0.6600    2.3150    2.4920 hc        1 3BS      0.057117
     37 HAVA        2.2050    1.6310    3.1490 hc        1 3BS      0.057117
     38 HAVB        0.6830    1.5420    4.1220 hc        1 3BS      0.057117
     39 HAZ         1.7010   -0.9070    4.1840 hc        1 3BS      0.057117
     40 HAZA       -0.0720   -0.5700    4.3860 hc        1 3BS      0.057117
     41 HAZB        0.4790   -1.9220    3.3070 hc        1 3BS      0.057117
     42 HAU        -0.9730   -0.9340    1.7000 hc        1 3BS      0.072700
     43 HAUA       -1.3510    0.5670    2.6600 hc        1 3BS      0.072700
     44 HAP        -0.4740    2.0160    0.7880 hx        1 3BS      0.105700
     45 HNAO       -2.0450    0.7280   -1.0280 hn        1 3BS      0.470300
     46 HNAM       -2.6970    2.0660    2.1750 hn        1 3BS      0.359500
     47 HAE        -5.2220    4.8050    4.8610 ha        1 3BS      0.197000
     48 HAK        -4.6910    4.3150   -0.0970 ha        1 3BS      0.204000
     49 HAJ        -6.2710    5.9430    0.8010 ha        1 3BS      0.189000
     50 HNAB       -5.0140    7.9790    3.4060 hn        1 3BS      0.465133
     51 HNAA       -6.0010    8.3920    4.6540 hn        1 3BS      0.465133
     52 HAO2       -2.6490    0.1300    0.4140 hn        1 3BS      0.470300
     53 HAB3       -6.3860    8.8370    3.1180 hn        1 3BS      0.465133
@<TRIPOS>BOND
     1    1    2 1   
     2    1   11 1   
     3    1   27 1   
     4    1   28 1   
     5    2    3 1   
     6    2    4 1   
     7    2    5 1   
     8    3   29 1   
     9    3   30 1   
    10    3   31 1   
    11    4   32 1   
    12    4   33 1   
    13    4   34 1   
    14    5    6 1   
    15    5    7 1   
    16    6   35 1   
    17    7    8 1   
    18    7    9 1   
    19    7   10 1   
    20    8   36 1   
    21    8   37 1   
    22    8   38 1   
    23    9   39 1   
    24    9   40 1   
    25    9   41 1   
    26   10   11 1   
    27   10   42 1   
    28   10   43 1   
    29   11   12 1   
    30   11   44 1   
    31   12   13 1   
    32   12   45 1   
    33   12   52 1   
    34   13   14 2   
    35   13   15 1   
    36   15   16 1   
    37   15   46 1   
    38   16   17 ar  
    39   16   20 ar  
    40   17   18 ar  
    41   17   19 1   
    42   18   22 ar  
    43   18   47 1   
    44   20   21 ar  
    45   20   48 1   
    46   21   22 ar  
    47   21   49 1   
    48   22   23 1   
    49   23   24 2   
    50   23   25 2   
    51   23   26 1   
    52   26   50 1   
    53   26   51 1   
    54   26   53 1   
@<TRIPOS>SUBSTRUCTURE
     1 3BS         1 TEMP              0 ****  ****    0 ROOT
