@<TRIPOS>MOLECULE
3BS
   51    49     1     0     0
SMALL
bcc


@<TRIPOS>ATOM
      1 CAQ         1.6450   -1.7700    0.0420 c3        1 3BS     -0.187000
      2 CAR         3.1590   -1.7510    0.0200 c3        1 3BS      0.016500
      3 CAS         3.6210   -0.5250   -0.7300 c3        1 3BS     -0.208000
      4 CAH         3.6560   -2.9880   -0.7070 c3        1 3BS     -0.208000
      5 NAX         3.7410   -1.7290    1.3700 n3        1 3BS     -0.102000
      6 OAY         3.5380   -2.9420    1.9750 oh        1 3BS     -0.280000
      7 CAW         3.1860   -0.6610    2.2140 c3        1 3BS      0.016500
      8 CAV         3.6510    0.6740    1.6820 c3        1 3BS     -0.208000
      9 CAZ         3.7080   -0.8340    3.6290 c3        1 3BS     -0.208000
     10 CAU         1.6720   -0.6760    2.2450 c3        1 3BS     -0.187000
     11 CAP         1.0800   -0.6930    0.8860 c3        1 3BS      0.011000
     12 NAO        -0.3770   -0.8940    1.0030 n         1 3BS     -0.331000
     13 CAN        -1.2750    0.0530    0.4310 c2        1 3BS      0.177000
     14 SAT        -0.8300    1.6620    0.3150 s         1 3BS     -0.283000
     15 NAM        -2.5730   -0.3520    0.0400 n         1 3BS     -0.296000
     16 CAL        -3.3930    0.5280   -0.7010 c2        1 3BS      0.143000
     17 CAF        -4.0560    0.0700   -1.8250 c2        1 3BS     -0.140000
     18 CAE        -4.9420    0.9030   -2.4970 c1        1 3BS      0.007000
     19 CLAG       -3.6790   -1.5050   -2.4760 cl        1 3BS     -0.015000
     20 CAK        -3.6130    1.8160   -0.2450 c1        1 3BS     -0.156000
     21 CAJ        -4.4980    2.6480   -0.9160 c1        1 3BS      0.002000
     22 CAD        -5.1620    2.1910   -2.0410 c1        1 3BS     -0.842000
     23 SAC        -6.3860    3.2150   -2.8290 s4        1 3BS      2.085800
     24 OAI        -7.4990    2.4330   -3.2960 o         1 3BS     -0.544900
     25 OAA        -7.0320    4.0800   -1.8790 o         1 3BS     -0.544900
     26 NAB        -5.7050    4.0760   -4.0530 n2        1 3BS     -0.953000
     27 HAQ         1.3440   -2.6340    0.3890 hc        1 3BS      0.094500
     28 HAQA        1.3140   -1.6620   -0.8720 hc        1 3BS      0.094500
     29 HAS         4.4630   -0.2040   -0.3450 hc        1 3BS      0.084083
     30 HASA        2.9390    0.1790   -0.6600 hc        1 3BS      0.084083
     31 HASB        3.7590   -0.7510   -1.6690 hc        1 3BS      0.084083
     32 HAH         3.4460   -2.9120   -1.6620 hc        1 3BS      0.084083
     33 HAHA        3.2160   -3.7830   -0.3370 hc        1 3BS      0.084083
     34 HAHB        4.6270   -3.0680   -0.5900 hc        1 3BS      0.084083
     35 HOAY        4.3210   -3.3150    2.1610 ho        1 3BS      0.218000
     36 HAV         3.6620    1.3260    2.4060 hc        1 3BS      0.084083
     37 HAVA        3.0390    0.9760    0.9790 hc        1 3BS      0.084083
     38 HAVB        4.5570    0.5810    1.3100 hc        1 3BS      0.084083
     39 HAZ         3.5330   -0.0190    4.1440 hc        1 3BS      0.084083
     40 HAZA        3.2550   -1.5940    4.0550 hc        1 3BS      0.084083
     41 HAZB        4.6740   -1.0030    3.6030 hc        1 3BS      0.084083
     42 HAU         1.3580    0.1190    2.7170 hc        1 3BS      0.094500
     43 HAUA        1.3730   -1.4710    2.7310 hc        1 3BS      0.094500
     44 HAP         1.2470    0.1650    0.4580 h1        1 3BS      0.160000
     45 HNAO       -0.7040   -1.6400    1.4190 hn        1 3BS      0.223000
     46 HNAM       -2.8610   -1.1950    0.2260 hn        1 3BS      0.236000
     47 HAE        -5.4100    0.5800   -3.2900 ha        1 3BS      0.170000
     48 HAK        -3.1450    2.1400    0.5480 ha        1 3BS      0.194000
     49 HAJ        -4.6520    3.5550   -0.5950 ha        1 3BS      0.160000
     50 HNAB       -5.2600    4.8500   -3.8720 hn        1 3BS      0.244000
     51 HNAA       -5.7320    3.7530   -4.9100 hn        1 3BS      0.244000
@<TRIPOS>BOND
     1    1    2 1   
     2    1   11 1   
     3    1   27 1   
     4    1   28 1   
     5    2    3 1   
     6    2    4 1   
     7    2    5 1   
     8    3   29 1   
     9    3   30 1   
    10    3   31 1   
    11    4   32 1   
    12    4   33 1   
    13    4   34 1   
    14    5    6 1   
    15    5    7 1   
    16    6   35 1   
    17    7    8 1   
    18    7    9 1   
    19    7   10 1   
    20    8   36 1   
    21    8   37 1   
    22    8   38 1   
    23    9   39 1   
    24    9   40 1   
    25    9   41 1   
    26   10   11 1   
    27   10   42 1   
    28   10   43 1   
    29   11   12 1   
    30   11   44 1   
    31   12   13 1   
    32   12   45 1   
    33   13   14 1   
    34   13   15 1   
    35   15   16 1   
    36   15   46 1   
    37   16   17 1   
    38   16   20 1   
    39   17   18 1   
    40   17   19 1   
    41   18   47 1   
    42   20   48 1   
    43   21   22 1   
    44   21   49 1   
    45   22   23 1   
    46   23   24 1   
    47   23   25 1   
    48   26   50 1   
    49   26   51 1   
@<TRIPOS>SUBSTRUCTURE
     1 3BS         1 TEMP              0 ****  ****    0 ROOT
