@<TRIPOS>MOLECULE
3BS
   54    55     1     0     0
SMALL
bcc


@<TRIPOS>ATOM
      1 CAQ         0.5400    0.4860   -0.4790 c3        1 3BS     -0.151400
      2 CAR         1.8340   -0.0400    0.2110 c3        1 3BS      0.193200
      3 CAS         2.9250    1.0340    0.1540 c3        1 3BS     -0.103350
      4 CAH         2.3240   -1.2120   -0.6680 c3        1 3BS     -0.103350
      5 NAX         1.5840   -0.5140    1.6050 n3        1 3BS     -0.437100
      6 OAY         0.8850   -1.6610    1.5540 oh        1 3BS     -0.439300
      7 CAW         0.8410    0.4500    2.4650 c3        1 3BS      0.193200
      8 CAV         1.7210    1.6300    2.8970 c3        1 3BS     -0.103350
      9 CAZ         0.3650   -0.2480    3.7560 c3        1 3BS     -0.103350
     10 CAU        -0.4570    0.9960    1.7790 c3        1 3BS     -0.151400
     11 CAP        -0.1620    1.5230    0.3910 c3        1 3BS      0.153500
     12 NAO        -1.4640    1.9420   -0.3500 n4        1 3BS     -0.641800
     13 CAN        -2.2480    3.0220    0.3090 c         1 3BS     -0.020600
     14 SAT        -2.0170    4.4950    0.0850 s         1 3BS      0.320600
     15 NAM        -3.3010    2.4650    1.2580 n4        1 3BS     -0.507200
     16 CAL        -4.2090    3.4770    1.8280 ca        1 3BS      0.020600
     17 CAF        -3.9350    4.0510    3.0900 ca        1 3BS      0.009400
     18 CAE        -4.9050    4.8680    3.6940 ca        1 3BS      0.030000
     19 CLAG       -2.4960    3.7410    3.9070 cl        1 3BS      0.036600
     20 CAK        -5.4140    3.7770    1.1680 ca        1 3BS     -0.101000
     21 CAJ        -6.3560    4.5980    1.7890 ca        1 3BS      0.022000
     22 CAD        -6.1280    5.1340    3.0670 ca        1 3BS     -0.396500
     23 SAC        -7.3780    5.8760    3.9140 sy        1 3BS      1.441200
     24 OAI        -8.5840    5.6180    3.3120 o         1 3BS     -0.508300
     25 OAA        -7.1060    5.8900    5.2580 o         1 3BS     -0.508300
     26 NAB        -7.1140    7.6650    3.4630 n4        1 3BS     -0.811500
     27 HAQ        -0.1260   -0.4020   -0.6560 hc        1 3BS      0.070450
     28 HAQA        0.8390    0.9250   -1.4660 hc        1 3BS      0.070450
     29 HAS         3.7840    0.7550    0.8150 hc        1 3BS      0.065783
     30 HASA        3.3100    1.1100   -0.8940 hc        1 3BS      0.065783
     31 HASB        2.5500    2.0370    0.4590 hc        1 3BS      0.065783
     32 HAH         2.4930   -0.8510   -1.7100 hc        1 3BS      0.065783
     33 HAHA        3.2910   -1.6030   -0.2650 hc        1 3BS      0.065783
     34 HAHB        1.5810   -2.0450   -0.6880 hc        1 3BS      0.065783
     35 HOAY        1.5050   -2.3460    1.8810 ho        1 3BS      0.466000
     36 HAV         1.6770    2.4740    2.1710 hc        1 3BS      0.065783
     37 HAVA        2.7890    1.3120    3.0080 hc        1 3BS      0.065783
     38 HAVB        1.3750    2.0110    3.8900 hc        1 3BS      0.065783
     39 HAZ         1.2530   -0.5970    4.3400 hc        1 3BS      0.065783
     40 HAZA       -0.2780   -1.1330    3.5300 hc        1 3BS      0.065783
     41 HAZB       -0.2120    0.4740    4.3810 hc        1 3BS      0.065783
     42 HAU        -1.1870    0.1440    1.7400 hc        1 3BS      0.070450
     43 HAUA       -0.8470    1.8100    2.4430 hc        1 3BS      0.070450
     44 HAP         0.4580    2.4690    0.4460 hx        1 3BS      0.122700
     45 HNAO       -2.0140    1.0850   -0.5090 hn        1 3BS      0.478300
     46 HNAM       -2.8180    1.9770    2.0430 hn        1 3BS      0.486300
     47 HAE        -4.6980    5.2690    4.7130 ha        1 3BS      0.223000
     48 HAK        -5.6590    3.3530    0.1750 ha        1 3BS      0.194000
     49 HAJ        -7.3220    4.7830    1.2680 ha        1 3BS      0.216000
     50 HNAB       -6.9630    8.2310    4.3090 hn        1 3BS      0.482133
     51 HNAA       -6.3290    7.8480    2.8420 hn        1 3BS      0.482133
     52 HAO2       -1.1730    2.2970   -1.2790 hn        1 3BS      0.478300
     53 HAM2       -3.8900    1.7690    0.7690 hn        1 3BS      0.486300
     54 HAB3       -7.9520    8.0490    3.0070 hn        1 3BS      0.482133
@<TRIPOS>BOND
     1    1    2 1   
     2    1   11 1   
     3    1   27 1   
     4    1   28 1   
     5    2    3 1   
     6    2    4 1   
     7    2    5 1   
     8    3   29 1   
     9    3   30 1   
    10    3   31 1   
    11    4   32 1   
    12    4   33 1   
    13    4   34 1   
    14    5    6 1   
    15    5    7 1   
    16    6   35 1   
    17    7    8 1   
    18    7    9 1   
    19    7   10 1   
    20    8   36 1   
    21    8   37 1   
    22    8   38 1   
    23    9   39 1   
    24    9   40 1   
    25    9   41 1   
    26   10   11 1   
    27   10   42 1   
    28   10   43 1   
    29   11   12 1   
    30   11   44 1   
    31   12   13 1   
    32   12   45 1   
    33   12   52 1   
    34   13   14 2   
    35   13   15 1   
    36   15   16 1   
    37   15   46 1   
    38   15   53 1   
    39   16   17 ar  
    40   16   20 ar  
    41   17   18 ar  
    42   17   19 1   
    43   18   22 ar  
    44   18   47 1   
    45   20   21 ar  
    46   20   48 1   
    47   21   22 ar  
    48   21   49 1   
    49   22   23 1   
    50   23   24 2   
    51   23   25 2   
    52   23   26 1   
    53   26   50 1   
    54   26   51 1   
    55   26   54 1   
@<TRIPOS>SUBSTRUCTURE
     1 3BS         1 TEMP              0 ****  ****    0 ROOT
