@<TRIPOS>MOLECULE
3BT
   36    31     1     0     0
SMALL
bcc


@<TRIPOS>ATOM
      1 CA         -1.9890    2.8400   -0.2540 c3        1 3BT     -0.254000
      2 CB         -0.6700    2.3920    0.3400 c3        1 3BT     -0.120000
      3 N1         -4.9500    5.5740    0.2640 n3        1 3BT     -0.377000
      4 N2         -2.9330    5.8960   -0.9210 n1        1 3BT     -0.327000
      5 C          -3.5990    5.2370   -0.0100 c2        1 3BT     -0.018000
      6 S          -2.8130    3.9220    0.8860 ss        1 3BT      0.150000
      7 C3          0.4660   -1.1300   -0.4650 c1        1 3BT     -0.070000
      8 C2         -0.0670   -0.0430    0.2090 c1        1 3BT     -0.120500
      9 C1         -0.1570    1.1890   -0.4220 c1        1 3BT     -0.070000
     10 C6          0.2860    1.3320   -1.7270 c1        1 3BT     -0.120500
     11 C5          0.8190    0.2450   -2.4020 c1        1 3BT     -0.124500
     12 C4          0.9090   -0.9860   -1.7710 c1        1 3BT     -0.124500
     13 CC          1.9100   -2.9150    0.4550 c3        1 3BT     -0.254000
     14 CD          0.4790   -2.4950    0.1910 c3        1 3BT     -0.120000
     15 N1'         4.1520   -5.6060    2.4130 n3        1 3BT     -0.377000
     16 N2'         2.9180   -6.0830    0.4570 n1        1 3BT     -0.327000
     17 C'          3.0790   -5.3420    1.5210 c2        1 3BT     -0.018000
     18 S'          1.9580   -4.0080    1.8520 ss        1 3BT      0.150000
     19 HCA1       -2.5520    2.0580   -0.4260 h1        1 3BT      0.124000
     20 HCA2       -1.8250    3.3150   -1.0930 h1        1 3BT      0.124000
     21 HCB1       -0.0190    3.1200    0.2750 hc        1 3BT      0.101000
     22 HCB2       -0.7990    2.1530    1.2790 hc        1 3BT      0.101000
     23 HN11       -5.3980    6.1490   -0.2870 hn        1 3BT      0.197500
     24 HN12       -5.3710    5.2190    0.9930 hn        1 3BT      0.197500
     25 HN21       -3.3380    6.5730   -1.3820 DU        1 3BT      0.148000
     26 H21        -0.3790   -0.1440    1.1290 ha        1 3BT      0.134500
     27 H61         0.2220    2.1990   -2.1710 ha        1 3BT      0.134500
     28 H51         1.1300    0.3460   -3.3210 ha        1 3BT      0.133500
     29 H41         1.2840   -1.7520   -2.2460 ha        1 3BT      0.133500
     30 HCC1        2.2650   -3.3760   -0.3320 h1        1 3BT      0.124000
     31 HCC2        2.4530   -2.1230    0.6410 h1        1 3BT      0.124000
     32 HCD1       -0.0100   -2.4540    1.0380 hc        1 3BT      0.101000
     33 HCD2        0.0520   -3.1460   -0.4010 hc        1 3BT      0.101000
     34 H1'1        4.7230   -6.3010    2.2490 hn        1 3BT      0.197500
     35 H1'2        4.2690   -5.0830    3.1540 hn        1 3BT      0.197500
     36 HN2'        3.4950   -6.7710    0.2860 DU        1 3BT      0.148000
@<TRIPOS>BOND
     1    1    2 1   
     2    1    6 1   
     3    1   19 1   
     4    1   20 1   
     5    2    9 1   
     6    2   21 1   
     7    2   22 1   
     8    3    5 1   
     9    3   23 1   
    10    3   24 1   
    11    4    5 1   
    12    5    6 1   
    13    7    8 1   
    14    7   14 1   
    15    8   26 1   
    16    9   10 1   
    17   10   27 1   
    18   11   12 1   
    19   11   28 1   
    20   12   29 1   
    21   13   14 1   
    22   13   18 1   
    23   13   30 1   
    24   13   31 1   
    25   14   32 1   
    26   14   33 1   
    27   15   17 1   
    28   15   34 1   
    29   15   35 1   
    30   16   17 1   
    31   17   18 1   
@<TRIPOS>SUBSTRUCTURE
     1 3BT         1 TEMP              0 ****  ****    0 ROOT
