@<TRIPOS>MOLECULE
3BT
   38    36     1     0     0
SMALL
bcc


@<TRIPOS>ATOM
      1 CA         -0.3190    0.2950    0.4380 c3        1 3BT     -0.310000
      2 CB          1.0180    0.7350   -0.1170 c3        1 3BT     -0.134000
      3 N1         -5.5460    1.0560    4.3130 n+        1 3BT     -0.083000
      4 N2         -3.0280    0.8670    2.8990 n1        1 3BT     -0.180000
      5 C          -1.9310    0.9190    2.4900 c1        1 3BT     -0.271000
      6 S          -0.3980    1.0600    2.0380 ss        1 3BT      0.444000
      7 C3          3.7770   -2.1040   -3.9580 c2        1 3BT     -0.166000
      8 C2          3.4160   -3.4790   -3.9330 c1        1 3BT     -0.081000
      9 C1          1.3840   -0.0370   -1.3310 c2        1 3BT     -0.136000
     10 C6          1.6460    0.5490   -2.5060 c2        1 3BT     -0.124000
     11 C5          2.0380   -0.1470   -3.7180 c2        1 3BT     -0.093000
     12 C4          2.9020   -1.1190   -3.8050 c1        1 3BT     -0.012000
     13 CC          6.1440   -2.9420   -3.9740 c3        1 3BT     -0.237000
     14 N1'         7.0340   -5.9370   -6.6820 nz        1 3BT     -0.109000
     15 N2'         7.6380   -5.5760   -4.3010 n2        1 3BT     -0.190000
     16 C'          7.1250   -5.1490   -5.3790 c2        1 3BT     -0.105000
     17 S'          6.4260   -3.5940   -5.6110 ss        1 3BT      0.278000
     18 HCA1        1.8230    0.5720    0.6570 hc        1 3BT      0.115500
     19 HCA2       -1.1520    0.6240   -0.2270 h1        1 3BT      0.127000
     20 HCB1       -0.3670   -0.8170    0.5300 h1        1 3BT      0.127000
     21 HCB2        0.9890    1.8370   -0.3400 hc        1 3BT      0.115500
     22 HN11       -4.8760    1.6900    4.7610 hn        1 3BT      0.270000
     23 HN12       -6.4470    1.1030    4.7940 hn        1 3BT      0.270000
     24 HN21       -5.6570    1.3300    3.3310 hn        1 3BT      0.270000
     25 H21         2.3610   -3.7200   -3.7360 ha        1 3BT      0.059000
     26 H61         1.4410   -1.1300   -1.2000 ha        1 3BT      0.134000
     27 H51         1.5630    1.6450   -2.6310 ha        1 3BT      0.152000
     28 H41         1.5580    0.2260   -4.6490 ha        1 3BT      0.184000
     29 HCC1        5.5350   -0.9350   -3.5110 hc        1 3BT      0.113500
     30 HCC2        7.1190   -2.6200   -3.5360 h1        1 3BT      0.148500
     31 HCD1        5.6830   -3.7160   -3.3100 h1        1 3BT      0.148500
     32 HCD2        5.3340   -1.3790   -5.2500 hc        1 3BT      0.113500
     33 H1'1        6.3730   -5.4670   -7.3130 hn        1 3BT      0.258000
     34 H1'2        6.7040   -6.8910   -6.5150 hn        1 3BT      0.258000
     35 HN2'        8.0040   -6.4920   -4.1660 hn        1 3BT      0.220000
     36 H13        -5.1770    0.1000    4.3520 hn        1 3BT      0.270000
     37 H1'3        7.9540   -5.9780   -7.1330 hn        1 3BT      0.258000
     38 CD          5.2210   -1.7690   -4.1970 c3        1 3BT     -0.101000
@<TRIPOS>BOND
     1    1    2 1   
     2    1    6 1   
     3    1   19 1   
     4    1   20 1   
     5    2    9 1   
     6    2   18 1   
     7    2   21 1   
     8    3   22 1   
     9    3   23 1   
    10    3   24 1   
    11    3   36 1   
    12    4    5 1   
    13    5    6 1   
    14    7    8 1   
    15    7   12 1   
    16    7   38 1   
    17    8   25 1   
    18    9   10 1   
    19    9   26 1   
    20   10   11 1   
    21   10   27 1   
    22   11   12 1   
    23   11   28 1   
    24   13   17 1   
    25   13   30 1   
    26   13   31 1   
    27   13   38 1   
    28   14   16 1   
    29   14   33 1   
    30   14   34 1   
    31   14   37 1   
    32   15   16 1   
    33   15   35 1   
    34   16   17 1   
    35   29   38 1   
    36   32   38 1   
@<TRIPOS>SUBSTRUCTURE
     1 3BT         1 TEMP              0 ****  ****    0 ROOT
