@<TRIPOS>MOLECULE
3BT
   36    36     1     0     0
SMALL
bcc


@<TRIPOS>ATOM
      1 CA          0.1480    0.0320    3.4680 c3        1 3BT     -0.002300
      2 CB          0.1150   -0.9990    2.3620 c3        1 3BT     -0.030600
      3 N1         -1.3150    0.1710    7.2390 nh        1 3BT     -0.912800
      4 N2         -0.1150    1.7640    5.9700 n2        1 3BT     -0.851600
      5 C          -0.6580    0.5950    6.0720 c2        1 3BT      0.652600
      6 S          -0.6330   -0.7170    4.8700 ss        1 3BT     -0.290800
      7 C3          0.7680    0.3910   -1.1060 ca        1 3BT     -0.080300
      8 C2          0.1020   -0.0640    0.0370 ca        1 3BT     -0.118000
      9 C1          0.8260   -0.5060    1.1500 ca        1 3BT     -0.080300
     10 C6          2.2250   -0.4930    1.1130 ca        1 3BT     -0.123500
     11 C5          2.8900   -0.0410   -0.0250 ca        1 3BT     -0.124000
     12 C4          2.1670    0.4010   -1.1310 ca        1 3BT     -0.123500
     13 CC          0.0690   -0.1150   -3.4260 c3        1 3BT     -0.002300
     14 N1'        -1.2510    0.0030   -7.2820 nh        1 3BT     -0.912800
     15 N2'        -0.0770   -1.6360   -5.9190 n2        1 3BT     -0.851600
     16 C'         -0.6950   -0.5130   -6.0990 c2        1 3BT      0.652600
     17 S'         -0.8290    0.6280   -4.7640 ss        1 3BT     -0.290800
     18 HCA1       -0.3920    0.9580    3.1560 h1        1 3BT      0.078450
     19 HCA2        1.2050    0.3090    3.7050 h1        1 3BT      0.078450
     20 HCB1        0.6020   -1.9480    2.7190 hc        1 3BT      0.063700
     21 HCB2       -0.9520   -1.2450    2.1100 hc        1 3BT      0.063700
     22 HN11       -1.5000    0.8810    7.9150 hn        1 3BT      0.404550
     23 HN12       -2.0920   -0.4290    7.0660 hn        1 3BT      0.404550
     24 HN21        0.4280    1.9240    5.1520 hn        1 3BT      0.397400
     25 H21        -0.9980   -0.0750    0.0610 ha        1 3BT      0.134000
     26 H61         2.7970   -0.8440    1.9850 ha        1 3BT      0.135000
     27 H51         3.9900   -0.0340   -0.0500 ha        1 3BT      0.135000
     28 H41         2.6940    0.7560   -2.0290 ha        1 3BT      0.135000
     29 HCC1        1.1290   -0.3080   -3.7210 h1        1 3BT      0.078450
     30 HCC2       -0.3870   -1.0940   -3.1430 h1        1 3BT      0.078450
     31 HCD1       -1.0790    1.0400   -1.9990 hc        1 3BT      0.063700
     32 HCD2        0.4110    1.8640   -2.6160 hc        1 3BT      0.063700
     33 H1'1       -1.5560   -0.6610   -7.9570 hn        1 3BT      0.404550
     34 H1'2       -1.8670    0.7760   -7.1640 hn        1 3BT      0.404550
     35 HN2'       -0.0170   -2.2600   -6.6940 hn        1 3BT      0.397400
     36 CD         -0.0050    0.8730   -2.2850 c3        1 3BT     -0.030600
@<TRIPOS>BOND
     1    1    2 1   
     2    1    6 1   
     3    1   18 1   
     4    1   19 1   
     5    2    9 1   
     6    2   20 1   
     7    2   21 1   
     8    3    5 1   
     9    3   22 1   
    10    3   23 1   
    11    4    5 2   
    12    4   24 1   
    13    5    6 1   
    14    7    8 ar  
    15    7   12 ar  
    16    7   36 1   
    17    8    9 ar  
    18    8   25 1   
    19    9   10 ar  
    20   10   11 ar  
    21   10   26 1   
    22   11   12 ar  
    23   11   27 1   
    24   12   28 1   
    25   13   17 1   
    26   13   29 1   
    27   13   30 1   
    28   13   36 1   
    29   14   16 1   
    30   14   33 1   
    31   14   34 1   
    32   15   16 2   
    33   15   35 1   
    34   16   17 1   
    35   31   36 1   
    36   32   36 1   
@<TRIPOS>SUBSTRUCTURE
     1 3BT         1 TEMP              0 ****  ****    0 ROOT
