@<TRIPOS>MOLECULE
3BT
   38    37     1     0     0
SMALL
bcc


@<TRIPOS>ATOM
      1 CA         -0.3230    0.2660    0.7980 c3        1 3BT     -0.043300
      2 CB          1.1870    0.2670    0.7010 c3        1 3BT     -0.041200
      3 N1         -6.0450    2.2250    3.2850 n4        1 3BT     -0.901200
      4 N2         -3.3730    1.4420    2.5460 n1        1 3BT     -0.518800
      5 C          -2.2280    1.2130    2.4370 c1        1 3BT      0.283900
      6 S          -0.6470    0.9480    2.4050 ss        1 3BT      0.027800
      7 C3          3.2680   -3.3200   -3.3800 cc        1 3BT     -0.120200
      8 C2          2.5900   -3.4480   -2.2340 cd        1 3BT     -0.073000
      9 C1          1.6570   -0.5420   -0.4490 c2        1 3BT     -0.192200
     10 C6          2.4650   -0.0510   -1.4010 cf        1 3BT     -0.084000
     11 C5          3.0060   -0.8010   -2.5100 cf        1 3BT     -0.160000
     12 C4          2.9530   -2.1150   -2.6490 cc        1 3BT     -0.074000
     13 CC          5.3340   -3.5700   -4.6630 c3        1 3BT      0.004700
     14 N1'         8.1650   -4.9360   -7.3770 n4        1 3BT     -0.871600
     15 N2'         8.2190   -3.3280   -5.4860 n2        1 3BT     -0.721100
     16 C'          7.5810   -4.1430   -6.2190 c2        1 3BT      0.557100
     17 S'          5.9060   -4.5250   -6.0530 ss        1 3BT     -0.132300
     18 HCA1        1.6250   -0.1700    1.6450 hc        1 3BT      0.068200
     19 HCA2       -0.7740    0.8800   -0.0170 h1        1 3BT      0.085200
     20 HCB1       -0.7290   -0.7710    0.7180 h1        1 3BT      0.085200
     21 HCB2        1.5570    1.3250    0.6210 hc        1 3BT      0.068200
     22 HN11       -5.4000    2.5470    4.0150 hn        1 3BT      0.474300
     23 HN12       -7.0030    2.4900    3.5230 hn        1 3BT      0.474300
     24 HN21       -5.7730    2.6490    2.3920 hn        1 3BT      0.474300
     25 H21         2.1010   -4.0560   -1.4990 ha        1 3BT      0.205000
     26 H61         1.3240   -1.5920   -0.4630 ha        1 3BT      0.124000
     27 H51         2.7750    1.0100   -1.3740 ha        1 3BT      0.131000
     28 H41         3.5130   -0.2000   -3.2860 ha        1 3BT      0.139000
     29 HCC1        3.3150   -3.5310   -5.4720 hc        1 3BT      0.084700
     30 HCC2        5.4870   -2.4780   -4.8380 h1        1 3BT      0.106700
     31 HCD1        5.8860   -3.8580   -3.7350 h1        1 3BT      0.106700
     32 HCD2        3.7270   -5.0320   -4.5260 hc        1 3BT      0.084700
     33 H1'1        7.4410   -5.5430   -7.7810 hn        1 3BT      0.467133
     34 H1'2        8.9430   -5.5230   -7.0560 hn        1 3BT      0.467133
     35 HN2'        9.1860   -3.1080   -5.5780 hn        1 3BT      0.472400
     36 H13        -5.9710    1.2050    3.2040 hn        1 3BT      0.474300
     37 H1'3        8.5070   -4.3030   -8.1080 hn        1 3BT      0.467133
     38 CD          3.8610   -3.9130   -4.5610 c3        1 3BT     -0.001200
@<TRIPOS>BOND
     1    1    2 1   
     2    1    6 1   
     3    1   19 1   
     4    1   20 1   
     5    2    9 1   
     6    2   18 1   
     7    2   21 1   
     8    3   22 1   
     9    3   23 1   
    10    3   24 1   
    11    3   36 1   
    12    4    5 3   
    13    5    6 1   
    14    7    8 2   
    15    7   12 1   
    16    7   38 1   
    17    8   12 1   
    18    8   25 1   
    19    9   10 2   
    20    9   26 1   
    21   10   11 1   
    22   10   27 1   
    23   11   12 2   
    24   11   28 1   
    25   13   17 1   
    26   13   30 1   
    27   13   31 1   
    28   13   38 1   
    29   14   16 1   
    30   14   33 1   
    31   14   34 1   
    32   14   37 1   
    33   15   16 2   
    34   15   35 1   
    35   16   17 1   
    36   29   38 1   
    37   32   38 1   
@<TRIPOS>SUBSTRUCTURE
     1 3BT         1 TEMP              0 ****  ****    0 ROOT
