@<TRIPOS>MOLECULE
3BT
   38    36     1     0     0
SMALL
bcc


@<TRIPOS>ATOM
      1 CA         -0.2050   -0.1660    0.2310 c3        1 3BT     -0.309000
      2 CB          1.2310   -0.6020    0.0340 c3        1 3BT     -0.135000
      3 N1         -5.3710    1.9540    3.6250 n4        1 3BT     -0.082000
      4 N2         -2.9350    0.8830    2.4950 n1        1 3BT     -0.183000
      5 C          -1.8920    0.4210    2.2280 c1        1 3BT     -0.269000
      6 S          -0.4450   -0.2290    1.9890 ss        1 3BT      0.441000
      7 C3          2.8080   -2.7560   -3.7690 c2        1 3BT     -0.021000
      8 C2          1.4450   -3.0200   -3.5760 c1        1 3BT      0.022000
      9 C1          1.5490   -0.7580   -1.4070 c2        1 3BT     -0.126000
     10 C6          2.6070   -0.1720   -1.9820 c2        1 3BT     -0.160000
     11 C5          2.9760   -0.2710   -3.3790 c2        1 3BT     -0.057000
     12 C4          3.0740   -1.3610   -4.1510 c2        1 3BT     -0.185000
     13 CC          5.2190   -3.3410   -3.5390 c3        1 3BT     -0.150000
     14 N1'         7.8900   -4.7710   -6.4460 n4        1 3BT     -0.109000
     15 N2'         8.1780   -3.3870   -4.4050 n2        1 3BT     -0.201000
     16 C'          7.4200   -3.9980   -5.2180 c2        1 3BT     -0.103000
     17 S'          5.7050   -4.0880   -5.1090 ss        1 3BT      0.205000
     18 HCA1        1.3980   -1.5960    0.5400 hc        1 3BT      0.114000
     19 HCA2       -0.3660    0.8620   -0.1720 h1        1 3BT      0.127000
     20 HCB1       -0.9060   -0.8590   -0.2930 h1        1 3BT      0.127000
     21 HCB2        1.9210    0.1420    0.5190 hc        1 3BT      0.114000
     22 HN11       -4.5990    2.6140    3.7660 hn        1 3BT      0.270000
     23 HN12       -6.2360    2.3400    4.0090 hn        1 3BT      0.270000
     24 HN21       -5.4780    1.7790    2.6210 hn        1 3BT      0.270000
     25 H21         0.7400   -3.3900   -4.3200 ha        1 3BT      0.143000
     26 H61         0.8700   -1.4210   -1.9760 ha        1 3BT      0.154000
     27 H51         3.2710    0.4910   -1.3950 ha        1 3BT      0.142000
     28 H41         3.2440    0.7080   -3.8300 ha        1 3BT      0.148000
     29 HCC1        3.4040   -1.2640   -5.2020 ha        1 3BT      0.152000
     30 HCC2        5.7790   -3.8240   -2.7030 h1        1 3BT      0.137000
     31 HCD1        5.4410   -2.2470   -3.5490 h1        1 3BT      0.137000
     32 HCD2        3.5330   -4.6960   -3.2510 ha        1 3BT      0.152000
     33 H1'1        7.0900   -5.2650   -6.8600 hn        1 3BT      0.257000
     34 H1'2        8.6050   -5.4600   -6.1940 hn        1 3BT      0.257000
     35 HN2'        9.1710   -3.3550   -4.4630 hn        1 3BT      0.220000
     36 H13        -5.1420    1.0710    4.0930 hn        1 3BT      0.270000
     37 H1'3        8.2790   -4.1300   -7.1430 hn        1 3BT      0.257000
     38 CD          3.7950   -3.6620   -3.5280 c2        1 3BT     -0.291000
@<TRIPOS>BOND
     1    1    2 1   
     2    1    6 1   
     3    1   19 1   
     4    1   20 1   
     5    2    9 1   
     6    2   18 1   
     7    2   21 1   
     8    3   22 1   
     9    3   23 1   
    10    3   24 1   
    11    3   36 1   
    12    4    5 1   
    13    5    6 1   
    14    7    8 1   
    15    7   12 1   
    16    7   38 1   
    17    8   25 1   
    18    9   10 1   
    19    9   26 1   
    20   10   11 1   
    21   10   27 1   
    22   11   12 1   
    23   11   28 1   
    24   12   29 1   
    25   13   17 1   
    26   13   30 1   
    27   13   31 1   
    28   13   38 1   
    29   14   16 1   
    30   14   33 1   
    31   14   34 1   
    32   14   37 1   
    33   15   16 1   
    34   15   35 1   
    35   16   17 1   
    36   32   38 1   
@<TRIPOS>SUBSTRUCTURE
     1 3BT         1 TEMP              0 ****  ****    0 ROOT
