@<TRIPOS>MOLECULE
3BW
   47    49     1     0     0
SMALL
bcc


@<TRIPOS>ATOM
      1 C1          0.6060    0.6650    1.0400 c3        1 3BW     -0.229000
      2 C2          1.6230    1.3840    1.8210 c2        1 3BW      0.079000
      3 C3          1.7470    1.2420    3.1760 c2        1 3BW     -0.335000
      4 C8         -1.6350   -0.7320   -0.0470 c2        1 3BW      0.015000
      5 C9         -2.5610   -1.8070   -0.5720 c3        1 3BW     -0.186000
      6 C10        -2.1420   -2.2630   -1.8940 c1        1 3BW      0.055000
      7 C11        -1.1750   -1.5240   -2.7400 c3        1 3BW     -0.138000
      8 C12        -1.0150   -0.0820   -2.2960 c2        1 3BW     -0.039000
      9 C13        -1.0970    0.0500   -0.9810 c1        1 3BW     -0.287000
     10 C16         4.2540    0.9660    4.3650 c3        1 3BW     -0.290000
     11 C19         6.6050   -2.0260    2.0360 c3        1 3BW      0.111000
     12 C21         7.6970   -0.1500    3.0280 c3        1 3BW     -0.026000
     13 C22         6.5630    0.1880    3.9800 c3        1 3BW     -0.192000
     14 C5         -0.2020   -0.2450    3.2420 c2        1 3BW     -0.249000
     15 C4          0.8230    0.4220    3.8850 c2        1 3BW      0.120000
     16 C6         -0.3280   -0.1400    1.8430 c2        1 3BW      0.245000
     17 C23         4.7430   -0.5510    2.4510 c2        1 3BW      0.030000
     18 C18         5.5510    1.8060    2.3670 c3        1 3BW     -0.215000
     19 C17         5.2680    0.6170    3.2720 c3        1 3BW      0.019000
     20 O24         5.3380   -1.7950    2.6620 os        1 3BW     -0.314000
     21 O20         7.2490   -0.8040    1.8420 os        1 3BW     -0.279000
     22 O26         3.2800   -1.4810    0.9670 oh        1 3BW     -0.227000
     23 O7         -1.3610   -0.8220    1.3040 os        1 3BW     -0.067000
     24 S15         2.9470    2.1070    4.0240 ss        1 3BW      0.234000
     25 CL1         0.3150   -2.4500   -2.7120 cl        1 3BW     -0.001000
     26 H1          1.1590   -0.0250    0.3130 hc        1 3BW      0.230000
     27 H2          0.0280    1.3850    0.3650 hc        1 3BW      0.230000
     28 H3         -2.5760   -2.6810    0.1430 hc        1 3BW      0.192500
     29 H4         -3.6310   -1.4510   -0.6580 hc        1 3BW      0.192500
     30 H5         -1.5380   -1.5350   -3.8080 h1        1 3BW      0.193000
     31 H6         -0.9690    0.7160   -3.0460 ha        1 3BW      0.188000
     32 H7          4.7920    1.5170    5.1860 h1        1 3BW      0.132000
     33 H8          3.8480    0.0190    4.7970 h1        1 3BW      0.132000
     34 H9          6.2120    1.4920    1.5220 hc        1 3BW      0.097000
     35 H10         6.4460   -2.4540    1.0080 h2        1 3BW      0.119500
     36 H11         7.1380   -2.7260    2.7340 h2        1 3BW      0.119500
     37 H12         8.4580   -0.7900    3.5490 h1        1 3BW      0.109500
     38 H13         8.1900    0.7800    2.6310 h1        1 3BW      0.109500
     39 H14         6.9070    1.0210    4.6480 hc        1 3BW      0.108000
     40 H15         6.3380   -0.7030    4.6250 hc        1 3BW      0.108000
     41 H16         0.9330    0.3310    4.9840 ha        1 3BW      0.187000
     42 H17        -0.9240   -0.8620    3.8050 ha        1 3BW      0.194000
     43 H18         4.6010    2.2210    1.9500 hc        1 3BW      0.097000
     44 H19         6.0660    2.6090    2.9480 hc        1 3BW      0.097000
     45 H20         3.8590   -2.2730    1.0470 ho        1 3BW      0.218000
     46 N25         3.7170   -0.4640    1.6420 n2        1 3BW     -0.078000
     47 H252        2.3200    2.0260    1.2480 ha        1 3BW      0.191000
@<TRIPOS>BOND
     1    1    2 1   
     2    1   16 1   
     3    1   26 1   
     4    1   27 1   
     5    2    3 1   
     6    2   47 1   
     7    3   15 1   
     8    3   24 1   
     9    4    5 1   
    10    4    9 1   
    11    4   23 1   
    12    5    6 1   
    13    5   28 1   
    14    5   29 1   
    15    6    7 1   
    16    7    8 1   
    17    7   25 1   
    18    7   30 1   
    19    8    9 1   
    20    8   31 1   
    21   10   19 1   
    22   10   24 1   
    23   10   32 1   
    24   10   33 1   
    25   11   20 1   
    26   11   21 1   
    27   11   35 1   
    28   11   36 1   
    29   12   13 1   
    30   12   21 1   
    31   12   37 1   
    32   12   38 1   
    33   13   19 1   
    34   13   39 1   
    35   13   40 1   
    36   14   15 1   
    37   14   16 1   
    38   14   42 1   
    39   15   41 1   
    40   16   23 1   
    41   17   19 1   
    42   17   20 1   
    43   17   46 1   
    44   18   19 1   
    45   18   34 1   
    46   18   43 1   
    47   18   44 1   
    48   22   45 1   
    49   22   46 1   
@<TRIPOS>SUBSTRUCTURE
     1 3BW         1 TEMP              0 ****  ****    0 ROOT
