@<TRIPOS>MOLECULE
3BW
   47    49     1     0     0
SMALL
bcc


@<TRIPOS>ATOM
      1 C1          0.3110    0.6980    0.5300 c3        1 3BW     -0.205000
      2 C2          1.4560    1.4050    1.1190 c2        1 3BW     -0.041000
      3 C3          1.9620    1.1070    2.3550 c2        1 3BW     -0.285000
      4 C8         -1.9800   -0.8490   -0.1730 c2        1 3BW      0.013000
      5 C9         -2.8740   -1.9660   -0.6640 c3        1 3BW     -0.186000
      6 C10        -2.8250   -2.0790   -2.1190 c1        1 3BW      0.056000
      7 C11        -2.2660   -1.0230   -2.9970 c3        1 3BW     -0.138000
      8 C12        -2.1670    0.3140   -2.2880 c2        1 3BW     -0.041000
      9 C13        -1.8590    0.1810   -1.0080 c1        1 3BW     -0.287000
     10 C16         4.2550    1.2150    4.0180 c3        1 3BW     -0.295000
     11 C19         7.2790   -1.7880    2.6270 c3        1 3BW      0.105000
     12 C21         7.8510   -0.1010    4.2260 c3        1 3BW     -0.028000
     13 C22         6.3890    0.1130    4.5710 c3        1 3BW     -0.198000
     14 C5          0.3130   -0.6940    2.6250 c2        1 3BW     -0.231000
     15 C4          1.3880    0.0280    3.0990 c2        1 3BW      0.134000
     16 C6         -0.2350   -0.3840    1.3640 c2        1 3BW      0.241000
     17 C23         5.1740   -0.6300    2.5530 c2        1 3BW      0.001000
     18 C18         6.2300    1.6140    2.5490 c3        1 3BW     -0.225000
     19 C17         5.5070    0.5810    3.4040 c3        1 3BW      0.016000
     20 O24         6.2070   -1.2500    1.8550 os        1 3BW     -0.281000
     21 O20         8.0940   -0.7030    2.9590 os        1 3BW     -0.268000
     22 O26         3.7010   -2.1030    1.6180 oh        1 3BW     -0.212000
     23 O7         -1.2990   -1.1300    0.9960 os        1 3BW     -0.066000
     24 S15         3.1890    2.1170    2.9370 ss        1 3BW      0.292000
     25 Cl1        -0.7300   -1.6340   -3.5870 cl        1 3BW     -0.002000
     26 H1          0.6160    0.2750   -0.4810 hc        1 3BW      0.215500
     27 H2         -0.5250    1.4400    0.2810 hc        1 3BW      0.215500
     28 H3         -2.5550   -2.9440   -0.1980 hc        1 3BW      0.193000
     29 H4         -3.9560   -1.8130   -0.3710 hc        1 3BW      0.193000
     30 H5         -2.9320   -0.9060   -3.9010 h1        1 3BW      0.193000
     31 H6         -2.4590    1.2310   -2.8130 ha        1 3BW      0.188000
     32 H7          4.5930    2.0300    4.7180 h1        1 3BW      0.131000
     33 H8          3.7050    0.4560    4.6230 h1        1 3BW      0.131000
     34 H9          7.0590    1.1290    1.9750 hc        1 3BW      0.104333
     35 H10         7.8570   -2.4050    1.8810 h2        1 3BW      0.122500
     36 H11         6.9110   -2.3720    3.5070 h2        1 3BW      0.122500
     37 H12         8.3300   -0.7360    5.0210 h1        1 3BW      0.107500
     38 H13         8.3960    0.8800    4.1480 h1        1 3BW      0.107500
     39 H14         6.3550    0.8830    5.3890 hc        1 3BW      0.101500
     40 H15         5.9560   -0.8330    4.9900 hc        1 3BW      0.101500
     41 H16         1.8150   -0.2330    4.0860 ha        1 3BW      0.179000
     42 H17        -0.1210   -1.5220    3.2130 ha        1 3BW      0.195000
     43 H18         5.5200    2.0850    1.8260 hc        1 3BW      0.104333
     44 H19         6.6610    2.4080    3.2040 hc        1 3BW      0.104333
     45 H20         4.5120   -2.5320    1.2610 ho        1 3BW      0.219000
     46 N25         3.9560   -1.0810    2.3720 n2        1 3BW     -0.084000
     47 H252        1.9000    2.2070    0.5000 ha        1 3BW      0.184000
@<TRIPOS>BOND
     1    1    2 1   
     2    1   16 1   
     3    1   26 1   
     4    1   27 1   
     5    2    3 1   
     6    2   47 1   
     7    3   15 1   
     8    3   24 1   
     9    4    5 1   
    10    4    9 1   
    11    4   23 1   
    12    5    6 1   
    13    5   28 1   
    14    5   29 1   
    15    6    7 1   
    16    7    8 1   
    17    7   25 1   
    18    7   30 1   
    19    8    9 1   
    20    8   31 1   
    21   10   19 1   
    22   10   24 1   
    23   10   32 1   
    24   10   33 1   
    25   11   20 1   
    26   11   21 1   
    27   11   35 1   
    28   11   36 1   
    29   12   13 1   
    30   12   21 1   
    31   12   37 1   
    32   12   38 1   
    33   13   19 1   
    34   13   39 1   
    35   13   40 1   
    36   14   15 1   
    37   14   16 1   
    38   14   42 1   
    39   15   41 1   
    40   16   23 1   
    41   17   19 1   
    42   17   20 1   
    43   17   46 1   
    44   18   19 1   
    45   18   34 1   
    46   18   43 1   
    47   18   44 1   
    48   22   45 1   
    49   22   46 1   
@<TRIPOS>SUBSTRUCTURE
     1 3BW         1 TEMP              0 ****  ****    0 ROOT
