@<TRIPOS>MOLECULE
3BW
   46    46     1     0     0
SMALL
bcc


@<TRIPOS>ATOM
      1 C1         -0.0380    0.3130    0.1160 c3        1 3BW     -0.204000
      2 C2          1.3560    0.5910    0.4220 c1        1 3BW     -0.050000
      3 C3          1.9010    0.1500    1.6630 c2        1 3BW     -0.370000
      4 C8         -2.7890   -0.3720   -0.1480 c2        1 3BW      0.060000
      5 C9         -4.0620   -1.1350   -0.4610 c3        1 3BW     -0.195000
      6 C10        -4.2290   -1.3330   -1.9030 c1        1 3BW      0.022000
      7 C11        -3.4050   -0.5960   -2.8920 c3        1 3BW     -0.126000
      8 C12        -2.8870    0.7070   -2.3130 c2        1 3BW     -0.088000
      9 C13        -2.4970    0.5590   -1.0580 c1        1 3BW     -0.295000
     10 C16         4.0760   -0.0720    3.2820 c3        1 3BW     -0.337000
     11 C19         9.7060    1.2600    2.2570 c2        1 3BW      0.137000
     12 C21         7.1420   -0.0700    5.3710 c2        1 3BW     -0.180000
     13 C22         6.0110   -0.4210    4.7640 c2        1 3BW     -0.208000
     14 C5         -0.2310   -0.8340    2.3200 c2        1 3BW     -0.198000
     15 C4          1.1380   -0.5240    2.5820 c2        1 3BW     -0.049000
     16 C6         -0.7950   -0.4480    1.1370 c2        1 3BW      0.042000
     17 C23         6.2850   -0.8700    2.3670 c2        1 3BW      0.251000
     18 C18         6.0200    1.4800    3.1430 c3        1 3BW     -0.212000
     19 C17         5.5950    0.0390    3.3950 c3        1 3BW     -0.010000
     20 O24         7.0190   -0.4330    1.4670 o         1 3BW     -0.329000
     21 O20         9.5270    1.4740    3.4550 o         1 3BW     -0.308000
     22 O26         6.8440   -3.0540    1.7880 oh        1 3BW     -0.244000
     23 O7         -2.1250   -0.8120    0.9590 os        1 3BW     -0.122000
     24 S15         3.5150    0.6020    1.7490 ss        1 3BW      0.371000
     25 CL1        -4.3360   -0.2960   -4.3480 cl        1 3BW     -0.042000
     26 H1         -0.0720   -0.2190   -0.8810 hc        1 3BW      0.188000
     27 H2         -0.5380    1.3200   -0.0630 hc        1 3BW      0.188000
     28 H3         -4.0390   -2.1360    0.0560 hc        1 3BW      0.173500
     29 H4         -4.9820   -0.5980   -0.0900 hc        1 3BW      0.173500
     30 H5         -2.5670   -1.2890   -3.1950 h1        1 3BW      0.170000
     31 H6         -2.9610    1.6360   -2.8850 ha        1 3BW      0.176000
     32 H7          3.6190    0.4940    4.1340 h1        1 3BW      0.109500
     33 H8          3.7540   -1.1380    3.3880 h1        1 3BW      0.109500
     34 H9          7.1360    1.5610    3.1460 hc        1 3BW      0.098667
     35 H10        10.6790    1.4760    1.7660 h4        1 3BW      0.086000
     36 H11         8.9100    0.8390    1.6050 h4        1 3BW      0.086000
     37 H12         7.8970    0.5930    4.9180 ha        1 3BW      0.133500
     38 H13         7.3910   -0.4350    6.3770 ha        1 3BW      0.133500
     39 H14         5.2870   -1.0890    5.2610 ha        1 3BW      0.119000
     40 H15         5.9000   -2.6000    3.3820 hn        1 3BW      0.212000
     41 H16         1.5470   -0.8520    3.5520 ha        1 3BW      0.133000
     42 H17        -0.8090   -1.3850    3.0750 ha        1 3BW      0.152000
     43 H18         5.6030    2.1420    3.9370 hc        1 3BW      0.098667
     44 H19         5.6490    1.8210    2.1440 hc        1 3BW      0.098667
     45 H20         6.6650   -2.9280    0.8350 ho        1 3BW      0.234000
     46 N25         5.9760   -2.2650    2.4270 n         1 3BW     -0.190000
@<TRIPOS>BOND
     1    1    2 1   
     2    1   16 1   
     3    1   26 1   
     4    1   27 1   
     5    2    3 1   
     6    3   15 1   
     7    3   24 1   
     8    4    5 1   
     9    4    9 1   
    10    4   23 1   
    11    5    6 1   
    12    5   28 1   
    13    5   29 1   
    14    6    7 1   
    15    7    8 1   
    16    7   25 1   
    17    7   30 1   
    18    8    9 1   
    19    8   31 1   
    20   10   19 1   
    21   10   24 1   
    22   10   32 1   
    23   10   33 1   
    24   11   21 1   
    25   11   35 1   
    26   11   36 1   
    27   12   13 1   
    28   12   37 1   
    29   12   38 1   
    30   13   19 1   
    31   13   39 1   
    32   14   15 1   
    33   14   16 1   
    34   14   42 1   
    35   15   41 1   
    36   16   23 1   
    37   17   19 1   
    38   17   20 1   
    39   17   46 1   
    40   18   19 1   
    41   18   34 1   
    42   18   43 1   
    43   18   44 1   
    44   22   45 1   
    45   22   46 1   
    46   40   46 1   
@<TRIPOS>SUBSTRUCTURE
     1 3BW         1 TEMP              0 ****  ****    0 ROOT
