@<TRIPOS>MOLECULE
3BX
   63    66     1     0     0
SMALL
bcc


@<TRIPOS>ATOM
      1 C1         -0.6940    0.0710   -0.0180 ca        1 3BX     -0.121500
      2 C2          0.6640    0.2950   -0.2210 ca        1 3BX     -0.109000
      3 C3          1.5050    0.5790    0.8690 ca        1 3BX      0.023000
      4 C9         -4.7120   -1.3020    0.9050 c3        1 3BX      0.124300
      5 C10        -5.3100   -1.7980    2.2260 c3        1 3BX      0.092900
      6 C12        -3.3170   -2.9940    2.6980 c3        1 3BX      0.092900
      7 C13        -2.6980   -2.5040    1.3840 c3        1 3BX      0.124300
      8 C14         2.8770    0.8070    0.6670 cg        1 3BX     -0.098000
      9 C15         4.0490    1.0020    0.4950 ch        1 3BX     -0.105000
     10 C16         5.4200    1.2300    0.2930 ca        1 3BX     -0.001000
     11 C19         8.1470    1.6840   -0.1070 ca        1 3BX      0.126100
     12 C20         7.6110    1.7650    1.1920 ca        1 3BX     -0.179500
     13 C21         6.2560    1.5360    1.3840 ca        1 3BX     -0.073500
     14 C24        11.5320    2.3810   -1.3800 c3        1 3BX     -0.107000
     15 C30        12.3890    1.3920   -0.5810 c         1 3BX      0.596100
     16 C4          0.9600    0.6320    2.1620 ca        1 3BX     -0.109000
     17 C17         5.9710    1.1540   -0.9950 ca        1 3BX     -0.073500
     18 C5         -0.3990    0.4040    2.3580 ca        1 3BX     -0.121500
     19 C18         7.3300    1.3790   -1.2010 ca        1 3BX     -0.179500
     20 C6         -1.2350    0.1230    1.2720 ca        1 3BX     -0.078300
     21 C25        11.6570    3.7440   -0.6930 c3        1 3BX     -0.111400
     22 C29        12.1330    2.4610   -2.7880 c3        1 3BX     -0.111400
     23 C26        11.1720    4.8770   -1.5790 c3        1 3BX      0.126400
     24 C28        11.6280    3.6640   -3.5640 c3        1 3BX      0.126400
     25 C23        10.0620    1.9650   -1.5030 c3        1 3BX      0.123400
     26 N8         -3.2550   -1.2620    0.8640 n3        1 3BX     -0.712600
     27 N32        11.8180    0.1620   -0.1410 n         1 3BX     -0.348400
     28 O31        13.6080    1.5860   -0.4310 o         1 3BX     -0.567100
     29 O27        11.8070    4.8800   -2.8520 os        1 3BX     -0.407600
     30 O11        -4.7390   -3.0390    2.6280 os        1 3BX     -0.412600
     31 O33        12.5340   -0.4780    0.7900 oh        1 3BX     -0.436100
     32 O22         9.5090    1.9140   -0.1810 os        1 3BX     -0.346900
     33 H1         -1.3480   -0.1520   -0.8750 ha        1 3BX      0.142000
     34 H2          1.0840    0.2500   -1.2370 ha        1 3BX      0.139500
     35 H3         -2.9200   -0.0430    2.6030 h1        1 3BX      0.041200
     36 H4         -3.2330    0.8260    1.0330 h1        1 3BX      0.041200
     37 H5         -5.1270   -0.2830    0.6770 h1        1 3BX      0.064700
     38 H6         -5.0300   -2.0040    0.0820 h1        1 3BX      0.064700
     39 H7         -5.1640   -1.0410    3.0410 h1        1 3BX      0.050950
     40 H8         -6.4020   -2.0230    2.1050 h1        1 3BX      0.050950
     41 H9         -3.0100   -2.3380    3.5550 h1        1 3BX      0.050950
     42 H10        -3.0180   -4.0550    2.9030 h1        1 3BX      0.050950
     43 H11        -2.8720   -3.2870    0.5920 h1        1 3BX      0.064700
     44 H12        -1.5890   -2.3840    1.5250 h1        1 3BX      0.064700
     45 H13         8.2710    2.0060    2.0380 ha        1 3BX      0.147000
     46 H14         5.8290    1.5960    2.3970 ha        1 3BX      0.144000
     47 H15         1.6100    0.8540    3.0210 ha        1 3BX      0.139500
     48 H16         5.3240    0.9130   -1.8520 ha        1 3BX      0.144000
     49 H17        -0.8150    0.4470    3.3760 ha        1 3BX      0.142000
     50 H18         7.7400    1.3110   -2.2180 ha        1 3BX      0.147000
     51 H19        12.7380    3.9150   -0.4380 hc        1 3BX      0.074450
     52 H20        11.0640    3.7390    0.2570 hc        1 3BX      0.074450
     53 H21        11.8960    1.5260   -3.3580 hc        1 3BX      0.074450
     54 H22        13.2500    2.5350   -2.6870 hc        1 3BX      0.074450
     55 H23        10.0590    4.8290   -1.7170 h1        1 3BX      0.050450
     56 H24        11.4530    5.8710   -1.1360 h1        1 3BX      0.050450
     57 H25        12.2300    3.8080   -4.5010 h1        1 3BX      0.050450
     58 H26        10.5440    3.5430   -3.8310 h1        1 3BX      0.050450
     59 H27         9.5050    2.7280   -2.1100 h1        1 3BX      0.055200
     60 H28         9.9670    0.9570   -1.9870 h1        1 3BX      0.055200
     61 H30        10.8750    0.2680    0.2250 hn        1 3BX      0.316500
     62 H31        13.3520   -0.7750    0.3440 ho        1 3BX      0.433000
     63 C7         -2.7080   -0.0630    1.4920 c3        1 3BX      0.201100
@<TRIPOS>BOND
     1    1    2 ar  
     2    1   20 ar  
     3    1   33 1   
     4    2    3 ar  
     5    2   34 1   
     6    3    8 1   
     7    3   16 ar  
     8    4    5 1   
     9    4   26 1   
    10    4   37 1   
    11    4   38 1   
    12    5   30 1   
    13    5   39 1   
    14    5   40 1   
    15    6    7 1   
    16    6   30 1   
    17    6   41 1   
    18    6   42 1   
    19    7   26 1   
    20    7   43 1   
    21    7   44 1   
    22    8    9 3   
    23    9   10 1   
    24   10   13 ar  
    25   10   17 ar  
    26   11   12 ar  
    27   11   19 ar  
    28   11   32 1   
    29   12   13 ar  
    30   12   45 1   
    31   13   46 1   
    32   14   15 1   
    33   14   21 1   
    34   14   22 1   
    35   14   25 1   
    36   15   27 1   
    37   15   28 2   
    38   16   18 ar  
    39   16   47 1   
    40   17   19 ar  
    41   17   48 1   
    42   18   20 ar  
    43   18   49 1   
    44   19   50 1   
    45   20   63 1   
    46   21   23 1   
    47   21   51 1   
    48   21   52 1   
    49   22   24 1   
    50   22   53 1   
    51   22   54 1   
    52   23   29 1   
    53   23   55 1   
    54   23   56 1   
    55   24   29 1   
    56   24   57 1   
    57   24   58 1   
    58   25   32 1   
    59   25   59 1   
    60   25   60 1   
    61   26   63 1   
    62   27   31 1   
    63   27   61 1   
    64   31   62 1   
    65   35   63 1   
    66   36   63 1   
@<TRIPOS>SUBSTRUCTURE
     1 3BX         1 TEMP              0 ****  ****    0 ROOT
