@<TRIPOS>MOLECULE
3BX
   64    67     1     0     0
SMALL
bcc


@<TRIPOS>ATOM
      1 C1          0.0870   -0.0970    1.3680 ca        1 3BX     -0.123500
      2 C2          1.4780   -0.1340    1.3500 ca        1 3BX     -0.096500
      3 C3          2.1830   -0.7010    2.4250 ca        1 3BX     -0.015000
      4 C9         -4.1860   -0.5680    1.2590 c3        1 3BX      0.129300
      5 C10        -4.9120   -1.0550   -0.0000 c3        1 3BX      0.126400
      6 C12        -3.3630   -2.8160   -0.2680 c3        1 3BX      0.126400
      7 C13        -2.6030   -2.3740    0.9870 c3        1 3BX      0.129300
      8 C14         3.5880   -0.7380    2.4110 cg        1 3BX     -0.016000
      9 C15         4.7880   -0.7690    2.3980 ch        1 3BX     -0.176000
     10 C16         6.1900   -0.8070    2.3810 ca        1 3BX      0.080000
     11 C19         8.9700   -0.8760    2.3490 ca        1 3BX      0.045100
     12 C20         8.2890   -0.3070    1.2660 ca        1 3BX     -0.133000
     13 C21         6.8990   -0.2740    1.2880 ca        1 3BX     -0.098000
     14 C24        12.5270   -1.5610    1.7020 c3        1 3BX     -0.103000
     15 C30        12.8650   -0.0890    1.5380 c         1 3BX      0.556100
     16 C4          1.4700   -1.2310    3.5140 ca        1 3BX     -0.096500
     17 C17         6.8970   -1.3790    3.4540 ca        1 3BX     -0.098000
     18 C5          0.0790   -1.1950    3.5220 ca        1 3BX     -0.123500
     19 C18         8.2880   -1.4230    3.4410 ca        1 3BX     -0.133000
     20 C6         -0.6220   -0.6280    2.4520 ca        1 3BX     -0.055300
     21 C25        12.9460   -2.1230    3.0590 c3        1 3BX     -0.127400
     22 C29        13.2690   -2.3430    0.6080 c3        1 3BX     -0.127400
     23 C26        14.4600   -2.1260    3.2090 c3        1 3BX      0.112900
     24 C28        14.7660   -2.3780    0.8710 c3        1 3BX      0.112900
     25 C23        11.0100   -1.7230    1.4940 c3        1 3BX      0.127400
     26 N8         -2.7790   -0.9550    1.2730 n3        1 3BX     -0.726600
     27 N32        12.5670    0.8150    2.7430 ny        1 3BX     -0.465300
     28 O31        13.2940    0.5050    0.5650 o         1 3BX     -0.411100
     29 O27        15.0730   -2.8710    2.1690 os        1 3BX     -0.377600
     30 O11        -4.7370   -2.4520   -0.2020 os        1 3BX     -0.411600
     31 O33        13.0220    2.0820    2.6320 oh        1 3BX     -0.361300
     32 O22        10.3660   -0.8240    2.4050 os        1 3BX     -0.423900
     33 H1         -0.4610    0.3480    0.5220 ha        1 3BX      0.150000
     34 H2          2.0280    0.2830    0.4930 ha        1 3BX      0.139000
     35 H3         -2.4900   -1.1460    3.3930 h1        1 3BX      0.047700
     36 H4         -2.3920    0.5350    2.6970 h1        1 3BX      0.047700
     37 H5         -4.2350    0.5560    1.2870 h1        1 3BX      0.043200
     38 H6         -4.7340   -0.9640    2.1630 h1        1 3BX      0.043200
     39 H7         -6.0190   -0.9260    0.1200 h1        1 3BX      0.056200
     40 H8         -4.5530   -0.4960   -0.9050 h1        1 3BX      0.056200
     41 H9         -2.9000   -2.3740   -1.1900 h1        1 3BX      0.056200
     42 H10        -3.3730   -3.9350   -0.3390 h1        1 3BX      0.056200
     43 H11        -2.9410   -3.0160    1.8520 h1        1 3BX      0.043200
     44 H12        -1.5030   -2.5540    0.8290 h1        1 3BX      0.043200
     45 H13         8.8420    0.1050    0.4110 ha        1 3BX      0.142500
     46 H14         6.3460    0.1720    0.4460 ha        1 3BX      0.160500
     47 H15         2.0140   -1.6780    4.3600 ha        1 3BX      0.139000
     48 H16         6.3430   -1.7990    4.3090 ha        1 3BX      0.160500
     49 H17        -0.4700   -1.6150    4.3790 ha        1 3BX      0.150000
     50 H18         8.8440   -1.8710    4.2770 ha        1 3BX      0.142500
     51 H19        12.4510   -1.5870    3.9070 hc        1 3BX      0.088950
     52 H20        12.5850   -3.1890    3.1060 hc        1 3BX      0.088950
     53 H21        12.8630   -3.3900    0.6010 hc        1 3BX      0.088950
     54 H22        13.0760   -1.8850   -0.3970 hc        1 3BX      0.088950
     55 H23        14.8600   -1.0750    3.2160 h1        1 3BX      0.068200
     56 H24        14.7710   -2.6580    4.1490 h1        1 3BX      0.068200
     57 H25        15.2730   -3.1060    0.1790 h1        1 3BX      0.068200
     58 H26        15.2110   -1.3560    0.7370 h1        1 3BX      0.068200
     59 H27        10.7220   -1.4640    0.4410 h1        1 3BX      0.082700
     60 H28        10.7090   -2.7790    1.7250 h1        1 3BX      0.082700
     61 H30        11.5330    0.8290    2.9040 hn        1 3BX      0.496300
     62 H31        13.0400    2.3400    1.6780 ho        1 3BX      0.483000
     63 C7         -2.1200   -0.5460    2.5070 c3        1 3BX      0.207100
     64 H322       13.0290    0.4220    3.5870 hn        1 3BX      0.496300
@<TRIPOS>BOND
     1    1    2 ar  
     2    1   20 ar  
     3    1   33 1   
     4    2    3 ar  
     5    2   34 1   
     6    3    8 1   
     7    3   16 ar  
     8    4    5 1   
     9    4   26 1   
    10    4   37 1   
    11    4   38 1   
    12    5   30 1   
    13    5   39 1   
    14    5   40 1   
    15    6    7 1   
    16    6   30 1   
    17    6   41 1   
    18    6   42 1   
    19    7   26 1   
    20    7   43 1   
    21    7   44 1   
    22    8    9 3   
    23    9   10 1   
    24   10   13 ar  
    25   10   17 ar  
    26   11   12 ar  
    27   11   19 ar  
    28   11   32 1   
    29   12   13 ar  
    30   12   45 1   
    31   13   46 1   
    32   14   15 1   
    33   14   21 1   
    34   14   22 1   
    35   14   25 1   
    36   15   27 1   
    37   15   28 2   
    38   16   18 ar  
    39   16   47 1   
    40   17   19 ar  
    41   17   48 1   
    42   18   20 ar  
    43   18   49 1   
    44   19   50 1   
    45   20   63 1   
    46   21   23 1   
    47   21   51 1   
    48   21   52 1   
    49   22   24 1   
    50   22   53 1   
    51   22   54 1   
    52   23   29 1   
    53   23   55 1   
    54   23   56 1   
    55   24   29 1   
    56   24   57 1   
    57   24   58 1   
    58   25   32 1   
    59   25   59 1   
    60   25   60 1   
    61   26   63 1   
    62   27   31 1   
    63   27   61 1   
    64   27   64 1   
    65   31   62 1   
    66   35   63 1   
    67   36   63 1   
@<TRIPOS>SUBSTRUCTURE
     1 3BX         1 TEMP              0 ****  ****    0 ROOT
