@<TRIPOS>MOLECULE
3BX
   64    67     1     0     0
SMALL
bcc


@<TRIPOS>ATOM
      1 C1         -0.3470    0.4890   -0.0140 ca        1 3BX     -0.123000
      2 C2          1.0330    0.6680   -0.0370 ca        1 3BX     -0.097000
      3 C3          1.7570    0.7340    1.1660 ca        1 3BX     -0.014000
      4 C9         -4.4910   -0.6460    0.1630 c3        1 3BX      0.129300
      5 C10        -5.0690   -1.7310   -0.7530 c3        1 3BX      0.126400
      6 C12        -3.2610   -3.1690   -0.2700 c3        1 3BX      0.126400
      7 C13        -2.6420   -2.1200    0.6610 c3        1 3BX      0.129300
      8 C14         3.1500    0.9160    1.1460 cg        1 3BX     -0.020000
      9 C15         4.3410    1.0710    1.1260 ch        1 3BX     -0.173000
     10 C16         5.7320    1.2500    1.1000 ca        1 3BX      0.061000
     11 C19         8.4920    1.6100    1.0470 ca        1 3BX      0.075100
     12 C20         7.7980    1.4900   -0.1590 ca        1 3BX     -0.162000
     13 C21         6.4160    1.3120   -0.1260 ca        1 3BX     -0.078000
     14 C24        11.9430    2.6810    0.3810 c3        1 3BX     -0.104000
     15 C30        11.8460    3.6530    1.5450 c         1 3BX      0.553100
     16 C4          1.0740    0.6170    2.3890 ca        1 3BX     -0.097000
     17 C17         6.4540    1.3650    2.3030 ca        1 3BX     -0.078000
     18 C5         -0.3050    0.4340    2.4030 ca        1 3BX     -0.123000
     19 C18         7.8320    1.5500    2.2830 ca        1 3BX     -0.162000
     20 C6         -1.0250    0.3700    1.2050 ca        1 3BX     -0.056300
     21 C25        12.7660    1.4380    0.7130 c3        1 3BX     -0.127400
     22 C29        12.6200    3.4090   -0.7890 c3        1 3BX     -0.127400
     23 C26        14.2240    1.7940    0.9560 c3        1 3BX      0.112900
     24 C28        14.0950    3.6510   -0.5120 c3        1 3BX      0.112900
     25 C23        10.5120    2.2880   -0.0330 c3        1 3BX      0.126400
     26 N8         -3.0450   -0.7620    0.3160 n3        1 3BX     -0.726600
     27 N32        11.5460    3.0330    2.9170 n4        1 3BX     -0.467300
     28 O31        11.9210    4.8690    1.5520 o         1 3BX     -0.408100
     29 O27        14.7810    2.4540   -0.1690 os        1 3BX     -0.377600
     30 O11        -4.6760   -3.0340   -0.3410 os        1 3BX     -0.411600
     31 O33        11.5700    3.8920    3.9570 oh        1 3BX     -0.362300
     32 O22         9.8800    1.7440    1.1270 os        1 3BX     -0.409900
     33 H1         -0.9090    0.4370   -0.9600 ha        1 3BX      0.150000
     34 H2          1.5600    0.7580   -0.9980 ha        1 3BX      0.139000
     35 H3         -2.8420    0.0160    2.3070 h1        1 3BX      0.047700
     36 H4         -2.9600    1.2320    0.9560 h1        1 3BX      0.047700
     37 H5         -4.7110    0.3600   -0.2920 h1        1 3BX      0.043450
     38 H6         -5.0190   -0.7010    1.1590 h1        1 3BX      0.043450
     39 H7         -6.1880   -1.7400   -0.6800 h1        1 3BX      0.056200
     40 H8         -4.7530   -1.5610   -1.8160 h1        1 3BX      0.056200
     41 H9         -2.8230   -3.0940   -1.3000 h1        1 3BX      0.056200
     42 H10        -3.0990   -4.1980    0.1460 h1        1 3BX      0.056200
     43 H11        -2.9240   -2.3790    1.7240 h1        1 3BX      0.043450
     44 H12        -1.5210   -2.1750    0.5750 h1        1 3BX      0.043450
     45 H13         8.3200    1.5250   -1.1250 ha        1 3BX      0.135500
     46 H14         5.8550    1.2150   -1.0690 ha        1 3BX      0.160000
     47 H15         1.6320    0.6670    3.3360 ha        1 3BX      0.139000
     48 H16         5.9220    1.3080    3.2660 ha        1 3BX      0.160000
     49 H17        -0.8300    0.3410    3.3670 ha        1 3BX      0.150000
     50 H18         8.3990    1.6250    3.2210 ha        1 3BX      0.135500
     51 H19        12.3350    0.8640    1.5710 hc        1 3BX      0.089700
     52 H20        12.7130    0.7530   -0.1810 hc        1 3BX      0.089700
     53 H21        12.5100    2.7650   -1.7020 hc        1 3BX      0.089700
     54 H22        12.1110    4.3880   -0.9870 hc        1 3BX      0.089700
     55 H23        14.3280    2.4380    1.8710 h1        1 3BX      0.068450
     56 H24        14.8520    0.8680    1.0700 h1        1 3BX      0.068450
     57 H25        14.6200    4.0060   -1.4420 h1        1 3BX      0.068450
     58 H26        14.2200    4.4100    0.3070 h1        1 3BX      0.068450
     59 H27         9.9460    3.1800   -0.4110 h1        1 3BX      0.085700
     60 H28        10.5640    1.4980   -0.8300 h1        1 3BX      0.085700
     61 H30        10.6070    2.5680    2.8740 hn        1 3BX      0.495800
     62 H31        11.3780    4.8070    3.6330 ho        1 3BX      0.484000
     63 C7         -2.5200    0.2310    1.2440 c3        1 3BX      0.207100
     64 H322       12.2630    2.3090    3.1270 hn        1 3BX      0.495800
@<TRIPOS>BOND
     1    1    2 ar  
     2    1   20 ar  
     3    1   33 1   
     4    2    3 ar  
     5    2   34 1   
     6    3    8 1   
     7    3   16 ar  
     8    4    5 1   
     9    4   26 1   
    10    4   37 1   
    11    4   38 1   
    12    5   30 1   
    13    5   39 1   
    14    5   40 1   
    15    6    7 1   
    16    6   30 1   
    17    6   41 1   
    18    6   42 1   
    19    7   26 1   
    20    7   43 1   
    21    7   44 1   
    22    8    9 3   
    23    9   10 1   
    24   10   13 ar  
    25   10   17 ar  
    26   11   12 ar  
    27   11   19 ar  
    28   11   32 1   
    29   12   13 ar  
    30   12   45 1   
    31   13   46 1   
    32   14   15 1   
    33   14   21 1   
    34   14   22 1   
    35   14   25 1   
    36   15   27 1   
    37   15   28 2   
    38   16   18 ar  
    39   16   47 1   
    40   17   19 ar  
    41   17   48 1   
    42   18   20 ar  
    43   18   49 1   
    44   19   50 1   
    45   20   63 1   
    46   21   23 1   
    47   21   51 1   
    48   21   52 1   
    49   22   24 1   
    50   22   53 1   
    51   22   54 1   
    52   23   29 1   
    53   23   55 1   
    54   23   56 1   
    55   24   29 1   
    56   24   57 1   
    57   24   58 1   
    58   25   32 1   
    59   25   59 1   
    60   25   60 1   
    61   26   63 1   
    62   27   31 1   
    63   27   61 1   
    64   27   64 1   
    65   31   62 1   
    66   35   63 1   
    67   36   63 1   
@<TRIPOS>SUBSTRUCTURE
     1 3BX         1 TEMP              0 ****  ****    0 ROOT
