@<TRIPOS>MOLECULE
3BZ
   14    12     1     0     0
SMALL
bcc


@<TRIPOS>ATOM
      1 CL3        -3.3440   -0.0810    0.4700 cl        1 3BZ     -0.084000
      2 C3         -1.6010   -0.0290    0.4700 c2        1 3BZ     -0.081000
      3 C4         -0.9100    0.0540    1.6690 c2        1 3BZ     -0.155000
      4 C5          0.4750    0.1080    1.6680 c1        1 3BZ     -0.157000
      5 C6          1.1690    0.0790    0.4680 c1        1 3BZ     -0.107000
      6 C2         -0.9070   -0.0580   -0.7290 c1        1 3BZ     -0.098000
      7 C1          0.4780   -0.0040   -0.7300 c1        1 3BZ     -0.099000
      8 C           1.2370   -0.0780   -2.0370 c2        1 3BZ      0.357000
      9 O2          1.6640   -1.1860   -2.4550 o         1 3BZ     -0.561500
     10 O1          1.4280    0.9660   -2.7140 o         1 3BZ     -0.561500
     11 H4         -1.3990    0.0740    2.5140 ha        1 3BZ      0.117000
     12 H5          0.9620    0.1520    2.5130 ha        1 3BZ      0.109000
     13 H6          2.1440    0.1170    0.4680 ha        1 3BZ      0.154000
     14 H2         -1.3940   -0.1160   -1.5740 ha        1 3BZ      0.167000
@<TRIPOS>BOND
     1    1    2 1   
     2    2    3 1   
     3    2    6 1   
     4    3    4 1   
     5    3   11 1   
     6    4   12 1   
     7    5    7 1   
     8    5   13 1   
     9    6   14 1   
    10    7    8 1   
    11    8    9 1   
    12    8   10 1   
@<TRIPOS>SUBSTRUCTURE
     1 3BZ         1 TEMP              0 ****  ****    0 ROOT
