@<TRIPOS>MOLECULE
3BZ
   14    14     1     0     0
SMALL
bcc


@<TRIPOS>ATOM
      1 CL3        -2.8680   -0.8960    0.0020 cl        1 3BZ     -0.162400
      2 C3         -1.4350    0.0460    0.0010 ca        1 3BZ     -0.002600
      3 C4         -1.5410    1.4400    0.0000 ca        1 3BZ     -0.155000
      4 C5         -0.3760    2.2050   -0.0010 ca        1 3BZ     -0.157000
      5 C6          0.8730    1.5850   -0.0000 ca        1 3BZ     -0.107000
      6 C2         -0.1900   -0.5840    0.0020 ca        1 3BZ     -0.098000
      7 C1          0.9740    0.1910    0.0010 ca        1 3BZ     -0.119600
      8 C           2.3420   -0.4810    0.0010 c         1 3BZ      0.908200
      9 O2          3.3620    0.2650    0.0000 o         1 3BZ     -0.826800
     10 O1          2.3810   -1.7430    0.0020 o         1 3BZ     -0.826800
     11 H4         -2.5260    1.9250    0.0000 ha        1 3BZ      0.117000
     12 H5         -0.4480    3.3010   -0.0010 ha        1 3BZ      0.109000
     13 H6          1.8050    2.1740   -0.0010 ha        1 3BZ      0.154000
     14 H2         -0.0900   -1.6820    0.0020 ha        1 3BZ      0.167000
@<TRIPOS>BOND
     1    1    2 1   
     2    2    3 ar  
     3    2    6 ar  
     4    3    4 ar  
     5    3   11 1   
     6    4    5 ar  
     7    4   12 1   
     8    5    7 ar  
     9    5   13 1   
    10    6    7 ar  
    11    6   14 1   
    12    7    8 1   
    13    8    9 1   
    14    8   10 1   
@<TRIPOS>SUBSTRUCTURE
     1 3BZ         1 TEMP              0 ****  ****    0 ROOT
