@<TRIPOS>MOLECULE
3C0
   47    50     1     0     0
SMALL
bcc


@<TRIPOS>ATOM
      1 C10         0.0330    0.0170   -0.0090 c3        1 3C0      0.130400
      2 C13         2.8850    2.2800   -2.6380 c3        1 3C0      0.144100
      3 C15         1.2210    2.1410   -4.5870 c3        1 3C0      0.145500
      4 C17         2.4090    0.0240   -4.4690 cx        1 3C0      0.061100
      5 C22         3.3370    1.1770   -4.9110 c3        1 3C0      0.145500
      6 N19         2.4210    2.2350   -5.5460 n4        1 3C0     -0.618800
      7 C14         1.5850    2.8150   -3.2600 c3        1 3C0     -0.116400
      8 C16         1.0570    0.6410   -4.2540 cx        1 3C0      0.061100
      9 O18         1.3040   -0.2700   -5.3340 os        1 3C0     -0.368600
     10 C23         3.9390    1.7320   -3.6130 c3        1 3C0     -0.116400
     11 O12         2.5840    1.1740   -1.7700 os        1 3C0     -0.457900
     12 C02         1.9580    1.4500   -0.5730 c         1 3C0      0.653100
     13 O01         1.7700    2.6320   -0.2940 o         1 3C0     -0.522000
     14 C03         1.5540    0.1920    0.1520 c3        1 3C0     -0.082400
     15 O11        -0.2870   -0.3150   -1.3470 oh        1 3C0     -0.620800
     16 C04         1.9350    0.2390    1.5940 ca        1 3C0     -0.120300
     17 C05         2.6680   -0.8200    2.1450 ca        1 3C0     -0.111000
     18 C06         3.0060   -0.8060    3.4970 ca        1 3C0     -0.124500
     19 C07         2.6180    0.2620    4.3060 ca        1 3C0     -0.105000
     20 C08         1.8920    1.3200    3.7590 ca        1 3C0     -0.124500
     21 C09         1.5510    1.3110    2.4070 ca        1 3C0     -0.111000
     22 H1         -0.4980    0.9870    0.1940 h1        1 3C0      0.078200
     23 H2         -0.3290   -0.7670    0.7050 h1        1 3C0      0.078200
     24 H3          3.3440    3.1050   -2.0180 h1        1 3C0      0.100700
     25 H4          0.3200    2.5950   -5.0740 hx        1 3C0      0.124700
     26 H5          2.8690   -0.8240   -3.9430 h1        1 3C0      0.172200
     27 H6          1.3260    2.6590   -7.3290 hx        1 3C0      0.103200
     28 H7          2.9770    1.8950   -7.5800 hx        1 3C0      0.103200
     29 H8          1.5700    0.8760   -7.0130 hx        1 3C0      0.103200
     30 H9          3.3570    3.9390   -4.5740 hx        1 3C0      0.103200
     31 H10         3.9290    3.5590   -6.2640 hx        1 3C0      0.103200
     32 H11         2.2750    4.3130   -5.9930 hx        1 3C0      0.103200
     33 H12         4.1180    0.8680   -5.6530 hx        1 3C0      0.124700
     34 H13         1.6520    3.9270   -3.3870 hc        1 3C0      0.100200
     35 H14         0.7380    2.6290   -2.5410 hc        1 3C0      0.100200
     36 H15         0.2840    0.3590   -3.5190 h1        1 3C0      0.172200
     37 H16         4.6950    2.5280   -3.8370 hc        1 3C0      0.100200
     38 H17         4.4890    0.8890   -3.1090 hc        1 3C0      0.100200
     39 H18         2.0670   -0.6800   -0.3490 hc        1 3C0      0.086700
     40 H19        -0.1820   -1.2690   -1.4420 ho        1 3C0      0.412000
     41 H20         2.9790   -1.6660    1.5140 ha        1 3C0      0.140000
     42 H21         3.5810   -1.6420    3.9260 ha        1 3C0      0.145000
     43 H22         2.8850    0.2700    5.3740 ha        1 3C0      0.146000
     44 H23         1.5870    2.1670    4.3940 ha        1 3C0      0.145000
     45 H24         0.9930    2.1550    1.9710 ha        1 3C0      0.140000
     46 C20         2.0490    1.8890   -6.9470 c3        1 3C0      0.087600
     47 C21         3.0320    3.5890   -5.5880 c3        1 3C0      0.087600
@<TRIPOS>BOND
     1    1   14 1   
     2    1   15 1   
     3    1   22 1   
     4    1   23 1   
     5    2    7 1   
     6    2   10 1   
     7    2   11 1   
     8    2   24 1   
     9    3    6 1   
    10    3    7 1   
    11    3    8 1   
    12    3   25 1   
    13    4    5 1   
    14    4    8 1   
    15    4    9 1   
    16    4   26 1   
    17    5    6 1   
    18    5   10 1   
    19    5   33 1   
    20    6   46 1   
    21    6   47 1   
    22    7   34 1   
    23    7   35 1   
    24    8    9 1   
    25    8   36 1   
    26   10   37 1   
    27   10   38 1   
    28   11   12 1   
    29   12   13 2   
    30   12   14 1   
    31   14   16 1   
    32   14   39 1   
    33   15   40 1   
    34   16   17 ar  
    35   16   21 ar  
    36   17   18 ar  
    37   17   41 1   
    38   18   19 ar  
    39   18   42 1   
    40   19   20 ar  
    41   19   43 1   
    42   20   21 ar  
    43   20   44 1   
    44   21   45 1   
    45   27   46 1   
    46   28   46 1   
    47   29   46 1   
    48   30   47 1   
    49   31   47 1   
    50   32   47 1   
@<TRIPOS>SUBSTRUCTURE
     1 3C0         1 TEMP              0 ****  ****    0 ROOT
