@<TRIPOS>MOLECULE
3C1
   25    26     1     0     0
SMALL
bcc


@<TRIPOS>ATOM
      1 C1         -0.1250   -0.1860   -0.0820 ca        1 3C1      0.537200
      2 N1          1.1990   -0.2350   -0.2370 nb        1 3C1     -0.707000
      3 O1         -2.8820    1.3450    0.6770 o         1 3C1     -0.652300
      4 C2          1.9480   -0.0810    0.8830 ca        1 3C1      0.481200
      5 N2         -2.8170   -0.1430    2.6830 n3        1 3C1     -0.902100
      6 O2         -2.9870   -1.0050    0.3630 o         1 3C1     -0.652300
      7 C3          1.4180    0.1110    2.1560 ca        1 3C1     -0.339300
      8 N3         -0.5820    0.2480    3.5730 nh        1 3C1     -0.704000
      9 C4         -0.7980    0.0110    1.1490 ca        1 3C1     -0.586800
     10 C5         -2.0240    0.5180    3.6760 c3        1 3C1      0.502000
     11 C6          0.0020    0.1450    2.3210 ca        1 3C1      0.329600
     12 C7          0.2010    0.5470    4.7500 c3        1 3C1      0.213800
     13 C8          0.6860    1.9840    4.8760 c3        1 3C1     -0.130100
     14 S1         -2.4720    0.0740    1.1030 sy        1 3C1      1.538200
     15 H1         -0.7220   -0.3220   -1.0080 h4        1 3C1      0.039100
     16 H2          3.0430   -0.1140    0.7290 h4        1 3C1      0.025100
     17 H3         -3.3850   -0.8840    3.0140 hn        1 3C1      0.458800
     18 H4          2.0970    0.2360    3.0100 ha        1 3C1      0.149000
     19 H5         -2.3570    0.1970    4.7090 h2        1 3C1      0.065700
     20 H6         -2.1850    1.6400    3.5780 h2        1 3C1      0.065700
     21 H7          1.0900   -0.1480    4.7670 h1        1 3C1      0.058200
     22 H8         -0.4300    0.2970    5.6520 h1        1 3C1      0.058200
     23 H9          1.2680    2.0850    5.8230 hc        1 3C1      0.050033
     24 H10         1.3460    2.2620    4.0190 hc        1 3C1      0.050033
     25 H11        -0.1720    2.6970    4.9060 hc        1 3C1      0.050033
@<TRIPOS>BOND
     1    1    2 ar  
     2    1    9 ar  
     3    1   15 1   
     4    2    4 ar  
     5    3   14 2   
     6    4    7 ar  
     7    4   16 1   
     8    5   10 1   
     9    5   14 1   
    10    5   17 1   
    11    6   14 2   
    12    7   11 ar  
    13    7   18 1   
    14    8   10 1   
    15    8   11 1   
    16    8   12 1   
    17    9   11 ar  
    18    9   14 1   
    19   10   19 1   
    20   10   20 1   
    21   12   13 1   
    22   12   21 1   
    23   12   22 1   
    24   13   23 1   
    25   13   24 1   
    26   13   25 1   
@<TRIPOS>SUBSTRUCTURE
     1 3C1         1 TEMP              0 ****  ****    0 ROOT
