@<TRIPOS>MOLECULE
3C1
   25    26     1     0     0
SMALL
bcc


@<TRIPOS>ATOM
      1 C1         -0.1300   -0.2080   -0.0780 ca        1 3C1      0.537200
      2 N1          1.1940   -0.2570   -0.2340 nb        1 3C1     -0.707000
      3 O1         -2.8860    1.3290    0.6750 o         1 3C1     -0.652300
      4 C2          1.9440   -0.0940    0.8830 ca        1 3C1      0.481200
      5 N2         -2.8170   -0.1440    2.6920 n7        1 3C1     -0.902100
      6 O2         -2.9910   -1.0240    0.3790 o         1 3C1     -0.652300
      7 C3          1.4170    0.1070    2.1550 ca        1 3C1     -0.339300
      8 N3         -0.5800    0.2550    3.5740 nh        1 3C1     -0.704000
      9 C4         -0.8010   -0.0010    1.1530 ca        1 3C1     -0.586800
     10 C5         -2.0220    0.5250    3.6790 c3        1 3C1      0.502000
     11 C6          0.0020    0.1420    2.3220 ca        1 3C1      0.329600
     12 C7          0.2050    0.5630    4.7480 c3        1 3C1      0.213800
     13 C8          0.6890    2.0010    4.8620 c3        1 3C1     -0.130100
     14 S1         -2.4750    0.0610    1.1100 sy        1 3C1      1.538200
     15 H1         -0.7290   -0.3510   -1.0020 h4        1 3C1      0.039100
     16 H2          3.0390   -0.1280    0.7260 h4        1 3C1      0.025100
     17 H3         -3.3840   -0.8830    3.0300 hn        1 3C1      0.458800
     18 H4          2.0970    0.2390    3.0060 ha        1 3C1      0.149000
     19 H5         -2.1840    1.6470    3.5720 h2        1 3C1      0.065700
     20 H6         -2.3530    0.2120    4.7150 h2        1 3C1      0.065700
     21 H7          1.0940   -0.1320    4.7690 h1        1 3C1      0.058200
     22 H8         -0.4240    0.3200    5.6530 h1        1 3C1      0.058200
     23 H9          1.2730    2.1100    5.8070 hc        1 3C1      0.050033
     24 H10        -0.1690    2.7140    4.8890 hc        1 3C1      0.050033
     25 H11         1.3470    2.2730    4.0020 hc        1 3C1      0.050033
@<TRIPOS>BOND
     1    1    2 ar  
     2    1    9 ar  
     3    1   15 1   
     4    2    4 ar  
     5    3   14 2   
     6    4    7 ar  
     7    4   16 1   
     8    5   10 1   
     9    5   14 1   
    10    5   17 1   
    11    6   14 2   
    12    7   11 ar  
    13    7   18 1   
    14    8   10 1   
    15    8   11 1   
    16    8   12 1   
    17    9   11 ar  
    18    9   14 1   
    19   10   19 1   
    20   10   20 1   
    21   12   13 1   
    22   12   21 1   
    23   12   22 1   
    24   13   23 1   
    25   13   24 1   
    26   13   25 1   
@<TRIPOS>SUBSTRUCTURE
     1 3C1         1 TEMP              0 ****  ****    0 ROOT
