@<TRIPOS>MOLECULE
3C2
   25    26     1     0     0
SMALL
bcc


@<TRIPOS>ATOM
      1 CAH         0.0660    0.0390    0.0450 c3        1 3C2      0.498000
      2 NAJ         1.4950   -0.0460    0.0990 n7        1 3C2     -0.905100
      3 SAN         2.2710   -0.0360    1.5330 sy        1 3C2      1.455800
      4 OAB         2.2860    1.2520    2.0760 o         1 3C2     -0.637300
      5 OAC         3.5060   -0.6740    1.3620 o         1 3C2     -0.637300
      6 CAL         1.1730   -1.0050    2.4530 ca        1 3C2      0.061200
      7 NAI         1.6810   -1.3780    3.6570 nb        1 3C2     -0.565000
      8 CAE         0.9440   -2.1240    4.4750 ca        1 3C2      0.342200
      9 CAD        -0.3670   -2.5500    4.1510 ca        1 3C2     -0.155300
     10 CAF        -0.9110   -2.1760    2.9390 ca        1 3C2     -0.178000
     11 CAK        -0.1410   -1.3830    2.0340 ca        1 3C2      0.167300
     12 NAM        -0.6190   -1.0420    0.7720 nh        1 3C2     -0.694000
     13 CAG        -2.0070   -1.2400    0.4240 c3        1 3C2      0.208800
     14 CAA        -3.0070   -0.3030    1.0850 c3        1 3C2     -0.132100
     15 HAH1       -0.2810   -0.0030   -1.0300 h2        1 3C2      0.064200
     16 HAH2       -0.2510    1.0390    0.4870 h2        1 3C2      0.064200
     17 HAJ1        1.9300   -0.3600   -0.7350 hn        1 3C2      0.456800
     18 HAE1        1.4090   -2.3990    5.4380 h4        1 3C2      0.033100
     19 HAD1       -0.9380   -3.1630    4.8630 ha        1 3C2      0.146000
     20 HAF1       -1.9330   -2.4890    2.6820 ha        1 3C2      0.144000
     21 HAG1       -2.2790   -2.3080    0.6690 h1        1 3C2      0.058200
     22 HAG2       -2.0920   -1.1290   -0.6960 h1        1 3C2      0.058200
     23 HAA1       -4.0330   -0.5590    0.7270 hc        1 3C2      0.048700
     24 HAA2       -2.9790   -0.4050    2.1960 hc        1 3C2      0.048700
     25 HAA3       -2.7930    0.7610    0.8230 hc        1 3C2      0.048700
@<TRIPOS>BOND
     1    1    2 1   
     2    1   12 1   
     3    1   15 1   
     4    1   16 1   
     5    2    3 1   
     6    2   17 1   
     7    3    4 2   
     8    3    5 2   
     9    3    6 1   
    10    6    7 ar  
    11    6   11 ar  
    12    7    8 ar  
    13    8    9 ar  
    14    8   18 1   
    15    9   10 ar  
    16    9   19 1   
    17   10   11 ar  
    18   10   20 1   
    19   11   12 1   
    20   12   13 1   
    21   13   14 1   
    22   13   21 1   
    23   13   22 1   
    24   14   23 1   
    25   14   24 1   
    26   14   25 1   
@<TRIPOS>SUBSTRUCTURE
     1 3C2         1 TEMP              0 ****  ****    0 ROOT
