@<TRIPOS>MOLECULE
3C2
   25    26     1     0     0
SMALL
bcc


@<TRIPOS>ATOM
      1 CAH         0.0670    0.0400    0.0460 c3        1 3C2      0.498000
      2 NAJ         1.4960   -0.0430    0.1020 n3        1 3C2     -0.905100
      3 SAN         2.2700   -0.0330    1.5380 sy        1 3C2      1.455800
      4 OAB         2.2820    1.2550    2.0810 o         1 3C2     -0.637300
      5 OAC         3.5060   -0.6690    1.3680 o         1 3C2     -0.637300
      6 CAL         1.1720   -1.0040    2.4550 ca        1 3C2      0.061200
      7 NAI         1.6780   -1.3770    3.6600 nb        1 3C2     -0.565000
      8 CAE         0.9410   -2.1240    4.4770 ca        1 3C2      0.342200
      9 CAD        -0.3690   -2.5510    4.1500 ca        1 3C2     -0.155300
     10 CAF        -0.9110   -2.1770    2.9370 ca        1 3C2     -0.178000
     11 CAK        -0.1410   -1.3830    2.0340 ca        1 3C2      0.167300
     12 NAM        -0.6170   -1.0420    0.7710 nh        1 3C2     -0.694000
     13 CAG        -2.0050   -1.2420    0.4210 c3        1 3C2      0.208800
     14 CAA        -3.0060   -0.3060    1.0810 c3        1 3C2     -0.132100
     15 HAH1       -0.2510    1.0390    0.4880 h2        1 3C2      0.064200
     16 HAH2       -0.2780   -0.0020   -1.0300 h2        1 3C2      0.064200
     17 HAJ1        1.9330   -0.3560   -0.7310 hn        1 3C2      0.456800
     18 HAE1        1.4050   -2.3990    5.4400 h4        1 3C2      0.033100
     19 HAD1       -0.9400   -3.1650    4.8610 ha        1 3C2      0.146000
     20 HAF1       -1.9330   -2.4910    2.6790 ha        1 3C2      0.144000
     21 HAG1       -2.2760   -2.3090    0.6650 h1        1 3C2      0.058200
     22 HAG2       -2.0890   -1.1300   -0.6990 h1        1 3C2      0.058200
     23 HAA1       -2.9810   -0.4080    2.1930 hc        1 3C2      0.048700
     24 HAA2       -4.0320   -0.5630    0.7220 hc        1 3C2      0.048700
     25 HAA3       -2.7940    0.7590    0.8200 hc        1 3C2      0.048700
@<TRIPOS>BOND
     1    1    2 1   
     2    1   12 1   
     3    1   15 1   
     4    1   16 1   
     5    2    3 1   
     6    2   17 1   
     7    3    4 2   
     8    3    5 2   
     9    3    6 1   
    10    6    7 ar  
    11    6   11 ar  
    12    7    8 ar  
    13    8    9 ar  
    14    8   18 1   
    15    9   10 ar  
    16    9   19 1   
    17   10   11 ar  
    18   10   20 1   
    19   11   12 1   
    20   12   13 1   
    21   13   14 1   
    22   13   21 1   
    23   13   22 1   
    24   14   23 1   
    25   14   24 1   
    26   14   25 1   
@<TRIPOS>SUBSTRUCTURE
     1 3C2         1 TEMP              0 ****  ****    0 ROOT
