@<TRIPOS>MOLECULE
3C3
   37    39     1     0     0
SMALL
bcc


@<TRIPOS>ATOM
      1 N16        -0.0830    0.0450    0.7470 nz        1 3C3     -0.672000
      2 C8          1.3320   -0.0180    0.4740 cc        1 3C3     -0.152700
      3 N10         2.3230   -0.1810    1.5540 na        1 3C3      0.017300
      4 O14         3.5370   -0.1690    0.8840 os        1 3C3     -0.219400
      5 N12         3.4000    0.0100   -0.4880 na        1 3C3     -0.032700
      6 C4          1.9860   -0.0140   -0.7440 cd        1 3C3     -0.047800
      7 C1          1.4270    0.0520   -2.0790 cd        1 3C3      0.385000
      8 N3          0.3390   -0.6530   -2.5250 nc        1 3C3     -0.680000
      9 N7          1.9310    0.8590   -3.1360 na        1 3C3      0.066600
     10 C18         3.1000    1.7550   -3.0440 c3        1 3C3      0.034300
     11 C19         3.2000    2.7980   -4.1520 c3        1 3C3     -0.091400
     12 C20         4.4030    3.6720   -3.8890 c3        1 3C3     -0.106100
     13 N5          1.1870    0.6930   -4.2080 nd        1 3C3     -0.402800
     14 C2          0.2130   -0.2360   -3.8540 cc        1 3C3      0.500500
     15 C6         -0.8310   -0.6500   -4.7720 cc        1 3C3      0.000200
     16 N13        -1.5740    0.2990   -5.5430 na        1 3C3     -0.033700
     17 O15        -2.3500   -0.4480   -6.4210 os        1 3C3     -0.221400
     18 N11        -2.3450   -1.8010   -6.1250 na        1 3C3      0.026300
     19 C9         -1.3440   -1.9060   -5.0400 cd        1 3C3     -0.203700
     20 N17        -0.9570   -3.1850   -4.5040 nz        1 3C3     -0.660000
     21 H161       -0.6070    0.0980   -0.1370 hn        1 3C3      0.485467
     22 H162       -0.2990    0.8730    1.3240 hn        1 3C3      0.485467
     23 H10         2.3210    0.6400    2.1670 hn        1 3C3      0.247700
     24 H12         3.9120   -0.7460   -0.9430 hn        1 3C3      0.290700
     25 H181        4.0130    1.0920   -3.0640 h1        1 3C3      0.094700
     26 H182        3.0300    2.2680   -2.0430 h1        1 3C3      0.094700
     27 H191        3.3070    2.2990   -5.1510 hc        1 3C3      0.073700
     28 H192        2.2720    3.4280   -4.1820 hc        1 3C3      0.073700
     29 H201        4.3080    4.2070   -2.9140 hc        1 3C3      0.061700
     30 H202        4.4890    4.4370   -4.7020 hc        1 3C3      0.061700
     31 H203        5.3430    3.0700   -3.8760 hc        1 3C3      0.061700
     32 H13        -1.0120    0.9420   -6.1000 hn        1 3C3      0.308700
     33 H11        -3.2720   -2.0260   -5.7520 hn        1 3C3      0.232700
     34 H171       -0.6430   -3.7930   -5.2800 hn        1 3C3      0.479133
     35 H172       -0.1890   -3.0600   -3.8340 hn        1 3C3      0.479133
     36 H163       -0.3660   -0.8040    1.2640 hn        1 3C3      0.485467
     37 H173       -1.7560   -3.6340   -4.0340 hn        1 3C3      0.479133
@<TRIPOS>BOND
     1    1    2 1   
     2    1   21 1   
     3    1   22 1   
     4    1   36 1   
     5    2    3 1   
     6    2    6 2   
     7    3    4 1   
     8    3   23 1   
     9    4    5 1   
    10    5    6 1   
    11    5   24 1   
    12    6    7 1   
    13    7    8 2   
    14    7    9 1   
    15    8   14 1   
    16    9   10 1   
    17    9   13 1   
    18   10   11 1   
    19   10   25 1   
    20   10   26 1   
    21   11   12 1   
    22   11   27 1   
    23   11   28 1   
    24   12   29 1   
    25   12   30 1   
    26   12   31 1   
    27   13   14 2   
    28   14   15 1   
    29   15   16 1   
    30   15   19 2   
    31   16   17 1   
    32   16   32 1   
    33   17   18 1   
    34   18   19 1   
    35   18   33 1   
    36   19   20 1   
    37   20   34 1   
    38   20   35 1   
    39   20   37 1   
@<TRIPOS>SUBSTRUCTURE
     1 3C3         1 TEMP              0 ****  ****    0 ROOT
