@<TRIPOS>MOLECULE
3C3
   37    39     1     0     0
SMALL
bcc


@<TRIPOS>ATOM
      1 N16        -0.0660   -0.0090    0.7490 n4        1 3C3     -0.672000
      2 C8          1.3490   -0.0430    0.4710 cc        1 3C3     -0.152700
      3 N10         2.3470   -0.1970    1.5470 na        1 3C3      0.017300
      4 O14         3.5580   -0.1570    0.8720 os        1 3C3     -0.219400
      5 N12         3.4120    0.0310   -0.4980 na        1 3C3     -0.032700
      6 C4          1.9980   -0.0160   -0.7500 cd        1 3C3     -0.047800
      7 C1          1.4330    0.0500   -2.0820 cd        1 3C3      0.385000
      8 N3          0.3560   -0.6700   -2.5290 nc        1 3C3     -0.680000
      9 N7          1.9190    0.8750   -3.1330 na        1 3C3      0.066600
     10 C18         3.0720    1.7910   -3.0380 c3        1 3C3      0.034300
     11 C19         3.1500    2.8450   -4.1370 c3        1 3C3     -0.091400
     12 C20         4.3370    3.7390   -3.8720 c3        1 3C3     -0.106100
     13 N5          1.1740    0.7040   -4.2050 nd        1 3C3     -0.402800
     14 C2          0.2190   -0.2440   -3.8550 cc        1 3C3      0.500500
     15 C6         -0.8210   -0.6700   -4.7730 cc        1 3C3      0.000200
     16 N13        -1.5840    0.2720   -5.5330 na        1 3C3     -0.033700
     17 O15        -2.3500   -0.4810   -6.4140 os        1 3C3     -0.221400
     18 N11        -2.3190   -1.8370   -6.1300 na        1 3C3      0.026300
     19 C9         -1.3120   -1.9330   -5.0500 cd        1 3C3     -0.203700
     20 N17        -0.9000   -3.2090   -4.5260 n4        1 3C3     -0.660000
     21 H161       -0.5950    0.0430   -0.1320 hn        1 3C3      0.485467
     22 H162       -0.2950    0.8100    1.3340 hn        1 3C3      0.485467
     23 H10         2.3320    0.6190    2.1660 hn        1 3C3      0.247700
     24 H12         3.9360   -0.7120   -0.9610 hn        1 3C3      0.290700
     25 H181        3.9970    1.1450   -3.0670 h1        1 3C3      0.094700
     26 H182        2.9970    2.2950   -2.0320 h1        1 3C3      0.094700
     27 H191        3.2620    2.3570   -5.1410 hc        1 3C3      0.073700
     28 H192        2.2110    3.4580   -4.1590 hc        1 3C3      0.073700
     29 H201        4.2360    4.2640   -2.8920 hc        1 3C3      0.061700
     30 H202        4.4070    4.5110   -4.6780 hc        1 3C3      0.061700
     31 H203        5.2880    3.1530   -3.8670 hc        1 3C3      0.061700
     32 H13        -1.0360    0.9300   -6.0860 hn        1 3C3      0.308700
     33 H11        -3.2410   -2.0820   -5.7560 hn        1 3C3      0.232700
     34 H171       -0.5780   -3.8040   -5.3090 hn        1 3C3      0.479133
     35 H172       -0.1320   -3.0760   -3.8580 hn        1 3C3      0.479133
     36 H163       -0.3320   -0.8670    1.2600 hn        1 3C3      0.485467
     37 H173       -1.6890   -3.6760   -4.0580 hn        1 3C3      0.479133
@<TRIPOS>BOND
     1    1    2 1   
     2    1   21 1   
     3    1   22 1   
     4    1   36 1   
     5    2    3 1   
     6    2    6 2   
     7    3    4 1   
     8    3   23 1   
     9    4    5 1   
    10    5    6 1   
    11    5   24 1   
    12    6    7 1   
    13    7    8 2   
    14    7    9 1   
    15    8   14 1   
    16    9   10 1   
    17    9   13 1   
    18   10   11 1   
    19   10   25 1   
    20   10   26 1   
    21   11   12 1   
    22   11   27 1   
    23   11   28 1   
    24   12   29 1   
    25   12   30 1   
    26   12   31 1   
    27   13   14 2   
    28   14   15 1   
    29   15   16 1   
    30   15   19 2   
    31   16   17 1   
    32   16   32 1   
    33   17   18 1   
    34   18   19 1   
    35   18   33 1   
    36   19   20 1   
    37   20   34 1   
    38   20   35 1   
    39   20   37 1   
@<TRIPOS>SUBSTRUCTURE
     1 3C3         1 TEMP              0 ****  ****    0 ROOT
