@<TRIPOS>MOLECULE
3C3
   35    35     1     0     0
SMALL
bcc


@<TRIPOS>ATOM
      1 N16         0.7380    2.7440    1.8440 nh        1 3C3     -0.304000
      2 C8          0.3840    1.7720    2.8790 c2        1 3C3      0.085000
      3 N10        -0.0020    2.1970    4.1020 na        1 3C3     -0.080000
      4 O14        -0.9000    1.0550    4.6260 os        1 3C3     -0.144000
      5 N12        -0.9020    0.0170    3.4850 na        1 3C3     -0.040000
      6 C4         -0.1170    0.5730    2.5350 c2        1 3C3     -0.222000
      7 C1         -0.3750    0.2390    1.0170 c2        1 3C3      0.055000
      8 N3         -1.4060    0.6580    0.2930 n2        1 3C3     -0.203000
      9 N7          0.3680   -0.5860    0.2490 n2        1 3C3     -0.122000
     10 C18         1.6270   -1.1740    0.6190 c2        1 3C3     -0.003000
     11 C19         1.8810   -2.4120   -0.2140 c3        1 3C3     -0.166000
     12 C20         3.4490   -2.7540   -0.1790 c3        1 3C3     -0.215000
     13 N5         -0.2240   -0.6710   -0.9670 n2        1 3C3     -0.080000
     14 C2         -1.3120    0.0890   -0.9460 c1        1 3C3     -0.022000
     15 C6         -2.3480    0.1730   -2.0290 c1        1 3C3     -0.166000
     16 N13        -3.0640   -0.9150   -2.3620 n3        1 3C3     -0.038000
     17 O15        -3.4390   -0.6740   -3.8080 os        1 3C3     -0.166000
     18 N11        -2.8180    0.6630   -4.1330 n3        1 3C3     -0.085000
     19 C9         -2.2130    1.0270   -2.9880 c2        1 3C3      0.047000
     20 N17        -1.0710    1.8930   -3.0230 n3        1 3C3     -0.300000
     21 H161        0.7780    3.6710    2.0570 hn        1 3C3      0.228000
     22 H162        0.9530    2.4550    0.9870 hn        1 3C3      0.228000
     23 H10         0.4400    2.8370    4.6280 hn        1 3C3      0.162000
     24 H12        -1.1000   -0.8730    3.5660 hn        1 3C3      0.137000
     25 H181        1.6070   -1.4110    1.5340 ha        1 3C3      0.108500
     26 H182        2.3400   -0.5330    0.4670 ha        1 3C3      0.108500
     27 H191        1.5950   -2.2440   -1.1590 hc        1 3C3      0.102500
     28 H192        1.3730   -3.1650    0.1530 hc        1 3C3      0.102500
     29 H201        3.6090   -3.5990   -0.6450 hc        1 3C3      0.078667
     30 H202        3.7440   -2.8330    0.7500 hc        1 3C3      0.078667
     31 H203        3.9380   -2.0550   -0.6100 hc        1 3C3      0.078667
     32 H13        -3.0420   -1.7180   -1.9440 hn        1 3C3      0.160000
     33 H11        -3.0620    1.2070   -4.7900 hn        1 3C3      0.168000
     34 H171       -0.5390    1.8790   -3.7050 hn        1 3C3      0.213500
     35 H172       -0.8890    2.4700   -2.2910 hn        1 3C3      0.213500
@<TRIPOS>BOND
     1    1    2 1   
     2    1   21 1   
     3    1   22 1   
     4    2    3 1   
     5    2    6 1   
     6    3    4 1   
     7    3   23 1   
     8    4    5 1   
     9    5    6 1   
    10    5   24 1   
    11    6    7 1   
    12    7    8 1   
    13    7    9 1   
    14    8   14 1   
    15    9   13 1   
    16   10   11 1   
    17   10   25 1   
    18   10   26 1   
    19   11   12 1   
    20   11   27 1   
    21   11   28 1   
    22   12   29 1   
    23   12   30 1   
    24   12   31 1   
    25   13   14 1   
    26   15   16 1   
    27   15   19 1   
    28   16   17 1   
    29   16   32 1   
    30   17   18 1   
    31   18   19 1   
    32   18   33 1   
    33   19   20 1   
    34   20   34 1   
    35   20   35 1   
@<TRIPOS>SUBSTRUCTURE
     1 3C3         1 TEMP              0 ****  ****    0 ROOT
