@<TRIPOS>MOLECULE
3C3
   37    39     1     0     0
SMALL
bcc


@<TRIPOS>ATOM
      1 N16        -0.1310    0.0450    0.7540 n4        1 3C3     -0.672000
      2 C8          1.2910    0.0410    0.5080 cc        1 3C3     -0.149700
      3 N10         2.2680   -0.0650    1.6080 na        1 3C3      0.016300
      4 O14         3.4930   -0.0090    0.9600 os        1 3C3     -0.219400
      5 N12         3.3740    0.1390   -0.4180 na        1 3C3     -0.031700
      6 C4          1.9670    0.0550   -0.6980 cd        1 3C3     -0.049800
      7 C1          1.4230    0.0790   -2.0400 cd        1 3C3      0.388000
      8 N3          0.3250   -0.6270   -2.4600 nc        1 3C3     -0.678000
      9 N7          1.9330    0.8470   -3.1220 na        1 3C3      0.064600
     10 C18         3.1080    1.7350   -3.0610 c3        1 3C3      0.034300
     11 C19         3.2340    2.7210   -4.2180 c3        1 3C3     -0.090400
     12 C20         4.4440    3.5920   -3.9860 c3        1 3C3     -0.106100
     13 N5          1.1810    0.6560   -4.1870 nd        1 3C3     -0.407800
     14 C2          0.1990   -0.2470   -3.8000 cc        1 3C3      0.503500
     15 C6         -0.8770   -0.6580   -4.6840 cc        1 3C3     -0.009800
     16 N13        -1.7490    0.2980   -5.2820 na        1 3C3     -0.017700
     17 O15        -2.6820   -0.4290   -6.0080 os        1 3C3     -0.213400
     18 N11        -2.4970   -1.7970   -5.9150 na        1 3C3      0.020300
     19 C9         -1.3200   -1.9230   -5.0360 cd        1 3C3     -0.200700
     20 N17        -0.9100   -3.2050   -4.5210 n4        1 3C3     -0.660000
     21 H161       -0.3870    0.8450    1.3540 hn        1 3C3      0.485800
     22 H162       -0.6420    0.1100   -0.1360 hn        1 3C3      0.485800
     23 H10         2.2200    0.7630    2.2100 hn        1 3C3      0.248700
     24 H12         3.9200   -0.6080   -0.8480 hn        1 3C3      0.288700
     25 H181        4.0160    1.0640   -3.0350 h1        1 3C3      0.094700
     26 H182        3.0320    2.3000   -2.0880 h1        1 3C3      0.094700
     27 H191        2.3140    3.3590   -4.2890 hc        1 3C3      0.073200
     28 H192        3.3440    2.1710   -5.1900 hc        1 3C3      0.073200
     29 H201        4.3460    4.1760   -3.0390 hc        1 3C3      0.061367
     30 H202        5.3770    2.9800   -3.9330 hc        1 3C3      0.061367
     31 H203        4.5470    4.3150   -4.8330 hc        1 3C3      0.061367
     32 H13        -1.2990    0.9840   -5.8850 hn        1 3C3      0.292700
     33 H11        -2.2640   -2.1470   -6.8490 hn        1 3C3      0.233700
     34 H171       -1.7150   -3.6740   -4.0750 hn        1 3C3      0.479800
     35 H172       -0.5670   -3.7960   -5.2940 hn        1 3C3      0.479800
     36 H163       -0.3920   -0.8300    1.2380 hn        1 3C3      0.485800
     37 H173       -0.1620   -3.0730   -3.8310 hn        1 3C3      0.479800
@<TRIPOS>BOND
     1    1    2 1   
     2    1   21 1   
     3    1   22 1   
     4    1   36 1   
     5    2    3 1   
     6    2    6 2   
     7    3    4 1   
     8    3   23 1   
     9    4    5 1   
    10    5    6 1   
    11    5   24 1   
    12    6    7 1   
    13    7    8 2   
    14    7    9 1   
    15    8   14 1   
    16    9   10 1   
    17    9   13 1   
    18   10   11 1   
    19   10   25 1   
    20   10   26 1   
    21   11   12 1   
    22   11   27 1   
    23   11   28 1   
    24   12   29 1   
    25   12   30 1   
    26   12   31 1   
    27   13   14 2   
    28   14   15 1   
    29   15   16 1   
    30   15   19 2   
    31   16   17 1   
    32   16   32 1   
    33   17   18 1   
    34   18   19 1   
    35   18   33 1   
    36   19   20 1   
    37   20   34 1   
    38   20   35 1   
    39   20   37 1   
@<TRIPOS>SUBSTRUCTURE
     1 3C3         1 TEMP              0 ****  ****    0 ROOT
