@<TRIPOS>MOLECULE
3C3
   35    37     1     0     0
SMALL
bcc


@<TRIPOS>ATOM
      1 N16         1.5020   -2.7280    1.3470 nh        1 3C3     -0.795200
      2 C8          2.3460   -1.9090    0.6370 cc        1 3C3      0.140300
      3 N10         3.7860   -2.1780    0.4910 na        1 3C3     -0.038700
      4 O14         4.2560   -1.1510   -0.2990 os        1 3C3     -0.279400
      5 N12         3.2720   -0.2630   -0.7140 na        1 3C3      0.004300
      6 C4          2.0580   -0.7440   -0.0740 cd        1 3C3     -0.352800
      7 C1          0.7910   -0.0650   -0.1500 cd        1 3C3      0.522000
      8 N3         -0.4210   -0.6770   -0.0020 nc        1 3C3     -0.734000
      9 N7          0.5840    1.3180   -0.3850 na        1 3C3     -0.024400
     10 C18         1.5920    2.3670   -0.4540 c3        1 3C3      0.056300
     11 C19         2.2670    2.6720    0.8820 c3        1 3C3     -0.101400
     12 C20         3.2770    3.7760    0.6990 c3        1 3C3     -0.093100
     13 N5         -0.7310    1.5870   -0.3610 nd        1 3C3     -0.514800
     14 C2         -1.3480    0.3780   -0.1340 cc        1 3C3      0.616500
     15 C6         -2.7750    0.1960   -0.0470 cc        1 3C3     -0.299800
     16 N13        -3.6850    1.3270    0.0980 na        1 3C3      0.004300
     17 O15        -4.9570    0.7590    0.0140 os        1 3C3     -0.300400
     18 N11        -4.9420   -0.6180   -0.0660 na        1 3C3     -0.042700
     19 C9         -3.5100   -0.9810   -0.0600 cd        1 3C3      0.106300
     20 N17        -3.0810   -2.2930   -0.0070 nh        1 3C3     -0.791200
     21 H161        0.6170   -2.3290    1.5780 hn        1 3C3      0.432800
     22 H162        1.9190   -3.2780    2.0660 hn        1 3C3      0.432800
     23 H10         3.9150   -3.0550   -0.0140 hn        1 3C3      0.211700
     24 H12         3.1610   -0.3790   -1.7240 hn        1 3C3      0.186700
     25 H181        1.0990    3.3070   -0.8380 h1        1 3C3      0.073700
     26 H182        2.3650    2.0530   -1.2100 h1        1 3C3      0.073700
     27 H191        2.7760    1.7520    1.2730 hc        1 3C3      0.061200
     28 H192        1.4970    2.9820    1.6370 hc        1 3C3      0.061200
     29 H201        3.7720    4.0020    1.6750 hc        1 3C3      0.039033
     30 H202        4.0650    3.4740   -0.0330 hc        1 3C3      0.039033
     31 H203        2.7870    4.7080    0.3270 hc        1 3C3      0.039033
     32 H13        -3.5910    1.9240   -0.7260 hn        1 3C3      0.209700
     33 H11        -5.3750   -0.9650    0.7910 hn        1 3C3      0.217700
     34 H171       -2.1270   -2.4240   -0.2700 hn        1 3C3      0.419300
     35 H172       -3.7050   -2.9580   -0.4100 hn        1 3C3      0.419300
@<TRIPOS>BOND
     1    1    2 1   
     2    1   21 1   
     3    1   22 1   
     4    2    3 1   
     5    2    6 2   
     6    3    4 1   
     7    3   23 1   
     8    4    5 1   
     9    5    6 1   
    10    5   24 1   
    11    6    7 1   
    12    7    8 2   
    13    7    9 1   
    14    8   14 1   
    15    9   10 1   
    16    9   13 1   
    17   10   11 1   
    18   10   25 1   
    19   10   26 1   
    20   11   12 1   
    21   11   27 1   
    22   11   28 1   
    23   12   29 1   
    24   12   30 1   
    25   12   31 1   
    26   13   14 2   
    27   14   15 1   
    28   15   16 1   
    29   15   19 2   
    30   16   17 1   
    31   16   32 1   
    32   17   18 1   
    33   18   19 1   
    34   18   33 1   
    35   19   20 1   
    36   20   34 1   
    37   20   35 1   
@<TRIPOS>SUBSTRUCTURE
     1 3C3         1 TEMP              0 ****  ****    0 ROOT
