@<TRIPOS>MOLECULE
3C4
   18    18     1     0     0
SMALL
bcc


@<TRIPOS>ATOM
      1 O2          3.4120    1.3810    0.4790 o         1 3C4     -0.838300
      2 C           3.2130    0.1740    0.1550 c         1 3C4      0.918600
      3 O1          3.8330   -0.8080    0.6440 o         1 3C4     -0.838300
      4 CG          2.1720   -0.1230   -0.9530 c3        1 3C4     -0.175100
      5 CA          0.7860    0.2490   -0.5850 ca        1 3C4     -0.035300
      6 CD2         0.5210    1.4910    0.0200 ca        1 3C4     -0.089000
      7 CE2        -0.7760    1.8670    0.3370 ca        1 3C4     -0.159000
      8 CZ         -1.8450    0.9980    0.0540 ca        1 3C4      0.093100
      9 OH         -3.1050    1.4530    0.3860 oh        1 3C4     -0.511100
     10 CE1        -1.5880   -0.2460   -0.5370 ca        1 3C4     -0.066600
     11 CD1        -0.2770   -0.6180   -0.8510 ca        1 3C4     -0.116000
     12 HG1         2.4750    0.4700   -1.8550 hc        1 3C4      0.039700
     13 HG2         2.2310   -1.2110   -1.2120 hc        1 3C4      0.039700
     14 HD2         1.3850    2.1420    0.2630 ha        1 3C4      0.199000
     15 HE2        -0.9880    2.8340    0.8140 ha        1 3C4      0.137000
     16 HOH        -3.7330    0.7410    0.2000 ho        1 3C4      0.413000
     17 HD1        -0.0820   -1.6020   -1.3040 ha        1 3C4      0.138000
     18 CL         -2.8690   -1.3310   -0.8830 cl        1 3C4     -0.149400
@<TRIPOS>BOND
     1    1    2 1   
     2    2    3 1   
     3    2    4 1   
     4    4    5 1   
     5    4   12 1   
     6    4   13 1   
     7    5    6 ar  
     8    5   11 ar  
     9    6    7 ar  
    10    6   14 1   
    11    7    8 ar  
    12    7   15 1   
    13    8    9 1   
    14    8   10 ar  
    15    9   16 1   
    16   10   11 ar  
    17   10   18 1   
    18   11   17 1   
@<TRIPOS>SUBSTRUCTURE
     1 3C4         1 TEMP              0 ****  ****    0 ROOT
