@<TRIPOS>MOLECULE
3C4
   18    19     1     0     0
SMALL
bcc


@<TRIPOS>ATOM
      1 O2          0.0800   -1.1150   -1.1140 os        1 3C4     -0.145000
      2 C           1.0910   -0.5190   -0.4270 c2        1 3C4      0.286000
      3 O1          1.1410   -0.7100    0.7950 o         1 3C4     -0.410000
      4 CG          2.0080    0.2800   -1.3250 c3        1 3C4     -0.189000
      5 CA          1.3570    0.1630   -2.7090 c3        1 3C4      0.022000
      6 CD2         0.7260    1.4670   -3.1640 c2        1 3C4     -0.085000
      7 CE2        -0.2470    1.2990   -4.0490 c1        1 3C4     -0.372000
      8 CZ         -0.9830    0.2230   -4.3560 c2        1 3C4      0.071000
      9 OH         -1.7040    0.0460   -5.4990 oh        1 3C4     -0.236000
     10 CE1        -0.9650   -0.8870   -3.2990 c3        1 3C4      0.168000
     11 CD1         0.2110   -0.7760   -2.4940 c2        1 3C4     -0.493000
     12 HG1         3.0290   -0.1720   -1.3150 hc        1 3C4      0.094000
     13 HG2         2.0780    1.3340   -0.9650 hc        1 3C4      0.094000
     14 HD2         2.0880   -0.2160   -3.4670 hc        1 3C4      0.077000
     15 HE2         0.9750    2.4030   -2.6590 ha        1 3C4      0.111000
     16 HOH        -1.2600    0.5530   -6.1960 ho        1 3C4      0.200000
     17 HD1        -1.9180   -1.0000   -2.7350 h1        1 3C4      0.104000
     18 CL         -0.9480   -2.4700   -4.2760 cl        1 3C4     -0.295000
@<TRIPOS>BOND
     1    1    2 1   
     2    1   11 1   
     3    2    3 1   
     4    2    4 1   
     5    4    5 1   
     6    4   12 1   
     7    4   13 1   
     8    5    6 1   
     9    5   11 1   
    10    5   14 1   
    11    6    7 1   
    12    6   15 1   
    13    7    8 1   
    14    8    9 1   
    15    8   10 1   
    16    9   16 1   
    17   10   11 1   
    18   10   17 1   
    19   10   18 1   
@<TRIPOS>SUBSTRUCTURE
     1 3C4         1 TEMP              0 ****  ****    0 ROOT
