@<TRIPOS>MOLECULE
3C4
   18    16     1     0     0
SMALL
bcc


@<TRIPOS>ATOM
      1 O2          0.2250    1.0890    3.2120 o         1 3C4     -0.585000
      2 C           0.7640    0.0240    2.8110 c1        1 3C4      0.338000
      3 O1          0.6820   -1.0230    3.5070 os        1 3C4     -0.561000
      4 CG          1.5290    0.0070    1.5060 c3        1 3C4     -0.211000
      5 CA          0.5540    0.0450    0.3500 c2        1 3C4     -0.028000
      6 CD2         0.2390    1.2530   -0.2520 c2        1 3C4     -0.089000
      7 CE2        -0.6350    1.2850   -1.3270 c1        1 3C4     -0.159000
      8 CZ         -1.1950    0.1090   -1.8000 c1        1 3C4      0.048000
      9 OH         -2.1080    0.1450   -2.8700 oh        1 3C4     -0.265000
     10 CL         -1.5550   -2.5830   -1.8170 cl        1 3C4     -0.071000
     11 CE1        -0.8800   -1.1000   -1.1980 c2        1 3C4     -0.145000
     12 CD1        -0.0060   -1.1320   -0.1230 c2        1 3C4     -0.116000
     13 HG1         2.1170    0.7880    1.4630 hc        1 3C4      0.079000
     14 HG2         2.0660   -0.8090    1.4540 hc        1 3C4      0.079000
     15 HD2         0.6340    2.0820    0.0810 ha        1 3C4      0.199000
     16 HE2        -0.8480    2.1350   -1.7570 ha        1 3C4      0.137000
     17 HOH        -1.7880   -0.3320   -3.5490 ho        1 3C4      0.212000
     18 HD1         0.2060   -1.9810    0.3090 ha        1 3C4      0.138000
@<TRIPOS>BOND
     1    1    2 1   
     2    2    4 1   
     3    4    5 1   
     4    4   13 1   
     5    4   14 1   
     6    5    6 1   
     7    5   12 1   
     8    6    7 1   
     9    6   15 1   
    10    7   16 1   
    11    8    9 1   
    12    8   11 1   
    13    9   17 1   
    14   10   11 1   
    15   11   12 1   
    16   12   18 1   
@<TRIPOS>SUBSTRUCTURE
     1 3C4         1 TEMP              0 ****  ****    0 ROOT
