@<TRIPOS>MOLECULE
3C5
   30    28     1     0     0
SMALL
bcc


@<TRIPOS>ATOM
      1 C10        -0.9630    0.0440    0.9930 c1        1 3C5     -0.218000
      2 C01         1.1630    2.6390   -6.6710 c3        1 3C5     -0.129000
      3 N02         0.0630    1.8580   -6.1650 n3        1 3C5     -0.329000
      4 C04        -0.6410    0.3930   -4.3400 c2        1 3C5     -0.146000
      5 C09         0.0620    1.6820   -4.7290 c3        1 3C5     -0.042000
      6 C08        -1.1030    0.1780   -0.3860 c2        1 3C5      0.087000
      7 C07        -2.3020    0.3240   -0.9980 c2        1 3C5     -0.194000
      8 C06        -2.4700    0.4730   -2.4190 c2        1 3C5     -0.020000
      9 C05        -1.5570    0.4090   -3.3460 c1        1 3C5      0.061000
     10 C15         2.5630   -2.6280   -3.0880 c1        1 3C5     -0.101000
     11 N14         1.6700   -2.0190   -3.5100 n1        1 3C5     -0.157000
     12 C13         0.4740   -0.2570    4.2130 c2        1 3C5     -0.127000
     13 C12        -0.7000   -0.2010    3.5730 c2        1 3C5     -0.113000
     14 C11        -0.8280   -0.0690    2.1830 c1        1 3C5      0.016000
     15 H1          0.4370   -0.8000   -5.7980 ha        1 3C5      0.171500
     16 H2          1.2130    3.6750   -6.2390 h1        1 3C5      0.087667
     17 H3          2.1280    2.1130   -6.4420 h1        1 3C5      0.087667
     18 H4          1.0520    2.7190   -7.7850 h1        1 3C5      0.087667
     19 H6          1.1270    1.6120   -4.3580 h1        1 3C5      0.103500
     20 H7         -0.8280   -1.7390   -4.7610 ha        1 3C5      0.171500
     21 H8         -0.4270    2.5400   -4.1820 h1        1 3C5      0.103500
     22 H9         -0.1590    0.1640   -0.9660 ha        1 3C5      0.137000
     23 H10        -3.2380    0.3440   -0.4110 ha        1 3C5      0.176000
     24 H11        -3.5220    0.6580   -2.7580 ha        1 3C5      0.221000
     25 H12         3.3890   -3.1920   -2.6990 ha        1 3C5      0.263000
     26 H13         1.4440   -0.2040    3.7000 ha        1 3C5      0.132500
     27 H14         0.5250   -0.3580    5.3070 ha        1 3C5      0.132500
     28 H15        -1.6590   -0.2550    4.1250 ha        1 3C5      0.159000
     29 H022       -0.8150    2.2300   -6.4760 hn        1 3C5      0.172000
     30 C03        -0.3270   -0.7840   -4.9980 c2        1 3C5      0.207000
@<TRIPOS>BOND
     1    1    6 1   
     2    1   14 1   
     3    2    3 1   
     4    2   16 1   
     5    2   17 1   
     6    2   18 1   
     7    3    5 1   
     8    3   29 1   
     9    4    5 1   
    10    4    9 1   
    11    4   30 1   
    12    5   19 1   
    13    5   21 1   
    14    6    7 1   
    15    6   22 1   
    16    7    8 1   
    17    7   23 1   
    18    8    9 1   
    19    8   24 1   
    20   10   11 1   
    21   10   25 1   
    22   12   13 1   
    23   12   26 1   
    24   12   27 1   
    25   13   14 1   
    26   13   28 1   
    27   15   30 1   
    28   20   30 1   
@<TRIPOS>SUBSTRUCTURE
     1 3C5         1 TEMP              0 ****  ****    0 ROOT
