@<TRIPOS>MOLECULE
3C5
   30    31     1     0     0
SMALL
bcc


@<TRIPOS>ATOM
      1 C10        -0.0430   -0.1980   -0.0270 c2        1 3C5     -0.223000
      2 C01         0.6540    1.6610   -7.0150 c3        1 3C5     -0.130000
      3 N02        -0.0490    1.7040   -5.7580 n7        1 3C5     -0.325000
      4 C04        -0.2340    0.6660   -3.5470 c2        1 3C5     -0.163000
      5 C09         0.0600    0.9130   -2.2280 c2        1 3C5      0.044000
      6 C08        -0.8200    0.4620   -1.1270 c3        1 3C5     -0.082000
      7 C07        -1.9720   -0.3590   -1.5570 c2        1 3C5      0.061000
      8 C06        -2.2420   -0.5810   -2.8830 c2        1 3C5     -0.231000
      9 C05        -1.3880   -0.0800   -3.8840 c2        1 3C5      0.167000
     10 C15         0.6990   -1.4130   -0.3920 c2        1 3C5     -0.024000
     11 N14         1.4190   -2.1760    0.3340 n2        1 3C5     -0.189000
     12 C13         0.3950    0.2470    2.5770 cu        1 3C5     -0.078000
     13 C12        -0.4100    1.2560    2.2100 cu        1 3C5     -0.078000
     14 C11        -0.0360    0.3010    1.2070 cu        1 3C5     -0.050000
     15 H1         -0.3510    2.6360   -5.5460 hn        1 3C5      0.170000
     16 H2          1.6390    2.2010   -6.9960 h1        1 3C5      0.088333
     17 H3          0.0010    2.1320   -7.7970 h1        1 3C5      0.088333
     18 H4          0.8420    0.5920   -7.3000 h1        1 3C5      0.088333
     19 H6          1.4290    1.8710   -4.2010 h1        1 3C5      0.103000
     20 H7          1.2760    0.2480   -5.0040 h1        1 3C5      0.103000
     21 H8          0.9670    1.4740   -1.9350 ha        1 3C5      0.184000
     22 H9         -1.2820    1.4260   -0.7010 hc        1 3C5      0.207000
     23 H10        -2.6160   -0.7750   -0.7590 ha        1 3C5      0.186000
     24 H11        -3.1260   -1.1740   -3.1830 ha        1 3C5      0.192000
     25 H12         0.6120   -1.6960   -1.4640 h4        1 3C5      0.136000
     26 H13         1.5100   -1.9400    1.3010 hn        1 3C5      0.145000
     27 H14         0.9730   -0.2790    3.3150 ha        1 3C5      0.223500
     28 H15        -0.9630    2.1490    2.4420 ha        1 3C5      0.223500
     29 H022       -1.6150   -0.2810   -4.9520 ha        1 3C5      0.205000
     30 C03         0.6860    1.1430   -4.6440 c3        1 3C5     -0.045000
@<TRIPOS>BOND
     1    1    6 1   
     2    1   10 1   
     3    1   14 1   
     4    2    3 1   
     5    2   16 1   
     6    2   17 1   
     7    2   18 1   
     8    3   15 1   
     9    3   30 1   
    10    4    5 1   
    11    4    9 1   
    12    4   30 1   
    13    5    6 1   
    14    5   21 1   
    15    6    7 1   
    16    6   22 1   
    17    7    8 1   
    18    7   23 1   
    19    8    9 1   
    20    8   24 1   
    21    9   29 1   
    22   10   11 1   
    23   10   25 1   
    24   11   26 1   
    25   12   13 1   
    26   12   14 1   
    27   12   27 1   
    28   13   14 1   
    29   13   28 1   
    30   19   30 1   
    31   20   30 1   
@<TRIPOS>SUBSTRUCTURE
     1 3C5         1 TEMP              0 ****  ****    0 ROOT
