@<TRIPOS>MOLECULE
3C6
   49    50     1     0     0
SMALL
bcc


@<TRIPOS>ATOM
      1 CAA         0.0670    0.8250   -0.1990 ca        1 3C6     -0.029000
      2 CAB         1.4480    0.7920   -0.3420 ca        1 3C6     -0.241300
      3 CAC         2.2100    0.0530    0.5890 ca        1 3C6      0.489200
      4 NAD         1.6560   -0.6300    1.6130 nb        1 3C6     -0.648000
      5 CAE         0.3240   -0.5910    1.7480 ca        1 3C6      0.468200
      6 CAF        -0.5400    0.1270    0.8720 cp        1 3C6     -0.266300
      7 CAG        -1.9620    0.1290    1.0710 cp        1 3C6      0.183000
      8 CAH        -2.8580    0.3760    0.0030 ca        1 3C6     -0.154000
      9 CAI        -4.2220    0.3730    0.1960 ca        1 3C6     -0.021000
     10 CAL        -2.5210   -0.1190    2.3590 ca        1 3C6     -0.154000
     11 CAK        -3.8800   -0.1250    2.5630 ca        1 3C6     -0.021000
     12 CAJ        -4.7750    0.1190    1.4870 ca        1 3C6     -0.270600
     13 CAM        -6.1870    0.1530    1.5860 c         1 3C6      0.613700
     14 OAX        -7.0690    0.4170    0.7620 o         1 3C6     -0.587100
     15 N          -6.8090   -0.1880    2.9810 ny        1 3C6     -0.701800
     16 CA         -8.3000   -0.3160    2.9420 c3        1 3C6      0.083500
     17 C          -8.9160    1.0560    2.6040 c         1 3C6      0.517100
     18 O          -8.7770    2.0530    3.2930 o         1 3C6     -0.344100
     19 NAW        -9.7250    1.1830    1.3570 nz        1 3C6     -0.738400
     20 CB         -8.9080   -0.7650    4.2850 c3        1 3C6     -0.116400
     21 CG         -8.6280   -2.2200    4.6150 c3        1 3C6     -0.084400
     22 CD         -9.4100   -2.6320    5.8540 c3        1 3C6     -0.109400
     23 CE         -9.1340   -4.0980    6.1860 c3        1 3C6      0.101800
     24 NZ         -9.8750   -4.5830    7.3850 nz        1 3C6     -0.837600
     25 H1         -0.5430    1.4140   -0.9030 ha        1 3C6      0.152000
     26 H2          1.9490    1.3330   -1.1610 ha        1 3C6      0.185000
     27 H3          3.3170    0.0020    0.5160 h4        1 3C6      0.068100
     28 H4         -0.0780   -1.1880    2.5870 h4        1 3C6      0.027100
     29 H5         -2.4580    0.5580   -1.0120 ha        1 3C6      0.185000
     30 H6         -4.9040    0.5610   -0.6530 ha        1 3C6      0.143500
     31 H7         -1.8420   -0.2860    3.2140 ha        1 3C6      0.185000
     32 H8         -4.2510   -0.3030    3.5830 ha        1 3C6      0.143500
     33 H9         -6.4130   -1.0790    3.3020 hn        1 3C6      0.472300
     34 H10        -8.5410   -1.0780    2.1380 hx        1 3C6      0.143700
     35 H11       -10.5030    0.5140    1.3460 hn        1 3C6      0.501800
     36 H12        -9.1190    1.0110    0.5320 hn        1 3C6      0.501800
     37 H13       -10.0220   -0.6160    4.2110 hc        1 3C6      0.102700
     38 H14        -8.5440   -0.1000    5.1150 hc        1 3C6      0.102700
     39 H15        -7.5320   -2.3740    4.8030 hc        1 3C6      0.067700
     40 H16        -8.9220   -2.8750    3.7510 hc        1 3C6      0.067700
     41 H17       -10.5080   -2.4790    5.6710 hc        1 3C6      0.084700
     42 H18        -9.1150   -1.9760    6.7180 hc        1 3C6      0.084700
     43 H19        -9.4320   -4.7530    5.3140 hx        1 3C6      0.120700
     44 H20        -8.0320   -4.2470    6.3850 hx        1 3C6      0.120700
     45 H21        -9.6460   -5.5740    7.5560 hn        1 3C6      0.477133
     46 H22       -10.8890   -4.5020    7.2440 hn        1 3C6      0.477133
     47 H23        -6.5340    0.5460    3.6460 hn        1 3C6      0.472300
     48 HAW3      -10.1090    2.1440    1.2850 hn        1 3C6      0.501800
     49 HZ3        -9.6170   -4.0390    8.2180 hn        1 3C6      0.477133
@<TRIPOS>BOND
     1    1    2 ar  
     2    1    6 ar  
     3    1   25 1   
     4    2    3 ar  
     5    2   26 1   
     6    3    4 ar  
     7    3   27 1   
     8    4    5 ar  
     9    5    6 ar  
    10    5   28 1   
    11    6    7 1   
    12    7    8 ar  
    13    7   10 ar  
    14    8    9 ar  
    15    8   29 1   
    16    9   12 ar  
    17    9   30 1   
    18   10   11 ar  
    19   10   31 1   
    20   11   12 ar  
    21   11   32 1   
    22   12   13 1   
    23   13   14 2   
    24   13   15 1   
    25   15   16 1   
    26   15   33 1   
    27   15   47 1   
    28   16   17 1   
    29   16   20 1   
    30   16   34 1   
    31   17   18 2   
    32   17   19 1   
    33   19   35 1   
    34   19   36 1   
    35   19   48 1   
    36   20   21 1   
    37   20   37 1   
    38   20   38 1   
    39   21   22 1   
    40   21   39 1   
    41   21   40 1   
    42   22   23 1   
    43   22   41 1   
    44   22   42 1   
    45   23   24 1   
    46   23   43 1   
    47   23   44 1   
    48   24   45 1   
    49   24   46 1   
    50   24   49 1   
@<TRIPOS>SUBSTRUCTURE
     1 3C6         1 TEMP              0 ****  ****    0 ROOT
