@<TRIPOS>MOLECULE
3C6
   49    50     1     0     0
SMALL
bcc


@<TRIPOS>ATOM
      1 CAA         0.0640    0.8670   -0.1830 ca        1 3C6     -0.029000
      2 CAB         1.4430    0.8240   -0.3360 ca        1 3C6     -0.241300
      3 CAC         2.2040    0.0460    0.5660 ca        1 3C6      0.489200
      4 NAD         1.6490   -0.6650    1.5690 nb        1 3C6     -0.648000
      5 CAE         0.3190   -0.6160    1.7140 ca        1 3C6      0.468200
      6 CAF        -0.5440    0.1390    0.8690 cp        1 3C6     -0.266300
      7 CAG        -1.9640    0.1490    1.0770 cp        1 3C6      0.183000
      8 CAH        -2.8640    0.4410    0.0240 ca        1 3C6     -0.154000
      9 CAI        -4.2270    0.4450    0.2250 ca        1 3C6     -0.021000
     10 CAL        -2.5180   -0.1360    2.3600 ca        1 3C6     -0.154000
     11 CAK        -3.8750   -0.1340    2.5720 ca        1 3C6     -0.021000
     12 CAJ        -4.7740    0.1550    1.5110 ca        1 3C6     -0.270600
     13 CAM        -6.1850    0.2000    1.6200 c         1 3C6      0.613700
     14 OAX        -7.0690    0.4990    0.8110 o         1 3C6     -0.587100
     15 N          -6.8020   -0.1810    3.0070 n4        1 3C6     -0.701800
     16 CA         -8.2940   -0.2930    2.9740 c3        1 3C6      0.083500
     17 C          -8.8990    1.0950    2.6850 c         1 3C6      0.517100
     18 O          -8.7450    2.0670    3.4060 o         1 3C6     -0.344100
     19 NAW        -9.7140    1.2720    1.4490 n4        1 3C6     -0.738400
     20 CB         -8.8990   -0.7810    4.3050 c3        1 3C6     -0.116400
     21 CG         -8.6310   -2.2480    4.5860 c3        1 3C6     -0.084400
     22 CD         -9.4100   -2.6930    5.8160 c3        1 3C6     -0.109400
     23 CE         -9.1460   -4.1710    6.0970 c3        1 3C6      0.101800
     24 NZ         -9.8850   -4.6890    7.2840 n4        1 3C6     -0.837600
     25 H1         -0.5440    1.4850   -0.8620 ha        1 3C6      0.152000
     26 H2          1.9450    1.3860   -1.1390 ha        1 3C6      0.185000
     27 H3          3.3090   -0.0140    0.4830 h4        1 3C6      0.068100
     28 H4         -0.0840   -1.2380    2.5360 h4        1 3C6      0.027100
     29 H5         -2.4690    0.6530   -0.9870 ha        1 3C6      0.185000
     30 H6         -4.9120    0.6690   -0.6130 ha        1 3C6      0.143500
     31 H7         -1.8350   -0.3390    3.2040 ha        1 3C6      0.185000
     32 H8         -4.2420   -0.3430    3.5890 ha        1 3C6      0.143500
     33 H9         -6.5150    0.5270    3.6940 hn        1 3C6      0.472300
     34 H10        -8.5480   -1.0260    2.1460 hx        1 3C6      0.143700
     35 H11       -10.4990    0.6110    1.4210 hn        1 3C6      0.501800
     36 H12        -9.1150    1.1210    0.6140 hn        1 3C6      0.501800
     37 H13        -8.5240   -0.1460    5.1550 hc        1 3C6      0.102700
     38 H14       -10.0110   -0.6180    4.2440 hc        1 3C6      0.102700
     39 H15        -7.5360   -2.4190    4.7620 hc        1 3C6      0.067700
     40 H16        -8.9360   -2.8720    3.7030 hc        1 3C6      0.067700
     41 H17        -9.1040   -2.0690    6.6980 hc        1 3C6      0.084700
     42 H18       -10.5080   -2.5240    5.6440 hc        1 3C6      0.084700
     43 H19        -8.0440   -4.3380    6.2850 hx        1 3C6      0.120700
     44 H20        -9.4550   -4.7950    5.2070 hx        1 3C6      0.120700
     45 H21        -9.6640   -5.6860    7.4210 hn        1 3C6      0.477133
     46 H22       -10.8990   -4.5940    7.1520 hn        1 3C6      0.477133
     47 H23        -6.4130   -1.0870    3.2960 hn        1 3C6      0.472300
     48 HAW3      -10.0880    2.2380    1.4110 hn        1 3C6      0.501800
     49 HZ3        -9.6170   -4.1750    8.1330 hn        1 3C6      0.477133
@<TRIPOS>BOND
     1    1    2 ar  
     2    1    6 ar  
     3    1   25 1   
     4    2    3 ar  
     5    2   26 1   
     6    3    4 ar  
     7    3   27 1   
     8    4    5 ar  
     9    5    6 ar  
    10    5   28 1   
    11    6    7 1   
    12    7    8 ar  
    13    7   10 ar  
    14    8    9 ar  
    15    8   29 1   
    16    9   12 ar  
    17    9   30 1   
    18   10   11 ar  
    19   10   31 1   
    20   11   12 ar  
    21   11   32 1   
    22   12   13 1   
    23   13   14 2   
    24   13   15 1   
    25   15   16 1   
    26   15   33 1   
    27   15   47 1   
    28   16   17 1   
    29   16   20 1   
    30   16   34 1   
    31   17   18 2   
    32   17   19 1   
    33   19   35 1   
    34   19   36 1   
    35   19   48 1   
    36   20   21 1   
    37   20   37 1   
    38   20   38 1   
    39   21   22 1   
    40   21   39 1   
    41   21   40 1   
    42   22   23 1   
    43   22   41 1   
    44   22   42 1   
    45   23   24 1   
    46   23   43 1   
    47   23   44 1   
    48   24   45 1   
    49   24   46 1   
    50   24   49 1   
@<TRIPOS>SUBSTRUCTURE
     1 3C6         1 TEMP              0 ****  ****    0 ROOT
