@<TRIPOS>MOLECULE
3C7
   23    24     1     0     0
SMALL
bcc


@<TRIPOS>ATOM
      1 C12         0.0660   -0.0900    0.0520 c3        1 3C7      0.047700
      2 O11         1.2550    1.7550   -1.6180 o         1 3C7     -0.819800
      3 C09         2.0990    0.9790   -1.1060 c         1 3C7      0.939600
      4 O10         3.3330    0.9430   -1.3600 o         1 3C7     -0.819800
      5 C08         1.5800   -0.1020   -0.0830 c3        1 3C7      0.026500
      6 N07         2.1980    0.0940    1.2390 n3        1 3C7     -0.685600
      7 C03         3.5750   -0.3520    1.3110 c3        1 3C7      0.317600
      8 C02         4.5320    0.6950    1.8540 c3        1 3C7      0.038700
      9 S01         4.0030    1.6570    3.2460 sh        1 3C7     -0.439900
     10 S13        -0.3030   -0.7090    1.6950 ss        1 3C7     -0.424200
     11 C06         1.3870   -0.4930    2.3050 c3        1 3C7      0.276600
     12 C05         1.9550   -1.8040    2.8450 c3        1 3C7      0.005700
     13 S04         3.6560   -1.8790    2.3400 ss        1 3C7     -0.444200
     14 H122       -0.4090   -0.7540   -0.7020 h1        1 3C7      0.085200
     15 H121       -0.3290    0.9470   -0.0720 h1        1 3C7      0.085200
     16 H08         1.8900   -1.1010   -0.5170 h1        1 3C7      0.033700
     17 H03         3.9530   -0.6330    0.2810 h2        1 3C7      0.129700
     18 H021        5.4680    0.1910    2.1990 h1        1 3C7      0.088700
     19 H022        4.7750    1.3900    1.0070 h1        1 3C7      0.088700
     20 HS01        2.9750    2.2990    2.7060 hs        1 3C7      0.237800
     21 H06         1.3440    0.2600    3.1400 h2        1 3C7      0.090700
     22 H052        1.4050   -2.6830    2.4330 h1        1 3C7      0.071200
     23 H051        1.8940   -1.8330    3.9570 h1        1 3C7      0.071200
@<TRIPOS>BOND
     1    1    5 1   
     2    1   10 1   
     3    1   14 1   
     4    1   15 1   
     5    2    3 1   
     6    3    4 1   
     7    3    5 1   
     8    5    6 1   
     9    5   16 1   
    10    6    7 1   
    11    6   11 1   
    12    7    8 1   
    13    7   13 1   
    14    7   17 1   
    15    8    9 1   
    16    8   18 1   
    17    8   19 1   
    18    9   20 1   
    19   10   11 1   
    20   11   12 1   
    21   11   21 1   
    22   12   13 1   
    23   12   22 1   
    24   12   23 1   
@<TRIPOS>SUBSTRUCTURE
     1 3C7         1 TEMP              0 ****  ****    0 ROOT
