@<TRIPOS>MOLECULE
3C7
   23    24     1     0     0
SMALL
bcc


@<TRIPOS>ATOM
      1 C12         0.0210    0.0290    0.1560 c3        1 3C7      0.047700
      2 O11         1.2250    1.8060   -1.5770 o         1 3C7     -0.819800
      3 C09         2.0500    0.9870   -1.1030 c         1 3C7      0.939600
      4 O10         3.2670    0.8860   -1.4150 o         1 3C7     -0.819800
      5 C08         1.5250   -0.0630   -0.0510 c3        1 3C7      0.026500
      6 N07         2.2150    0.1020    1.2390 n3        1 3C7     -0.685600
      7 C03         3.5680   -0.4150    1.2470 c3        1 3C7      0.317600
      8 C02         4.6030    0.5810    1.7400 c3        1 3C7      0.038700
      9 S01         4.1920    1.5720    3.1520 sh        1 3C7     -0.439900
     10 S13        -0.3000   -0.5670    1.8170 ss        1 3C7     -0.424200
     11 C06         1.4250   -0.4400    2.3450 c3        1 3C7      0.276600
     12 C05         1.9500   -1.7780    2.8630 c3        1 3C7      0.005700
     13 S04         3.6190   -1.9420    2.2780 ss        1 3C7     -0.444200
     14 H122       -0.5230   -0.6110   -0.5730 h1        1 3C7      0.085200
     15 H121       -0.3240    1.0850    0.0450 h1        1 3C7      0.085200
     16 H08         1.7610   -1.0780   -0.4960 h1        1 3C7      0.033700
     17 H03         3.8820   -0.7160    0.2010 h2        1 3C7      0.129700
     18 H021        4.8420    1.2620    0.8810 h1        1 3C7      0.088700
     19 H022        5.5270    0.0290    2.0430 h1        1 3C7      0.088700
     20 HS01        3.1740    2.2660    2.6580 hs        1 3C7      0.237800
     21 H06         1.4620    0.3160    3.1780 h2        1 3C7      0.090700
     22 H052        1.3350   -2.6270    2.4810 h1        1 3C7      0.071200
     23 H051        1.9400   -1.8010    3.9760 h1        1 3C7      0.071200
@<TRIPOS>BOND
     1    1    5 1   
     2    1   10 1   
     3    1   14 1   
     4    1   15 1   
     5    2    3 1   
     6    3    4 1   
     7    3    5 1   
     8    5    6 1   
     9    5   16 1   
    10    6    7 1   
    11    6   11 1   
    12    7    8 1   
    13    7   13 1   
    14    7   17 1   
    15    8    9 1   
    16    8   18 1   
    17    8   19 1   
    18    9   20 1   
    19   10   11 1   
    20   11   12 1   
    21   11   21 1   
    22   12   13 1   
    23   12   22 1   
    24   12   23 1   
@<TRIPOS>SUBSTRUCTURE
     1 3C7         1 TEMP              0 ****  ****    0 ROOT
