@<TRIPOS>MOLECULE
3C9
   51    65     1     0     0
SMALL
bcc


@<TRIPOS>ATOM
      1 S1          0.0000    0.0000    0.0000 s6        1 3C9      2.085000
      2 N2          1.6560    0.0000    0.0000 nx        1 3C9     -0.068000
      3 C3          4.8150    2.2290    2.9220 c3        1 3C9      0.465000
      4 N4          5.5910    2.1730    4.0220 n7        1 3C9     -0.252000
      5 N5          6.0710    4.4710    3.8450 n2        1 3C9      0.086000
      6 C6          7.6170    5.4650    5.3490 c3        1 3C9      0.093000
      7 C7          6.2710    3.3130    4.4550 c2        1 3C9      0.138000
      8 C8          6.7220    5.5540    4.2630 DU        1 3C9     -0.469000
      9 N9          7.8040    4.2970    5.9490 n2        1 3C9      0.076000
     10 C10         2.4050    0.0000    1.2640 c3        1 3C9     -0.349000
     11 N11         8.1340    6.7240    5.5520 n7        1 3C9     -0.117000
     12 C12         6.7450    6.9540    3.8360 c3        1 3C9     -0.147000
     13 O14        -0.3510   -0.6060   -1.2370 o         1 3C9     -0.755500
     14 O15        -0.3510   -0.6040    1.2380 o         1 3C9     -0.755500
     15 C16         7.6050    7.5970    4.6430 c2        1 3C9      0.000000
     16 O17         4.6310    3.2920    2.3610 oh        1 3C9     -0.281000
     17 C18         3.3960    1.1680    1.2490 DU        1 3C9     -0.189000
     18 C19         7.1560    3.2290    5.5300 c2        1 3C9     -0.181000
     19 C20        -0.4530    1.7570   -0.0000 c3        1 3C9     -0.105000
     20 C21         2.4040   -0.0060   -1.2650 DU        1 3C9     -0.161000
     21 C22         3.3960    1.1610   -1.2570 DU        1 3C9     -0.237000
     22 C23         4.2740    1.0710   -0.0010 c3        1 3C9     -0.271000
     23 C24        -1.9770    1.8900   -0.0000 DU        1 3C9     -0.305000
     24 C25        -2.3590    3.3670    0.1260 c3        1 3C9     -0.264500
     25 C26        -2.5390    1.3280   -1.3070 c3        1 3C9     -0.264500
     26 H1          5.0240    1.6750    3.3650 DU        1 3C9      0.307000
     27 H2          3.1360    0.2980    2.0060 DU        1 3C9      0.334000
     28 H3          2.9460   -0.9330    1.3650 hx        1 3C9      0.133000
     29 H4          7.4810    6.0520    5.2010 DU        1 3C9      0.088000
     30 H5          6.3090    6.4610    2.9750 hc        1 3C9      0.238000
     31 H6          4.5550    2.0550    2.5170 DU        1 3C9     -0.477000
     32 H7          7.0790    6.6710    4.4420 DU        1 3C9      0.210000
     33 H8          3.9130    2.0380    1.6360 hx        1 3C9      0.199000
     34 H9          6.3980    3.0340    4.7810 h4        1 3C9      0.101000
     35 H10         0.4020    1.8140    0.6630 h1        1 3C9      0.076000
     36 H11        -0.0480    2.2340   -0.8850 h1        1 3C9      0.076000
     37 H12         1.7340    0.6080   -0.6750 DU        1 3C9      0.201000
     38 H13         1.7160    0.1090   -2.0930 hx        1 3C9      0.188000
     39 H14         3.1710    0.1030   -1.3100 DU        1 3C9      0.136000
     40 H15         2.8510    2.0970   -1.2490 ha        1 3C9      0.105000
     41 H16         4.1500    1.0900   -1.0770 DU        1 3C9      0.167000
     42 H17         4.9880    1.8860   -0.0030 hc        1 3C9      0.137000
     43 H18        -0.9310    1.6100    0.0000 ha        1 3C9     -0.003000
     44 H19        -2.3750    2.3450    0.4850 DU        1 3C9      0.193000
     45 H20        -2.0640    3.7350    1.1010 hc        1 3C9      0.098000
     46 H21        -1.8540    3.9380   -0.6440 hc        1 3C9      0.098000
     47 H22        -2.9030    2.1980   -0.7740 DU        1 3C9      0.193000
     48 H23        -2.3500    1.8400   -2.2430 hc        1 3C9      0.098000
     49 H24        -2.8950    0.3060   -1.3490 hc        1 3C9      0.098000
     50 N13         4.2410    1.1070    2.4450 ny        1 3C9      0.121000
     51 H132        4.8440    0.3560    2.1730 hn        1 3C9      0.115000
@<TRIPOS>BOND
     1    1    2 1   
     2    1   13 1   
     3    1   14 1   
     4    1   19 1   
     5    2   10 1   
     6    2   20 1   
     7    2   37 1   
     8    3    4 1   
     9    3   16 1   
    10    3   26 1   
    11    3   50 1   
    12    4    7 1   
    13    4   26 1   
    14    5    7 1   
    15    5    8 1   
    16    6    8 1   
    17    6    9 1   
    18    6   11 1   
    19    6   29 1   
    20    7   18 1   
    21    8   12 1   
    22    8   29 1   
    23    8   32 1   
    24    9   18 1   
    25   10   17 1   
    26   10   27 1   
    27   10   28 1   
    28   11   15 1   
    29   11   29 1   
    30   12   15 1   
    31   12   30 1   
    32   12   32 1   
    33   15   32 1   
    34   16   31 1   
    35   17   22 1   
    36   17   27 1   
    37   17   33 1   
    38   17   50 1   
    39   18   34 1   
    40   19   23 1   
    41   19   35 1   
    42   19   36 1   
    43   20   21 1   
    44   20   37 1   
    45   20   38 1   
    46   20   39 1   
    47   21   22 1   
    48   21   39 1   
    49   21   40 1   
    50   21   41 1   
    51   22   41 1   
    52   22   42 1   
    53   23   24 1   
    54   23   25 1   
    55   23   43 1   
    56   23   44 1   
    57   23   47 1   
    58   24   44 1   
    59   24   45 1   
    60   24   46 1   
    61   25   47 1   
    62   25   48 1   
    63   25   49 1   
    64   31   50 1   
    65   50   51 1   
@<TRIPOS>SUBSTRUCTURE
     1 3C9         1 TEMP              0 ****  ****    0 ROOT
