@<TRIPOS>MOLECULE
3CA
   25    26     1     0     0
SMALL
bcc


@<TRIPOS>ATOM
      1 O1          0.0690    0.3450   -0.0070 o         1 3CA     -0.829300
      2 C9          1.2680   -0.0600   -0.1290 c         1 3CA      0.918200
      3 O91         1.9340   -0.5450    0.8240 o         1 3CA     -0.829300
      4 C8          1.9270    0.0450   -1.4920 ca        1 3CA     -0.222600
      5 C10         1.2540    0.5380   -2.6280 ca        1 3CA      0.197100
      6 O10        -0.0370    0.9780   -2.6280 oh        1 3CA     -0.548100
      7 C11         1.9110    0.5980   -3.8770 ca        1 3CA     -0.216000
      8 C12         3.2240    0.1700   -3.9850 ca        1 3CA     -0.089000
      9 C13         3.9140   -0.3100   -2.8610 cp        1 3CA     -0.154000
     10 C7          3.2520   -0.3660   -1.6270 ca        1 3CA     -0.030000
     11 C3          5.2890   -0.7770   -3.0130 cp        1 3CA      0.032000
     12 C2          5.5690   -1.7400   -3.9990 ca        1 3CA     -0.122000
     13 C4          6.3560   -0.3040   -2.2290 ca        1 3CA      0.024400
     14 CL          6.1240    0.8870   -1.0400 cl        1 3CA     -0.071400
     15 C5          7.6560   -0.7890   -2.4140 ca        1 3CA     -0.127000
     16 C6          7.8970   -1.7480   -3.3970 ca        1 3CA      0.006400
     17 CL1         9.4800   -2.3400   -3.6270 cl        1 3CA     -0.123400
     18 C1          6.8550   -2.2270   -4.1970 ca        1 3CA     -0.131000
     19 H10        -0.4050    0.9000   -1.7190 ho        1 3CA      0.486000
     20 H11         1.3670    0.9850   -4.7480 ha        1 3CA      0.127000
     21 H12         3.7340    0.2150   -4.9580 ha        1 3CA      0.109000
     22 H7          3.7640   -0.7490   -0.7260 ha        1 3CA      0.163000
     23 H2          4.7390   -2.1150   -4.6200 ha        1 3CA      0.145000
     24 H5          8.4800   -0.4140   -1.7880 ha        1 3CA      0.150000
     25 H1          7.0480   -2.9840   -4.9700 ha        1 3CA      0.137000
@<TRIPOS>BOND
     1    1    2 1   
     2    2    3 1   
     3    2    4 1   
     4    4    5 ar  
     5    4   10 ar  
     6    5    6 1   
     7    5    7 ar  
     8    6   19 1   
     9    7    8 ar  
    10    7   20 1   
    11    8    9 ar  
    12    8   21 1   
    13    9   10 ar  
    14    9   11 1   
    15   10   22 1   
    16   11   12 ar  
    17   11   13 ar  
    18   12   18 ar  
    19   12   23 1   
    20   13   14 1   
    21   13   15 ar  
    22   15   16 ar  
    23   15   24 1   
    24   16   17 1   
    25   16   18 ar  
    26   18   25 1   
@<TRIPOS>SUBSTRUCTURE
     1 3CA         1 TEMP              0 ****  ****    0 ROOT
