@<TRIPOS>MOLECULE
3CA
   25    19     1     0     0
SMALL
bcc


@<TRIPOS>ATOM
      1 O1         -2.7730    1.8550    3.0750 o         1 3CA     -0.588000
      2 C9         -2.8160    0.8330    2.3410 c1        1 3CA      0.367000
      3 O91        -3.4820   -0.1730    2.7010 os        1 3CA     -0.542000
      4 C8         -2.0510    0.8070    1.0350 c2        1 3CA     -0.203000
      5 C10        -2.5760    1.4270   -0.0870 c1        1 3CA      0.153000
      6 O10        -3.8490    2.0240   -0.0310 o         1 3CA     -0.301000
      7 C11        -1.8620    1.4310   -1.2750 c2        1 3CA     -0.217000
      8 C12        -0.6230    0.8130   -1.3400 c1        1 3CA     -0.077000
      9 C13        -0.0970    0.1930   -0.2180 c1        1 3CA     -0.154000
     10 C7         -0.8120    0.1890    0.9700 c2        1 3CA     -0.041000
     11 C3          1.1070   -0.4890   -0.3030 c1        1 3CA      0.035000
     12 C2          2.2920    0.1560    0.0140 c1        1 3CA     -0.115000
     13 C4          1.1270   -1.8140   -0.7110 c1        1 3CA     -0.060000
     14 CL         -0.3610   -2.6190   -1.1270 cl        1 3CA     -0.031000
     15 C5          2.3320   -2.4930   -0.8020 c2        1 3CA     -0.128000
     16 C6          3.5170   -1.8470   -0.4850 c1        1 3CA     -0.074000
     17 CL1         5.0310   -2.7060   -0.5880 cl        1 3CA     -0.031000
     18 C1          3.4970   -0.5230   -0.0780 c2        1 3CA     -0.125000
     19 H10        -3.7610    2.9070    0.0250 ho        1 3CA      0.285000
     20 H11        -2.2320    1.8680   -2.0660 ha        1 3CA      0.128000
     21 H12        -0.1200    0.8150   -2.1770 ha        1 3CA      0.115000
     22 H7         -0.4420   -0.2480    1.7610 ha        1 3CA      0.157000
     23 H2          2.2790    1.0890    0.3010 ha        1 3CA      0.159000
     24 H5          2.3450   -3.4280   -1.0800 ha        1 3CA      0.147000
     25 H1          4.3310   -0.0690    0.1450 ha        1 3CA      0.141000
@<TRIPOS>BOND
     1    1    2 1   
     2    2    4 1   
     3    4    5 1   
     4    4   10 1   
     5    5    7 1   
     6    6   19 1   
     7    7    8 1   
     8    7   20 1   
     9    8   21 1   
    10    9   10 1   
    11   10   22 1   
    12   11   13 1   
    13   12   18 1   
    14   12   23 1   
    15   13   15 1   
    16   15   16 1   
    17   15   24 1   
    18   16   18 1   
    19   18   25 1   
@<TRIPOS>SUBSTRUCTURE
     1 3CA         1 TEMP              0 ****  ****    0 ROOT
