@<TRIPOS>MOLECULE
3CA
   25    26     1     0     0
SMALL
bcc


@<TRIPOS>ATOM
      1 O1         45.1090   -2.5940   54.3740 o         1 3CA     -0.816300
      2 C9         43.8780   -2.4020   54.5640 c         1 3CA      0.926200
      3 O91        42.9540   -3.1670   54.1820 o         1 3CA     -0.816300
      4 C8         43.4800   -1.1590   55.3610 ca        1 3CA     -0.116600
      5 C10        43.1320    0.0610   54.7470 ca        1 3CA      0.146100
      6 O10        43.1530    0.1180   53.3720 oh        1 3CA     -0.467100
      7 C11        42.7830    1.1840   55.5130 ca        1 3CA     -0.244000
      8 C12        42.7820    1.0980   56.9020 ca        1 3CA     -0.105000
      9 C13        43.1160   -0.1050   57.5330 cp        1 3CA     -0.123000
     10 C7         43.4620   -1.2200   56.7520 ca        1 3CA     -0.063000
     11 C3         43.1340   -0.1670   58.9930 cp        1 3CA      0.024000
     12 C2         43.9180    0.7620   59.6970 ca        1 3CA     -0.118000
     13 C4         42.3950   -1.1080   59.7320 ca        1 3CA      0.024400
     14 CL         41.3940   -2.2470   58.9680 cl        1 3CA     -0.067400
     15 C5         42.4500   -1.1260   61.1310 ca        1 3CA     -0.129000
     16 C6         43.2430   -0.1930   61.7990 ca        1 3CA      0.008400
     17 CL1        43.3100   -0.2110   63.5030 cl        1 3CA     -0.121400
     18 C1         43.9800    0.7570   61.0860 ca        1 3CA     -0.132000
     19 H10        42.8650    1.0060   53.1140 ho        1 3CA      0.390000
     20 H11        42.5110    2.1270   55.0200 ha        1 3CA      0.110000
     21 H12        42.5110    1.9770   57.5040 ha        1 3CA      0.109000
     22 H7         43.7350   -2.1690   57.2390 ha        1 3CA      0.145000
     23 H2         44.4990    1.5030   59.1250 ha        1 3CA      0.146000
     24 H5         41.8710   -1.8710   61.6970 ha        1 3CA      0.150000
     25 H1         44.6050    1.4900   61.6150 ha        1 3CA      0.138000
@<TRIPOS>BOND
     1    1    2 1   
     2    2    3 1   
     3    2    4 1   
     4    4    5 ar  
     5    4   10 ar  
     6    5    6 1   
     7    5    7 ar  
     8    6   19 1   
     9    7    8 ar  
    10    7   20 1   
    11    8    9 ar  
    12    8   21 1   
    13    9   10 ar  
    14    9   11 1   
    15   10   22 1   
    16   11   12 ar  
    17   11   13 ar  
    18   12   18 ar  
    19   12   23 1   
    20   13   14 1   
    21   13   15 ar  
    22   15   16 ar  
    23   15   24 1   
    24   16   17 1   
    25   16   18 ar  
    26   18   25 1   
@<TRIPOS>SUBSTRUCTURE
     1 3CA         1 TEMP              0 ****  ****    0 ROOT
