@<TRIPOS>MOLECULE
3CB
   77    69     1     0     0
SMALL
bcc


@<TRIPOS>ATOM
      1 C15        -0.2610    1.8850   -1.5700 c1        1 3CB      0.289000
      2 O1          0.7780    2.5180   -1.6460 o         1 3CB     -0.353000
      3 N17        -0.9770    1.8290   -0.3220 n2        1 3CB     -0.349000
      4 C18        -0.2650    1.8320    0.9020 c3        1 3CB      0.018000
      5 C19        -1.2290    2.1220    2.0550 c3        1 3CB     -0.193000
      6 C20        -0.7870    3.4290    2.7850 c3        1 3CB     -0.157000
      7 C28         0.3880    0.4740    1.1130 c2        1 3CB      0.265000
      8 O30        -0.1960   -0.5400    0.7820 o         1 3CB     -0.444000
      9 N31         1.6360    0.3880    1.7740 n         1 3CB     -0.326000
     10 C32         2.3530   -0.8550    1.7930 c3        1 3CB     -0.010000
     11 C16         4.0460   -1.1940    3.6350 c1        1 3CB     -0.126000
     12 C17         5.3510   -1.1410    4.1320 c1        1 3CB     -0.121000
     13 C22         6.3580   -0.5200    3.3850 c1        1 3CB     -0.129000
     14 C23         6.0580    0.0450    2.1460 c1        1 3CB     -0.115500
     15 C24         4.7580   -0.0090    1.6530 c1        1 3CB     -0.115500
     16 C25         3.7500   -0.6300    2.3990 c1        1 3CB     -0.059000
     17 C26         7.7340   -0.3540    3.9710 c2        1 3CB      0.122000
     18 N1          8.0150    0.6990    4.6860 n1        1 3CB     -0.320000
     19 C2         -1.5040    3.5200    4.1600 c2        1 3CB      0.043000
     20 N5         -0.7590    3.5670    5.3300 n3        1 3CB     -0.328000
     21 N3         -2.8280    3.5550    4.2170 n1        1 3CB     -0.302000
     22 C1          0.1910    1.2460   -3.9150 c3        1 3CB     -0.100000
     23 C4          0.5860   -0.1690   -4.2270 c3        1 3CB     -0.157000
     24 N4         -1.2500   -0.0850   -2.5120 n3        1 3CB     -0.883000
     25 C5         -0.8490    1.2540   -2.8050 c3        1 3CB      0.025000
     26 C3         -0.3940    1.8920   -5.1560 c3        1 3CB     -0.214000
     27 S1         -2.8490   -0.5390   -2.7110 s4        1 3CB      2.002800
     28 O4         -3.7150    0.1550   -1.7760 o         1 3CB     -0.550400
     29 O3         -3.3710   -0.0730   -3.9770 o         1 3CB     -0.550400
     30 C9         -3.0140   -2.3440   -2.5490 c2        1 3CB     -0.795000
     31 C6          2.0630   -0.2090   -4.6700 c3        1 3CB     -0.205000
     32 C8         -4.5110   -2.7090   -2.2300 c2        1 3CB     -0.088000
     33 C7         -4.8990   -2.9850   -0.9190 c2        1 3CB     -0.103000
     34 C12        -6.2100   -3.3760   -0.6470 c1        1 3CB     -0.105000
     35 C10        -7.1290   -3.4900   -1.6820 c1        1 3CB     -0.115500
     36 C11        -6.7440   -3.2150   -2.9890 c1        1 3CB     -0.115500
     37 C13        -5.4310   -2.8230   -3.2630 c1        1 3CB     -0.135000
     38 N2          8.7340   -1.3520    3.7430 n3        1 3CB     -0.335000
     39 C14        -6.6540   -3.6380    0.8110 c2        1 3CB      0.366000
     40 O2         -7.1840   -2.7180    1.4770 o         1 3CB     -0.575500
     41 O5         -6.5870   -4.7990    1.2880 o         1 3CB     -0.575500
     42 H17        -1.9000    1.8480   -0.3190 hn        1 3CB      0.235000
     43 H18         0.4260    2.5230    0.8750 h1        1 3CB      0.134000
     44 H191       -2.1430    2.2370    1.7000 hc        1 3CB      0.134000
     45 H192       -1.2170    1.3770    2.6840 hc        1 3CB      0.134000
     46 H201        0.2050    3.4140    2.9250 hc        1 3CB      0.096000
     47 H202       -1.0300    4.2090    2.2360 hc        1 3CB      0.096000
     48 H31         2.0020    1.1290    2.1470 hn        1 3CB      0.274000
     49 H321        2.4460   -1.1980    0.8650 h1        1 3CB      0.112500
     50 H322        1.8570   -1.5160    2.3430 h1        1 3CB      0.112500
     51 H16         3.3400   -1.6280    4.1560 ha        1 3CB      0.143000
     52 H2          5.5610   -1.5370    5.0000 ha        1 3CB      0.130000
     53 H23         6.7710    0.5080    1.6230 ha        1 3CB      0.143000
     54 H24         4.5500    0.3850    0.7900 ha        1 3CB      0.143000
     55 HN1         7.3780    1.3340    4.8310 DU        1 3CB      0.178500
     56 HN51       -1.1750    3.4980    6.1370 hn        1 3CB      0.165500
     57 HN52        0.1360    3.6420    5.2900 hn        1 3CB      0.165500
     58 HN3        -3.3070    3.5250    3.4660 DU        1 3CB      0.178500
     59 H1          0.9770    1.7470   -3.6260 hc        1 3CB      0.111000
     60 H41         0.0240   -0.5110   -4.9450 hc        1 3CB      0.090000
     61 H42         0.4690   -0.7230   -3.4290 hc        1 3CB      0.090000
     62 HN4        -0.6290   -0.7040   -2.3000 hn        1 3CB      0.256000
     63 H5         -1.6200    1.7650   -3.0920 h1        1 3CB      0.120000
     64 H31A       -1.1980    1.4060   -5.4270 hc        1 3CB      0.076333
     65 H32         0.2660    1.8640   -5.8810 hc        1 3CB      0.076333
     66 H33        -0.6260    2.8280   -4.9590 hc        1 3CB      0.076333
     67 H91        -2.7410   -2.7770   -3.3930 ha        1 3CB      0.162000
     68 H92        -2.4260   -2.6670   -1.8040 ha        1 3CB      0.162000
     69 H61         2.1860    0.3700   -5.4670 hc        1 3CB      0.069333
     70 H62         2.6340    0.1160   -3.9380 hc        1 3CB      0.069333
     71 H63         2.3130   -1.1340   -4.8940 hc        1 3CB      0.069333
     72 H7         -4.2440   -2.9670   -0.2070 ha        1 3CB      0.133000
     73 H10        -8.0470   -3.7330   -1.4890 ha        1 3CB      0.143000
     74 H11        -7.3990   -3.2970   -3.7250 ha        1 3CB      0.143000
     75 H13        -5.1520   -2.6350   -4.2040 ha        1 3CB      0.118000
     76 HN21        8.4950   -2.2320    3.6850 hn        1 3CB      0.190000
     77 HN22        9.6170   -1.1110    3.6810 hn        1 3CB      0.190000
@<TRIPOS>BOND
     1    1    2 1   
     2    1   25 1   
     3    3    4 1   
     4    3   42 1   
     5    4    5 1   
     6    4    7 1   
     7    4   43 1   
     8    5    6 1   
     9    5   44 1   
    10    5   45 1   
    11    6   19 1   
    12    6   46 1   
    13    6   47 1   
    14    7    8 1   
    15    7    9 1   
    16    9   10 1   
    17    9   48 1   
    18   10   16 1   
    19   10   49 1   
    20   10   50 1   
    21   11   16 1   
    22   11   51 1   
    23   12   13 1   
    24   12   52 1   
    25   13   17 1   
    26   14   15 1   
    27   14   53 1   
    28   15   54 1   
    29   17   18 1   
    30   17   38 1   
    31   19   20 1   
    32   19   21 1   
    33   20   56 1   
    34   20   57 1   
    35   22   23 1   
    36   22   25 1   
    37   22   26 1   
    38   22   59 1   
    39   23   31 1   
    40   23   60 1   
    41   23   61 1   
    42   24   25 1   
    43   24   27 1   
    44   24   62 1   
    45   25   63 1   
    46   26   64 1   
    47   26   65 1   
    48   26   66 1   
    49   27   28 1   
    50   27   29 1   
    51   30   32 1   
    52   30   67 1   
    53   30   68 1   
    54   31   69 1   
    55   31   70 1   
    56   31   71 1   
    57   32   33 1   
    58   32   37 1   
    59   33   34 1   
    60   33   72 1   
    61   34   39 1   
    62   35   36 1   
    63   35   73 1   
    64   36   74 1   
    65   37   75 1   
    66   38   76 1   
    67   38   77 1   
    68   39   40 1   
    69   39   41 1   
@<TRIPOS>SUBSTRUCTURE
     1 3CB         1 TEMP              0 ****  ****    0 ROOT
