@<TRIPOS>MOLECULE
3CB
   77    78     1     0     0
SMALL
bcc


@<TRIPOS>ATOM
      1 C15        -0.9650   -0.5770    0.2670 c         1 3CB      0.655100
      2 O1         -1.3540   -1.7560    0.1390 o         1 3CB     -0.627100
      3 N17        -0.5150    0.1430   -0.8190 n         1 3CB     -0.562900
      4 C18        -0.4520   -0.4270   -2.1410 c3        1 3CB      0.040700
      5 C19        -1.7190   -0.2270   -2.9950 c3        1 3CB     -0.083400
      6 C20        -2.8730   -1.0200   -2.4250 c3        1 3CB     -0.120700
      7 C28         0.7140    0.2120   -2.9370 c         1 3CB      0.647100
      8 O30         0.9350    1.4380   -2.8870 o         1 3CB     -0.608100
      9 N31         1.5010   -0.6430   -3.6800 n         1 3CB     -0.554900
     10 C32         2.5510   -0.1660   -4.5380 c3        1 3CB      0.129300
     11 C16         1.3280    1.0700   -6.3500 ca        1 3CB     -0.119500
     12 C17         0.9750    1.2530   -7.6860 ca        1 3CB     -0.105000
     13 C22         1.4460    0.3640   -8.6570 ca        1 3CB     -0.131900
     14 C23         2.2780   -0.6990   -8.2910 ca        1 3CB     -0.105000
     15 C24         2.6300   -0.8770   -6.9540 ca        1 3CB     -0.119500
     16 C25         2.1550    0.0050   -5.9790 ca        1 3CB     -0.111300
     17 N1          1.2840    1.7100  -10.6450 n2        1 3CB     -0.827100
     18 C2         -4.1350   -0.9870   -3.2830 c2        1 3CB      0.605200
     19 N5         -5.1150   -1.9200   -2.8730 nh        1 3CB     -0.964800
     20 N3         -4.2080   -0.1950   -4.3090 n2        1 3CB     -0.846100
     21 C1         -2.3720    0.6690    1.9630 c3        1 3CB     -0.081700
     22 C4         -2.7970    1.7600    0.9920 c3        1 3CB     -0.084400
     23 N4         -0.4330   -0.7470    2.6480 n3        1 3CB     -0.912100
     24 C5         -0.9530    0.1330    1.6450 c3        1 3CB      0.193500
     25 O4          1.3850   -1.5610    4.0840 o         1 3CB     -0.647800
     26 O3          1.5470    0.6550    3.1480 o         1 3CB     -0.647800
     27 C9         -0.1840    0.3000    5.0040 c3        1 3CB     -0.239300
     28 C6         -1.9450    3.0010    1.0730 c3        1 3CB     -0.099100
     29 C8          0.6060    0.6160    6.2210 ca        1 3CB     -0.121300
     30 C7          0.2230    0.0830    7.4570 ca        1 3CB     -0.081000
     31 C12         0.9130    0.4250    8.6230 ca        1 3CB     -0.125600
     32 C10         2.0020    1.2960    8.5440 ca        1 3CB     -0.094000
     33 C11         2.3900    1.8270    7.3130 ca        1 3CB     -0.155000
     34 C13         1.6920    1.4990    6.1540 ca        1 3CB     -0.157000
     35 N2          0.4300   -0.5630  -10.6740 nh        1 3CB     -0.962800
     36 C14         0.4620   -0.1350    9.9660 c         1 3CB      0.909200
     37 O2          1.1380    0.1690   10.9890 o         1 3CB     -0.828800
     38 O5         -0.5690   -0.8650    9.9830 o         1 3CB     -0.828800
     39 H17        -0.2570    1.0990   -0.7230 hn        1 3CB      0.337500
     40 H18        -0.2850   -1.5420   -2.0160 h1        1 3CB      0.087700
     41 H191       -1.9770    0.8620   -3.0500 hc        1 3CB      0.069700
     42 H192       -1.4930   -0.5740   -4.0370 hc        1 3CB      0.069700
     43 H201       -2.5530   -2.0890   -2.2830 hc        1 3CB      0.068700
     44 H202       -3.1400   -0.6190   -1.4080 hc        1 3CB      0.068700
     45 H31         1.1900   -1.5750   -3.8220 hn        1 3CB      0.311500
     46 H321        2.9080    0.8320   -4.1440 h1        1 3CB      0.073200
     47 H322        3.4060   -0.9000   -4.4700 h1        1 3CB      0.073200
     48 H16         0.9610    1.7650   -5.5770 ha        1 3CB      0.145500
     49 H2          0.3320    2.0980   -7.9780 ha        1 3CB      0.140500
     50 H23         2.6690   -1.3890   -9.0520 ha        1 3CB      0.140500
     51 H24         3.2890   -1.7110   -6.6700 ha        1 3CB      0.145500
     52 HN1         1.0190    1.8020  -11.6030 hn        1 3CB      0.379400
     53 HN51       -6.0540   -1.7320   -3.1360 hn        1 3CB      0.396800
     54 HN52       -5.0130   -2.2720   -1.9500 hn        1 3CB      0.396800
     55 HN3        -5.0610   -0.2090   -4.8260 hn        1 3CB      0.378400
     56 H1         -2.3210    1.1310    2.9930 hc        1 3CB      0.062700
     57 H41        -3.8610    2.0370    1.2300 hc        1 3CB      0.042700
     58 H42        -2.7970    1.3610   -0.0570 hc        1 3CB      0.042700
     59 HN4        -0.8240   -1.6610    2.6120 hn        1 3CB      0.457800
     60 H5         -0.2600    1.0330    1.5990 h1        1 3CB      0.089700
     61 H91        -0.6840    1.2520    4.6720 h1        1 3CB      0.106700
     62 H92        -1.0200   -0.3890    5.3040 h1        1 3CB      0.106700
     63 H61        -2.4170    3.8260    0.4870 hc        1 3CB      0.038367
     64 H62        -1.8350    3.3380    2.1320 hc        1 3CB      0.038367
     65 H63        -0.9250    2.8230    0.6550 hc        1 3CB      0.038367
     66 H7         -0.6300   -0.6100    7.5450 ha        1 3CB      0.152000
     67 H10         2.5380    1.5480    9.4730 ha        1 3CB      0.154000
     68 H11         3.2490    2.5110    7.2540 ha        1 3CB      0.111000
     69 H13         1.9950    1.9270    5.1860 ha        1 3CB      0.128000
     70 HN21        0.4580   -0.6380  -11.6630 hn        1 3CB      0.399300
     71 HN22        0.5310   -1.4220  -10.1880 hn        1 3CB      0.399300
     72 C26         1.0670    0.5540  -10.0940 ce        1 3CB      0.653800
     73 C3         -3.4070   -0.4340    1.9940 c3        1 3CB     -0.094100
     74 H31A       -3.1590   -1.1880    2.7790 hc        1 3CB      0.041033
     75 H32        -4.4140   -0.0090    2.2250 hc        1 3CB      0.041033
     76 H33        -3.4560   -0.9580    1.0080 hc        1 3CB      0.041033
     77 S1          0.7470   -0.3620    3.7200 s6        1 3CB      1.438900
@<TRIPOS>BOND
     1    1    2 2   
     2    1    3 1   
     3    1   24 1   
     4    3    4 1   
     5    3   39 1   
     6    4    5 1   
     7    4    7 1   
     8    4   40 1   
     9    5    6 1   
    10    5   41 1   
    11    5   42 1   
    12    6   18 1   
    13    6   43 1   
    14    6   44 1   
    15    7    8 2   
    16    7    9 1   
    17    9   10 1   
    18    9   45 1   
    19   10   16 1   
    20   10   46 1   
    21   10   47 1   
    22   11   12 ar  
    23   11   16 ar  
    24   11   48 1   
    25   12   13 ar  
    26   12   49 1   
    27   13   14 ar  
    28   13   72 1   
    29   14   15 ar  
    30   14   50 1   
    31   15   16 ar  
    32   15   51 1   
    33   17   52 1   
    34   17   72 2   
    35   18   19 1   
    36   18   20 2   
    37   19   53 1   
    38   19   54 1   
    39   20   55 1   
    40   21   22 1   
    41   21   24 1   
    42   21   56 1   
    43   21   73 1   
    44   22   28 1   
    45   22   57 1   
    46   22   58 1   
    47   23   24 1   
    48   23   59 1   
    49   23   77 1   
    50   24   60 1   
    51   25   77 2   
    52   26   77 2   
    53   27   29 1   
    54   27   61 1   
    55   27   62 1   
    56   27   77 1   
    57   28   63 1   
    58   28   64 1   
    59   28   65 1   
    60   29   30 ar  
    61   29   34 ar  
    62   30   31 ar  
    63   30   66 1   
    64   31   32 ar  
    65   31   36 1   
    66   32   33 ar  
    67   32   67 1   
    68   33   34 ar  
    69   33   68 1   
    70   34   69 1   
    71   35   70 1   
    72   35   71 1   
    73   35   72 1   
    74   36   37 1   
    75   36   38 1   
    76   73   74 1   
    77   73   75 1   
    78   73   76 1   
@<TRIPOS>SUBSTRUCTURE
     1 3CB         1 TEMP              0 ****  ****    0 ROOT
