@<TRIPOS>MOLECULE
3CC
   49    44     1     0     0
SMALL
bcc


@<TRIPOS>ATOM
      1 C1          2.9230    0.5070   -3.2540 c1        1 3CC     -0.079500
      2 C2          4.2400    0.1140   -3.5280 c1        1 3CC     -0.832000
      3 C3          5.0240   -0.4660   -2.5200 c1        1 3CC     -0.013000
      4 C4          4.4930   -0.6510   -1.2400 c1        1 3CC     -0.079500
      5 C5          2.3940    0.3240   -1.9830 c1        1 3CC     -0.061500
      6 C6          3.1870   -0.2620   -0.9650 c1        1 3CC     -0.061500
      7 C7          2.4950    0.0030    0.3870 c2        1 3CC     -0.145000
      8 C8          1.2700    0.7810    0.1280 c3        1 3CC      0.025000
      9 C9          1.1170    0.9090   -1.3190 c2        1 3CC     -0.145000
     10 S1          4.9600    0.4710   -5.1170 s4        1 3CC      2.082800
     11 O1          4.0760    1.2660   -5.9210 o         1 3CC     -0.546400
     12 O2          6.0960    1.3530   -4.9910 o         1 3CC     -0.546400
     13 N1          5.3730   -0.9260   -5.8840 n2        1 3CC     -0.953000
     14 N2          0.1020    0.0780    0.6960 n3        1 3CC     -0.386000
     15 C10        -1.0780    0.8200    1.0620 c1        1 3CC      0.307000
     16 O3         -1.1090    2.0180    0.9030 o         1 3CC     -0.365000
     17 C11        -2.2380    0.1080    1.8110 c2        1 3CC     -0.115000
     18 C12        -2.7150    0.9940    2.9840 c3        1 3CC     -0.155500
     19 C13        -2.6450    0.2020    4.2830 c3        1 3CC     -0.159500
     20 C14        -3.5960    0.8180    5.3040 c3        1 3CC     -0.211000
     21 C15        -3.4080   -0.1270    0.8390 c3        1 3CC     -0.155500
     22 C16        -3.8920   -1.5760    0.9660 c3        1 3CC     -0.159500
     23 C17        -5.1380   -1.7770    0.1040 c3        1 3CC     -0.211000
     24 H1          2.3790    0.9100   -3.9550 ha        1 3CC      0.150000
     25 H3          5.9500   -0.7420   -2.7130 ha        1 3CC      0.152000
     26 H4          5.0390   -1.0540   -0.5390 ha        1 3CC      0.150000
     27 H71         3.0960    0.5140    0.9730 ha        1 3CC      0.107750
     28 H72         2.2640   -0.8440    0.8110 ha        1 3CC      0.107750
     29 H8          1.3490    1.6620    0.5280 h1        1 3CC      0.138000
     30 H91         0.3310    0.3860   -1.6100 ha        1 3CC      0.107750
     31 H92         1.0390    1.8460   -1.5500 ha        1 3CC      0.107750
     32 HN11        4.7300   -1.4720   -6.2050 hn        1 3CC      0.242000
     33 HN12        6.2490   -1.1490   -5.9830 hn        1 3CC      0.242000
     34 HN2         0.1460   -0.8170    0.8590 hn        1 3CC      0.222000
     35 H11        -1.9240   -0.7560    2.1590 ha        1 3CC      0.096000
     36 H121       -3.6400    1.2770    2.8240 hc        1 3CC      0.095750
     37 H122       -2.1350    1.7910    3.0530 hc        1 3CC      0.095750
     38 H131       -1.7290    0.2260    4.6330 hc        1 3CC      0.078500
     39 H132       -2.9030   -0.7240    4.1140 hc        1 3CC      0.078500
     40 H141       -4.5190    0.5100    5.1230 hc        1 3CC      0.074667
     41 H142       -3.3310    0.5440    6.2050 hc        1 3CC      0.074667
     42 H143       -3.5600    1.7940    5.2350 hc        1 3CC      0.074667
     43 H151       -4.1410    0.4820    1.0590 hc        1 3CC      0.095750
     44 H152       -3.1080    0.0400   -0.0830 hc        1 3CC      0.095750
     45 H161       -3.1880   -2.1810    0.6660 hc        1 3CC      0.078500
     46 H162       -4.1080   -1.7650    1.8970 hc        1 3CC      0.078500
     47 H171       -5.3860   -2.7280    0.1030 hc        1 3CC      0.074667
     48 H172       -4.9510   -1.4860   -0.8160 hc        1 3CC      0.074667
     49 H173       -5.8790   -1.2460    0.4700 hc        1 3CC      0.074667
@<TRIPOS>BOND
     1    1    5 1   
     2    1   24 1   
     3    2    3 1   
     4    2   10 1   
     5    3   25 1   
     6    4    6 1   
     7    4   26 1   
     8    5    6 1   
     9    7    8 1   
    10    7   27 1   
    11    7   28 1   
    12    8    9 1   
    13    8   14 1   
    14    8   29 1   
    15    9   30 1   
    16    9   31 1   
    17   10   11 1   
    18   10   12 1   
    19   13   32 1   
    20   13   33 1   
    21   14   15 1   
    22   14   34 1   
    23   15   16 1   
    24   17   18 1   
    25   17   21 1   
    26   17   35 1   
    27   18   19 1   
    28   18   36 1   
    29   18   37 1   
    30   19   20 1   
    31   19   38 1   
    32   19   39 1   
    33   20   40 1   
    34   20   41 1   
    35   20   42 1   
    36   21   22 1   
    37   21   43 1   
    38   21   44 1   
    39   22   23 1   
    40   22   45 1   
    41   22   46 1   
    42   23   47 1   
    43   23   48 1   
    44   23   49 1   
@<TRIPOS>SUBSTRUCTURE
     1 3CC         1 TEMP              0 ****  ****    0 ROOT
