@<TRIPOS>MOLECULE
3CC
   51    52     1     0     0
SMALL
bcc


@<TRIPOS>ATOM
      1 C1         -0.1890    0.2070   -0.1330 ca        1 3CC      0.025000
      2 C2          1.2030   -0.0400   -0.2400 ca        1 3CC     -0.523500
      3 C3          1.9220   -0.3620    0.9290 ca        1 3CC      0.035000
      4 C4          1.3020   -0.4490    2.1770 ca        1 3CC     -0.122000
      5 C5         -0.8090    0.1100    1.0950 ca        1 3CC     -0.121300
      6 C6         -0.0660   -0.2250    2.2550 ca        1 3CC      0.027700
      7 C7         -0.9480   -0.3150    3.4510 c3        1 3CC     -0.067100
      8 C8         -2.3910   -0.2250    2.8790 c3        1 3CC      0.112500
      9 C9         -2.2580    0.2760    1.4120 c3        1 3CC     -0.054100
     10 S1          1.9090   -0.1130   -1.6960 sy        1 3CC      1.478200
     11 O1          3.0800   -0.8350   -1.7170 o         1 3CC     -0.547800
     12 O2          1.0200   -0.0660   -2.7460 o         1 3CC     -0.547800
     13 N1          2.6170    1.6530   -1.7780 n4        1 3CC     -0.794500
     14 N2         -3.3140    0.6090    3.7050 n4        1 3CC     -0.693800
     15 C10        -3.7520   -0.0580    5.0240 c         1 3CC      0.558100
     16 O3         -3.0950   -1.0220    5.3650 o         1 3CC     -0.395100
     17 C11        -4.9590    0.5860    5.6730 c3        1 3CC     -0.119700
     18 C12        -6.2150   -0.0860    5.1190 c3        1 3CC     -0.090400
     19 C13        -7.4340    0.7990    5.2970 c3        1 3CC     -0.081400
     20 C14        -8.6680    0.1270    4.7470 c3        1 3CC     -0.101100
     21 C15        -4.8500    0.4240    7.1850 c3        1 3CC     -0.090400
     22 C16        -3.7720    1.3070    7.7760 c3        1 3CC     -0.081400
     23 C17        -3.6660    1.1060    9.2670 c3        1 3CC     -0.101100
     24 H1         -0.7750    0.4430   -1.0430 ha        1 3CC      0.182000
     25 H3          3.0050   -0.5860    0.8570 ha        1 3CC      0.183000
     26 H4          1.8900   -0.7150    3.0720 ha        1 3CC      0.190000
     27 H71        -0.7090    0.5080    4.1750 hc        1 3CC      0.112700
     28 H72        -0.8160   -1.2890    3.9980 hc        1 3CC      0.112700
     29 H8         -2.8330   -1.2680    2.8690 hx        1 3CC      0.131700
     30 H91        -2.5650    1.3470    1.2890 hc        1 3CC      0.095200
     31 H92        -2.8990   -0.3470    0.7350 hc        1 3CC      0.095200
     32 HN11        3.6320    1.6220   -1.8930 hn        1 3CC      0.464133
     33 HN12        2.2370    2.1510   -2.5850 hn        1 3CC      0.464133
     34 HN2        -4.1590    0.8090    3.1570 hn        1 3CC      0.458300
     35 H11        -4.9840    1.6870    5.4310 hc        1 3CC      0.088700
     36 H121       -6.3800   -1.0630    5.6480 hc        1 3CC      0.075200
     37 H122       -6.0840   -0.3110    4.0280 hc        1 3CC      0.075200
     38 H131       -7.2730    1.7780    4.7740 hc        1 3CC      0.042200
     39 H132       -7.5850    1.0240    6.3860 hc        1 3CC      0.042200
     40 H141       -8.5560   -0.0840    3.6570 hc        1 3CC      0.054367
     41 H142       -9.5560    0.7900    4.8880 hc        1 3CC      0.054367
     42 H143       -8.8640   -0.8380    5.2760 hc        1 3CC      0.054367
     43 H151       -5.8450    0.6960    7.6330 hc        1 3CC      0.075200
     44 H152       -4.6520   -0.6510    7.4410 hc        1 3CC      0.075200
     45 H161       -4.0000    2.3840    7.5590 hc        1 3CC      0.042200
     46 H162       -2.7870    1.0670    7.2940 hc        1 3CC      0.042200
     47 H171       -4.6320    1.3580    9.7680 hc        1 3CC      0.054367
     48 H172       -3.4100    0.0460    9.5080 hc        1 3CC      0.054367
     49 H173       -2.8690    1.7670    9.6870 hc        1 3CC      0.054367
     50 H13         2.4190    2.2100   -0.9520 hn        1 3CC      0.464133
     51 H22        -2.8640    1.5010    3.9360 hn        1 3CC      0.458300
@<TRIPOS>BOND
     1    1    2 ar  
     2    1    5 ar  
     3    1   24 1   
     4    2    3 ar  
     5    2   10 1   
     6    3    4 ar  
     7    3   25 1   
     8    4    6 ar  
     9    4   26 1   
    10    5    6 ar  
    11    5    9 1   
    12    6    7 1   
    13    7    8 1   
    14    7   27 1   
    15    7   28 1   
    16    8    9 1   
    17    8   14 1   
    18    8   29 1   
    19    9   30 1   
    20    9   31 1   
    21   10   11 2   
    22   10   12 2   
    23   10   13 1   
    24   13   32 1   
    25   13   33 1   
    26   13   50 1   
    27   14   15 1   
    28   14   34 1   
    29   14   51 1   
    30   15   16 2   
    31   15   17 1   
    32   17   18 1   
    33   17   21 1   
    34   17   35 1   
    35   18   19 1   
    36   18   36 1   
    37   18   37 1   
    38   19   20 1   
    39   19   38 1   
    40   19   39 1   
    41   20   40 1   
    42   20   41 1   
    43   20   42 1   
    44   21   22 1   
    45   21   43 1   
    46   21   44 1   
    47   22   23 1   
    48   22   45 1   
    49   22   46 1   
    50   23   47 1   
    51   23   48 1   
    52   23   49 1   
@<TRIPOS>SUBSTRUCTURE
     1 3CC         1 TEMP              0 ****  ****    0 ROOT
