@<TRIPOS>MOLECULE
3CC
   51    52     1     0     0
SMALL
bcc


@<TRIPOS>ATOM
      1 C1         -0.1900    0.2000   -0.1340 ca        1 3CC      0.025000
      2 C2          1.2040   -0.0400   -0.2390 ca        1 3CC     -0.523500
      3 C3          1.9250   -0.3490    0.9310 ca        1 3CC      0.035000
      4 C4          1.3060   -0.4330    2.1800 ca        1 3CC     -0.122000
      5 C5         -0.8080    0.1060    1.0960 ca        1 3CC     -0.121300
      6 C6         -0.0630   -0.2160    2.2570 ca        1 3CC      0.027700
      7 C7         -0.9440   -0.3050    3.4550 c3        1 3CC     -0.067100
      8 C8         -2.3870   -0.2280    2.8830 c3        1 3CC      0.112500
      9 C9         -2.2580    0.2650    1.4130 c3        1 3CC     -0.054100
     10 S1          1.9100   -0.1170   -1.6950 sy        1 3CC      1.478200
     11 O1          3.0850   -0.8320   -1.7120 o         1 3CC     -0.547800
     12 O2          1.0200   -0.0820   -2.7450 o         1 3CC     -0.547800
     13 N1          2.6060    1.6530   -1.7880 nz        1 3CC     -0.794500
     14 N2         -3.3150    0.6050    3.7030 ny        1 3CC     -0.693800
     15 C10        -3.7480   -0.0560    5.0270 c         1 3CC      0.558100
     16 O3         -3.0860   -1.0140    5.3740 o         1 3CC     -0.395100
     17 C11        -4.9590    0.5840    5.6730 c3        1 3CC     -0.119700
     18 C12        -6.2120   -0.0980    5.1240 c3        1 3CC     -0.090400
     19 C13        -7.4360    0.7800    5.2970 c3        1 3CC     -0.081400
     20 C14        -8.6650    0.0970    4.7520 c3        1 3CC     -0.101100
     21 C15        -4.8480    0.4330    7.1860 c3        1 3CC     -0.090400
     22 C16        -3.7750    1.3260    7.7710 c3        1 3CC     -0.081400
     23 C17        -3.6670    1.1350    9.2630 c3        1 3CC     -0.101100
     24 H1         -0.7770    0.4260   -1.0440 ha        1 3CC      0.182000
     25 H3          3.0100   -0.5670    0.8610 ha        1 3CC      0.183000
     26 H4          1.8970   -0.6890    3.0770 ha        1 3CC      0.190000
     27 H71        -0.8060   -1.2740    4.0070 hc        1 3CC      0.112700
     28 H72        -0.7100    0.5240    4.1730 hc        1 3CC      0.112700
     29 H8         -2.8230   -1.2730    2.8800 hx        1 3CC      0.131700
     30 H91        -2.8960   -0.3670    0.7400 hc        1 3CC      0.095200
     31 H92        -2.5720    1.3330    1.2830 hc        1 3CC      0.095200
     32 HN11        2.2230    2.1430   -2.5990 hn        1 3CC      0.464133
     33 HN12        2.4050    2.2130   -0.9660 hn        1 3CC      0.464133
     34 HN2        -2.8720    1.5020    3.9280 hn        1 3CC      0.458300
     35 H11        -4.9910    1.6840    5.4240 hc        1 3CC      0.088700
     36 H121       -6.3700   -1.0730    5.6590 hc        1 3CC      0.075200
     37 H122       -6.0800   -0.3290    4.0340 hc        1 3CC      0.075200
     38 H131       -7.5870    1.0100    6.3850 hc        1 3CC      0.042200
     39 H132       -7.2800    1.7570    4.7680 hc        1 3CC      0.042200
     40 H141       -9.5580    0.7560    4.8900 hc        1 3CC      0.054367
     41 H142       -8.5530   -0.1200    3.6630 hc        1 3CC      0.054367
     42 H143       -8.8550   -0.8650    5.2870 hc        1 3CC      0.054367
     43 H151       -5.8450    0.7020    7.6330 hc        1 3CC      0.075200
     44 H152       -4.6440   -0.6400    7.4480 hc        1 3CC      0.075200
     45 H161       -2.7890    1.0890    7.2890 hc        1 3CC      0.042200
     46 H162       -4.0100    2.4000    7.5480 hc        1 3CC      0.042200
     47 H171       -4.6340    1.3840    9.7630 hc        1 3CC      0.054367
     48 H172       -2.8740    1.8030    9.6780 hc        1 3CC      0.054367
     49 H173       -3.4050    0.0780    9.5100 hc        1 3CC      0.054367
     50 H13         3.6220    1.6270   -1.9030 hn        1 3CC      0.464133
     51 H22        -4.1620    0.7960    3.1550 hn        1 3CC      0.458300
@<TRIPOS>BOND
     1    1    2 ar  
     2    1    5 ar  
     3    1   24 1   
     4    2    3 ar  
     5    2   10 1   
     6    3    4 ar  
     7    3   25 1   
     8    4    6 ar  
     9    4   26 1   
    10    5    6 ar  
    11    5    9 1   
    12    6    7 1   
    13    7    8 1   
    14    7   27 1   
    15    7   28 1   
    16    8    9 1   
    17    8   14 1   
    18    8   29 1   
    19    9   30 1   
    20    9   31 1   
    21   10   11 2   
    22   10   12 2   
    23   10   13 1   
    24   13   32 1   
    25   13   33 1   
    26   13   50 1   
    27   14   15 1   
    28   14   34 1   
    29   14   51 1   
    30   15   16 2   
    31   15   17 1   
    32   17   18 1   
    33   17   21 1   
    34   17   35 1   
    35   18   19 1   
    36   18   36 1   
    37   18   37 1   
    38   19   20 1   
    39   19   38 1   
    40   19   39 1   
    41   20   40 1   
    42   20   41 1   
    43   20   42 1   
    44   21   22 1   
    45   21   43 1   
    46   21   44 1   
    47   22   23 1   
    48   22   45 1   
    49   22   46 1   
    50   23   47 1   
    51   23   48 1   
    52   23   49 1   
@<TRIPOS>SUBSTRUCTURE
     1 3CC         1 TEMP              0 ****  ****    0 ROOT
