@<TRIPOS>MOLECULE
3CC
   49    50     1     0     0
SMALL
bcc


@<TRIPOS>ATOM
      1 C1         -2.7490    0.9160    0.2850 ca        1 3CC     -0.011000
      2 C2         -3.8970    0.2300   -0.1470 ca        1 3CC     -0.387500
      3 C3         -3.8120   -1.1390   -0.4190 ca        1 3CC     -0.013000
      4 C4         -2.6100   -1.8390   -0.2830 ca        1 3CC     -0.148000
      5 C5         -1.5540    0.2340    0.4230 ca        1 3CC     -0.115300
      6 C6         -1.4820   -1.1490    0.1350 ca        1 3CC     -0.022300
      7 C7         -0.1070   -1.6750    0.3500 c3        1 3CC     -0.066100
      8 C8          0.7290   -0.4630    0.8710 c3        1 3CC      0.101700
      9 C9         -0.2360    0.7650    0.8650 c3        1 3CC     -0.052100
     10 S1         -5.3690    1.0460   -0.2960 sy        1 3CC      1.527200
     11 O1         -6.4150    0.1130   -0.1300 o         1 3CC     -0.658800
     12 O2         -5.3470    2.1680    0.5590 o         1 3CC     -0.658800
     13 N1         -5.3550    1.5490   -1.8180 n3        1 3CC     -1.026700
     14 N2          1.9370   -0.2420    0.1250 n         1 3CC     -0.576900
     15 C10         3.1970   -0.3410    0.6840 c         1 3CC      0.663100
     16 O3          3.3450   -0.6380    1.8860 o         1 3CC     -0.604100
     17 C11         4.3880   -0.0460   -0.2300 c3        1 3CC     -0.125700
     18 C12         4.7910    1.4090   -0.0290 c3        1 3CC     -0.076900
     19 C13         5.6170    1.9370   -1.1830 c3        1 3CC     -0.080900
     20 C14         5.9970    3.3800   -0.9670 c3        1 3CC     -0.093100
     21 C15         5.5320   -0.9940    0.1000 c3        1 3CC     -0.076900
     22 C16         5.2540   -2.4020   -0.3830 c3        1 3CC     -0.080900
     23 C17         6.3890   -3.3330   -0.0420 c3        1 3CC     -0.093100
     24 H1         -2.8170    1.9900    0.5320 ha        1 3CC      0.156000
     25 H3         -4.7230   -1.6830   -0.7290 ha        1 3CC      0.152000
     26 H4         -2.5660   -2.9160   -0.4980 ha        1 3CC      0.144000
     27 H71        -0.1050   -2.4900    1.1180 hc        1 3CC      0.070700
     28 H72         0.3040   -2.1020   -0.5990 hc        1 3CC      0.070700
     29 H8          1.0230   -0.6750    1.9430 h1        1 3CC      0.098700
     30 H91         0.1130    1.5780    0.1790 hc        1 3CC      0.066200
     31 H92        -0.3000    1.1960    1.8960 hc        1 3CC      0.066200
     32 HN11       -5.0000    2.4270   -2.1000 hn        1 3CC      0.446800
     33 HN12       -5.7280    1.0280   -2.5700 hn        1 3CC      0.446800
     34 HN2         1.8440    0.0050   -0.8300 hn        1 3CC      0.308500
     35 H11         4.1000   -0.1990   -1.3080 hc        1 3CC      0.056700
     36 H121        3.8680    2.0400    0.0770 hc        1 3CC      0.056450
     37 H122        5.3690    1.5030    0.9290 hc        1 3CC      0.056450
     38 H131        6.5460    1.3180   -1.3000 hc        1 3CC      0.039200
     39 H132        5.0350    1.8410   -2.1380 hc        1 3CC      0.039200
     40 H141        6.5980    3.4930   -0.0320 hc        1 3CC      0.035367
     41 H142        6.6050    3.7520   -1.8250 hc        1 3CC      0.035367
     42 H143        5.0850    4.0190   -0.8760 hc        1 3CC      0.035367
     43 H151        6.4720   -0.6130   -0.3800 hc        1 3CC      0.056450
     44 H152        5.6950   -1.0030    1.2110 hc        1 3CC      0.056450
     45 H161        4.3060   -2.7730    0.0910 hc        1 3CC      0.039200
     46 H162        5.0920   -2.3970   -1.4940 hc        1 3CC      0.039200
     47 H171        6.1660   -4.3650   -0.4060 hc        1 3CC      0.035367
     48 H172        7.3390   -2.9880   -0.5180 hc        1 3CC      0.035367
     49 H173        6.5450   -3.3740    1.0630 hc        1 3CC      0.035367
@<TRIPOS>BOND
     1    1    2 ar  
     2    1    5 ar  
     3    1   24 1   
     4    2    3 ar  
     5    2   10 1   
     6    3    4 ar  
     7    3   25 1   
     8    4    6 ar  
     9    4   26 1   
    10    5    6 ar  
    11    5    9 1   
    12    6    7 1   
    13    7    8 1   
    14    7   27 1   
    15    7   28 1   
    16    8    9 1   
    17    8   14 1   
    18    8   29 1   
    19    9   30 1   
    20    9   31 1   
    21   10   11 2   
    22   10   12 2   
    23   10   13 1   
    24   13   32 1   
    25   13   33 1   
    26   14   15 1   
    27   14   34 1   
    28   15   16 2   
    29   15   17 1   
    30   17   18 1   
    31   17   21 1   
    32   17   35 1   
    33   18   19 1   
    34   18   36 1   
    35   18   37 1   
    36   19   20 1   
    37   19   38 1   
    38   19   39 1   
    39   20   40 1   
    40   20   41 1   
    41   20   42 1   
    42   21   22 1   
    43   21   43 1   
    44   21   44 1   
    45   22   23 1   
    46   22   45 1   
    47   22   46 1   
    48   23   47 1   
    49   23   48 1   
    50   23   49 1   
@<TRIPOS>SUBSTRUCTURE
     1 3CC         1 TEMP              0 ****  ****    0 ROOT
