@<TRIPOS>MOLECULE
3CC
   51    52     1     0     0
SMALL
bcc


@<TRIPOS>ATOM
      1 C1         -0.1860    0.1920   -0.1310 ca        1 3CC      0.025000
      2 C2          1.2080   -0.0510   -0.2340 ca        1 3CC     -0.523500
      3 C3          1.9260   -0.3640    0.9380 ca        1 3CC      0.035000
      4 C4          1.3040   -0.4460    2.1850 ca        1 3CC     -0.122000
      5 C5         -0.8070    0.1000    1.0970 ca        1 3CC     -0.121300
      6 C6         -0.0640   -0.2260    2.2600 ca        1 3CC      0.027700
      7 C7         -0.9470   -0.3120    3.4560 c3        1 3CC     -0.067100
      8 C8         -2.3890   -0.2300    2.8820 c3        1 3CC      0.112500
      9 C9         -2.2570    0.2620    1.4120 c3        1 3CC     -0.054100
     10 S1          1.9160   -0.1300   -1.6890 sy        1 3CC      1.478200
     11 O1          3.0880   -0.8490   -1.7050 o         1 3CC     -0.547800
     12 O2          1.0270   -0.0920   -2.7400 o         1 3CC     -0.547800
     13 N1          2.6170    1.6380   -1.7800 n4        1 3CC     -0.794500
     14 N2         -3.3160    0.6060    3.7010 n4        1 3CC     -0.693800
     15 C10        -3.7530   -0.0540    5.0240 c         1 3CC      0.558100
     16 O3         -3.0950   -1.0160    5.3710 o         1 3CC     -0.395100
     17 C11        -4.9610    0.5920    5.6690 c3        1 3CC     -0.119700
     18 C12        -6.2170   -0.0850    5.1210 c3        1 3CC     -0.090400
     19 C13        -7.4370    0.7980    5.2930 c3        1 3CC     -0.081400
     20 C14        -8.6690    0.1210    4.7480 c3        1 3CC     -0.101100
     21 C15        -4.8520    0.4390    7.1830 c3        1 3CC     -0.090400
     22 C16        -3.7750    1.3280    7.7680 c3        1 3CC     -0.081400
     23 C17        -3.6670    1.1360    9.2600 c3        1 3CC     -0.101100
     24 H1         -0.7710    0.4200   -1.0420 ha        1 3CC      0.182000
     25 H3          3.0100   -0.5850    0.8680 ha        1 3CC      0.183000
     26 H4          1.8930   -0.7040    3.0830 ha        1 3CC      0.190000
     27 H71        -0.8130   -1.2820    4.0080 hc        1 3CC      0.112700
     28 H72        -0.7120    0.5160    4.1750 hc        1 3CC      0.112700
     29 H8         -2.8290   -1.2740    2.8780 hx        1 3CC      0.131700
     30 H91        -2.5670    1.3310    1.2820 hc        1 3CC      0.095200
     31 H92        -2.8950   -0.3680    0.7380 hc        1 3CC      0.095200
     32 HN11        3.6330    1.6090   -1.8940 hn        1 3CC      0.464133
     33 HN12        2.2370    2.1290   -2.5910 hn        1 3CC      0.464133
     34 HN2        -4.1620    0.7990    3.1520 hn        1 3CC      0.458300
     35 H11        -4.9880    1.6910    5.4200 hc        1 3CC      0.088700
     36 H121       -6.3800   -1.0600    5.6550 hc        1 3CC      0.075200
     37 H122       -6.0850   -0.3170    4.0300 hc        1 3CC      0.075200
     38 H131       -7.5870    1.0290    6.3810 hc        1 3CC      0.042200
     39 H132       -7.2770    1.7750    4.7640 hc        1 3CC      0.042200
     40 H141       -8.8640   -0.8410    5.2830 hc        1 3CC      0.054533
     41 H142       -9.5590    0.7840    4.8850 hc        1 3CC      0.054533
     42 H143       -8.5570   -0.0970    3.6590 hc        1 3CC      0.054533
     43 H151       -5.8470    0.7130    7.6290 hc        1 3CC      0.075200
     44 H152       -4.6520   -0.6340    7.4450 hc        1 3CC      0.075200
     45 H161       -4.0050    2.4030    7.5450 hc        1 3CC      0.042200
     46 H162       -2.7890    1.0860    7.2860 hc        1 3CC      0.042200
     47 H171       -4.6340    1.3900    9.7600 hc        1 3CC      0.054533
     48 H172       -2.8710    1.8000    9.6750 hc        1 3CC      0.054533
     49 H173       -3.4100    0.0780    9.5070 hc        1 3CC      0.054533
     50 H13         2.4160    2.1980   -0.9580 hn        1 3CC      0.464133
     51 H22        -2.8700    1.5010    3.9270 hn        1 3CC      0.458300
@<TRIPOS>BOND
     1    1    2 ar  
     2    1    5 ar  
     3    1   24 1   
     4    2    3 ar  
     5    2   10 1   
     6    3    4 ar  
     7    3   25 1   
     8    4    6 ar  
     9    4   26 1   
    10    5    6 ar  
    11    5    9 1   
    12    6    7 1   
    13    7    8 1   
    14    7   27 1   
    15    7   28 1   
    16    8    9 1   
    17    8   14 1   
    18    8   29 1   
    19    9   30 1   
    20    9   31 1   
    21   10   11 2   
    22   10   12 2   
    23   10   13 1   
    24   13   32 1   
    25   13   33 1   
    26   13   50 1   
    27   14   15 1   
    28   14   34 1   
    29   14   51 1   
    30   15   16 2   
    31   15   17 1   
    32   17   18 1   
    33   17   21 1   
    34   17   35 1   
    35   18   19 1   
    36   18   36 1   
    37   18   37 1   
    38   19   20 1   
    39   19   38 1   
    40   19   39 1   
    41   20   40 1   
    42   20   41 1   
    43   20   42 1   
    44   21   22 1   
    45   21   43 1   
    46   21   44 1   
    47   22   23 1   
    48   22   45 1   
    49   22   46 1   
    50   23   47 1   
    51   23   48 1   
    52   23   49 1   
@<TRIPOS>SUBSTRUCTURE
     1 3CC         1 TEMP              0 ****  ****    0 ROOT
