@<TRIPOS>MOLECULE
3CE
   14    14     1     0     0
SMALL
bcc


@<TRIPOS>ATOM
      1 C1          1.6960   -0.1390   -0.0720 ca        1 3CE      0.119100
      2 O1          2.7860   -0.9690   -0.1560 oh        1 3CE     -0.491100
      3 CL1        -2.2990   -0.2890    0.2010 cl        1 3CE     -0.091400
      4 C2          0.3720   -0.6300    0.0140 ca        1 3CE      0.049100
      5 O2          0.2480   -2.0020    0.0080 oh        1 3CE     -0.512100
      6 C3         -0.6960    0.2740    0.0970 ca        1 3CE     -0.026600
      7 C4         -0.4480    1.6500    0.0940 ca        1 3CE     -0.125000
      8 C5          0.8590    2.1220    0.0090 ca        1 3CE     -0.120000
      9 C6          1.9350    1.2400   -0.0740 ca        1 3CE     -0.132000
     10 HO1         2.4710   -1.8870   -0.1440 ho        1 3CE      0.440000
     11 HO2        -0.6950   -2.2220    0.0710 ho        1 3CE      0.440000
     12 H4         -1.2890    2.3570    0.1590 ha        1 3CE      0.150000
     13 H5          1.0460    3.2070    0.0080 ha        1 3CE      0.143000
     14 H6          2.9700    1.6060   -0.1420 ha        1 3CE      0.157000
@<TRIPOS>BOND
     1    1    2 1   
     2    1    4 ar  
     3    1    9 ar  
     4    2   10 1   
     5    3    6 1   
     6    4    5 1   
     7    4    6 ar  
     8    5   11 1   
     9    6    7 ar  
    10    7    8 ar  
    11    7   12 1   
    12    8    9 ar  
    13    8   13 1   
    14    9   14 1   
@<TRIPOS>SUBSTRUCTURE
     1 3CE         1 TEMP              0 ****  ****    0 ROOT
