@<TRIPOS>MOLECULE
3CE
   14    12     1     0     0
SMALL
bcc


@<TRIPOS>ATOM
      1 C1         -0.7440    0.0000   -0.7750 c1        1 3CE      0.074000
      2 O1         -1.4470   -0.0250   -1.9940 o         1 3CE     -0.245000
      3 CL1         3.0790    0.0160    0.4250 cl        1 3CE     -0.013000
      4 C2          0.6420    0.0000   -0.7750 c2        1 3CE      0.004000
      5 O2          1.3460    0.0230   -1.9940 oh        1 3CE     -0.266000
      6 C3          1.3350    0.0000    0.4250 c2        1 3CE     -0.105000
      7 C4          0.6420    0.0000    1.6260 c2        1 3CE     -0.125000
      8 C5         -0.7440    0.0000    1.6260 c1        1 3CE     -0.120000
      9 C6         -1.4370    0.0000    0.4250 c1        1 3CE     -0.132000
     10 HO1        -1.7780    0.7820   -2.1620 ho        1 3CE      0.239000
     11 HO2         1.6180   -0.7980   -2.1940 ho        1 3CE      0.239000
     12 H4          1.1310    0.0000    2.4710 ha        1 3CE      0.150000
     13 H5         -1.2320    0.0000    2.4710 ha        1 3CE      0.143000
     14 H6         -2.4130    0.0000    0.4250 ha        1 3CE      0.157000
@<TRIPOS>BOND
     1    1    4 1   
     2    1    9 1   
     3    2   10 1   
     4    3    6 1   
     5    4    5 1   
     6    4    6 1   
     7    5   11 1   
     8    6    7 1   
     9    7    8 1   
    10    7   12 1   
    11    8   13 1   
    12    9   14 1   
@<TRIPOS>SUBSTRUCTURE
     1 3CE         1 TEMP              0 ****  ****    0 ROOT
