@<TRIPOS>MOLECULE
3CE
   14    14     1     0     0
SMALL
bcc


@<TRIPOS>ATOM
      1 C1         -0.1440   -0.0810    0.0670 ca        1 3CE      0.119100
      2 O1         -0.9490   -0.1670   -1.0430 oh        1 3CE     -0.491100
      3 CL1         3.7210    0.2260    1.0740 cl        1 3CE     -0.091400
      4 C2          1.2630    0.0190   -0.0220 ca        1 3CE      0.049100
      5 O2          1.7780    0.0250   -1.3000 oh        1 3CE     -0.512100
      6 C3          2.0250    0.1040    1.1510 ca        1 3CE     -0.026600
      7 C4          1.3920    0.0890    2.3980 ca        1 3CE     -0.125000
      8 C5          0.0050   -0.0100    2.4740 ca        1 3CE     -0.120000
      9 C6         -0.7700   -0.0960    1.3190 ca        1 3CE     -0.132000
     10 HO1        -0.3830   -0.1460   -1.8310 ho        1 3CE      0.440000
     11 HO2         2.7430    0.0970   -1.2390 ho        1 3CE      0.440000
     12 H4          1.9930    0.1560    3.3180 ha        1 3CE      0.150000
     13 H5         -0.4860   -0.0220    3.4580 ha        1 3CE      0.143000
     14 H6         -1.8660   -0.1740    1.3710 ha        1 3CE      0.157000
@<TRIPOS>BOND
     1    1    2 1   
     2    1    4 ar  
     3    1    9 ar  
     4    2   10 1   
     5    3    6 1   
     6    4    5 1   
     7    4    6 ar  
     8    5   11 1   
     9    6    7 ar  
    10    7    8 ar  
    11    7   12 1   
    12    8    9 ar  
    13    8   13 1   
    14    9   14 1   
@<TRIPOS>SUBSTRUCTURE
     1 3CE         1 TEMP              0 ****  ****    0 ROOT
