@<TRIPOS>MOLECULE
3CF
   23    23     1     0     0
SMALL
bcc


@<TRIPOS>ATOM
      1 C           3.3220   -0.0500    0.1370 c         1 3CF      0.887600
      2 N           1.5410   -1.3700   -1.1150 n3        1 3CF     -0.887800
      3 OXT         3.6220    0.9590    0.8330 o         1 3CF     -0.838300
      4 C1         -3.9470   -0.8360    0.4260 cg        1 3CF      0.259800
      5 N1         -4.8560   -1.5430    0.5990 n1        1 3CF     -0.416800
      6 CA          1.8460   -0.1490   -0.3830 c3        1 3CF      0.021500
      7 CB          0.9080    0.0860    0.8080 c3        1 3CF     -0.040100
      8 CG         -0.4620    0.4850    0.3930 ca        1 3CF     -0.030300
      9 CZ         -3.0470    1.2880   -0.3730 ca        1 3CF     -0.118000
     10 CD1        -1.5530   -0.3690    0.5930 ca        1 3CF     -0.091000
     11 CD2        -0.6780    1.7390   -0.1980 ca        1 3CF     -0.105000
     12 CE1        -2.8410    0.0320    0.2150 ca        1 3CF     -0.039000
     13 CE2        -1.9600    2.1340   -0.5770 ca        1 3CF     -0.143000
     14 O           4.1250   -0.9680   -0.1890 o         1 3CF     -0.838300
     15 HN          2.2890   -1.5140   -1.7740 hn        1 3CF      0.332800
     16 HNA         1.5820   -2.1440   -0.4750 hn        1 3CF      0.332800
     17 HA          1.7120    0.7050   -1.1090 h1        1 3CF      0.042700
     18 HB          0.8680   -0.8300    1.4530 hc        1 3CF      0.065200
     19 HBA         1.3680    0.9130    1.4210 hc        1 3CF      0.065200
     20 HZ         -4.0580    1.5990   -0.6710 ha        1 3CF      0.125000
     21 HD1        -1.3940   -1.3610    1.0410 ha        1 3CF      0.141000
     22 HD2         0.1820    2.4070   -0.3630 ha        1 3CF      0.150000
     23 HE2        -2.1150    3.1180   -1.0420 ha        1 3CF      0.123000
@<TRIPOS>BOND
     1    1    3 1   
     2    1    6 1   
     3    1   14 1   
     4    2    6 1   
     5    2   15 1   
     6    2   16 1   
     7    4    5 3   
     8    4   12 1   
     9    6    7 1   
    10    6   17 1   
    11    7    8 1   
    12    7   18 1   
    13    7   19 1   
    14    8   10 ar  
    15    8   11 ar  
    16    9   12 ar  
    17    9   13 ar  
    18    9   20 1   
    19   10   12 ar  
    20   10   21 1   
    21   11   13 ar  
    22   11   22 1   
    23   13   23 1   
@<TRIPOS>SUBSTRUCTURE
     1 3CF         1 TEMP              0 ****  ****    0 ROOT
