@<TRIPOS>MOLECULE
3CH
   13    13     1     0     0
SMALL
bcc


@<TRIPOS>ATOM
      1 C4          1.4360   -0.0460   -0.4860 ca        1 3CH     -0.160000
      2 C5          1.8890   -0.0500    0.8350 ca        1 3CH     -0.089000
      3 C3          0.0660    0.0480   -0.7410 ca        1 3CH      0.055400
      4 C6          0.9970    0.0380    1.8970 ca        1 3CH     -0.156000
      5 C2         -0.8570    0.1380    0.3050 ca        1 3CH     -0.212000
      6 C1         -0.3790    0.1320    1.6230 ca        1 3CH      0.134100
      7 OH         -1.2160    0.2170    2.7110 oh        1 3CH     -0.494100
      8 CL         -0.4960    0.0530   -2.3460 cl        1 3CH     -0.092400
      9 HC4         2.1530   -0.1170   -1.3170 ha        1 3CH      0.149000
     10 HC5         2.9690   -0.1240    1.0360 ha        1 3CH      0.140000
     11 HC6         1.3420    0.0360    2.9400 ha        1 3CH      0.154000
     12 HC2        -1.9340    0.2110    0.1020 ha        1 3CH      0.148000
     13 HO         -2.1260    0.2760    2.3860 ho        1 3CH      0.422000
@<TRIPOS>BOND
     1    1    2 ar  
     2    1    3 ar  
     3    1    9 1   
     4    2    4 ar  
     5    2   10 1   
     6    3    5 ar  
     7    3    8 1   
     8    4    6 ar  
     9    4   11 1   
    10    5    6 ar  
    11    5   12 1   
    12    6    7 1   
    13    7   13 1   
@<TRIPOS>SUBSTRUCTURE
     1 3CH         1 TEMP              0 ****  ****    0 ROOT
