@<TRIPOS>MOLECULE
3CH
   13    13     1     0     0
SMALL
bcc


@<TRIPOS>ATOM
      1 C4         -0.0160   -0.0550   -0.0160 ca        1 3CH     -0.160000
      2 C5          1.3800   -0.0560   -0.0550 ca        1 3CH     -0.089000
      3 C3         -0.6680    0.0480    1.2150 ca        1 3CH      0.055400
      4 C6          2.1280    0.0440    1.1130 ca        1 3CH     -0.156000
      5 C2          0.0560    0.1490    2.4060 ca        1 3CH     -0.212000
      6 C1          1.4560    0.1460    2.3430 ca        1 3CH      0.134100
      7 OH          2.2450    0.2420    3.4650 oh        1 3CH     -0.494100
      8 CL         -2.3670    0.0500    1.2730 cl        1 3CH     -0.092400
      9 HC4        -0.5950   -0.1340   -0.9480 ha        1 3CH      0.149000
     10 HC5         1.8950   -0.1370   -1.0250 ha        1 3CH      0.140000
     11 HC6         3.2260    0.0440    1.0930 ha        1 3CH      0.154000
     12 HC2        -0.4600    0.2300    3.3740 ha        1 3CH      0.148000
     13 HO          1.6630    0.3060    4.2370 ho        1 3CH      0.422000
@<TRIPOS>BOND
     1    1    2 ar  
     2    1    3 ar  
     3    1    9 1   
     4    2    4 ar  
     5    2   10 1   
     6    3    5 ar  
     7    3    8 1   
     8    4    6 ar  
     9    4   11 1   
    10    5    6 ar  
    11    5   12 1   
    12    6    7 1   
    13    7   13 1   
@<TRIPOS>SUBSTRUCTURE
     1 3CH         1 TEMP              0 ****  ****    0 ROOT
