@<TRIPOS>MOLECULE
3CH
   13    10     1     0     0
SMALL
bcc


@<TRIPOS>ATOM
      1 C4         -0.7670    0.0610   -1.4370 c1        1 3CH     -0.102500
      2 C5          0.6190    0.0610   -1.4370 c1        1 3CH     -0.065000
      3 C3         -1.4600    0.0610   -0.2370 c1        1 3CH      0.066900
      4 C6          1.3120    0.0610   -0.2370 c1        1 3CH     -0.065000
      5 C2         -0.7670    0.0610    0.9640 c1        1 3CH     -0.154500
      6 C1          0.6190    0.0610    0.9640 c1        1 3CH      0.117600
      7 OH          1.3220    0.0770    2.1820 oh        1 3CH     -0.477600
      8 CL         -3.2040    0.0690   -0.2370 cl        1 3CH     -0.103900
      9 HC4        -1.2550    0.0610   -2.2820 ha        1 3CH      0.091500
     10 HC5         1.1070    0.0610   -2.2820 ha        1 3CH      0.089500
     11 HC6         2.2880    0.0610   -0.2370 ha        1 3CH      0.089500
     12 HC2        -1.2550    0.0610    1.8090 ha        1 3CH      0.090500
     13 HO          1.4410   -0.7560    2.4660 ho        1 3CH      0.422000
@<TRIPOS>BOND
     1    1    3 3   
     2    1    9 1   
     3    2    4 3   
     4    2   10 1   
     5    3    8 1   
     6    4   11 1   
     7    5    6 3   
     8    5   12 1   
     9    6    7 1   
    10    7   13 1   
@<TRIPOS>SUBSTRUCTURE
     1 3CH         1 TEMP              0 ****  ****    0 ROOT
