@<TRIPOS>MOLECULE
3CJ
   21    21     1     0     0
SMALL
bcc


@<TRIPOS>ATOM
      1 C7         -0.0130   -0.0750    0.0020 c3        1 3CJ     -0.096100
      2 C6          1.4890   -0.2100    0.0240 c3        1 3CJ     -0.081400
      3 C5          2.0400    0.1160    1.3980 c3        1 3CJ     -0.060200
      4 C2          3.5410    0.1070    1.4270 cc        1 3CJ      0.090400
      5 C3          4.2540    1.2320    1.7230 cd        1 3CJ     -0.308200
      6 N1          4.2000   -1.0890    1.1580 n         1 3CJ     -0.425100
      7 C1          5.5960   -1.1960    1.1690 c         1 3CJ      0.551400
      8 S1          6.3020   -2.6020    0.8430 s         1 3CJ     -0.503400
      9 N2          6.3200   -0.0490    1.4730 n         1 3CJ     -0.541500
     10 C4          5.7180    1.1980    1.7600 c         1 3CJ      0.703700
     11 O1          6.4500    2.1660    2.0190 o         1 3CJ     -0.599500
     12 H1         -0.4830   -0.7630    0.7450 hc        1 3CJ      0.041033
     13 H2         -0.3200    0.9710    0.2470 hc        1 3CJ      0.041033
     14 H3         -0.4050   -0.3280   -1.0130 hc        1 3CJ      0.041033
     15 H4          1.9410    0.4810   -0.7360 hc        1 3CJ      0.048700
     16 H5          1.7730   -1.2560   -0.2680 hc        1 3CJ      0.048700
     17 H6          1.6830    1.1330    1.7130 hc        1 3CJ      0.071700
     18 H7          1.6470   -0.6220    2.1500 hc        1 3CJ      0.071700
     19 H8          3.7800    2.1960    1.9430 ha        1 3CJ      0.180000
     20 H10         7.3180   -0.1290    1.4840 hn        1 3CJ      0.363500
     21 H9          3.6840   -1.9140    0.9310 hn        1 3CJ      0.363500
@<TRIPOS>BOND
     1    1    2 1   
     2    1   12 1   
     3    1   13 1   
     4    1   14 1   
     5    2    3 1   
     6    2   15 1   
     7    2   16 1   
     8    3    4 1   
     9    3   17 1   
    10    3   18 1   
    11    4    5 2   
    12    4    6 1   
    13    5   10 1   
    14    5   19 1   
    15    6    7 1   
    16    6   21 1   
    17    7    8 2   
    18    7    9 1   
    19    9   10 1   
    20    9   20 1   
    21   10   11 2   
@<TRIPOS>SUBSTRUCTURE
     1 3CJ         1 TEMP              0 ****  ****    0 ROOT
