@<TRIPOS>MOLECULE
3CJ
   21    21     1     0     0
SMALL
bcc


@<TRIPOS>ATOM
      1 C7         -0.0150   -0.1070    0.0120 c3        1 3CJ     -0.096100
      2 C6          1.4870   -0.2350    0.0330 c3        1 3CJ     -0.081400
      3 C5          2.0410    0.1210    1.3990 c3        1 3CJ     -0.060200
      4 C2          3.5410    0.1180    1.4230 cc        1 3CJ      0.090400
      5 C3          4.2520    1.2520    1.6910 cd        1 3CJ     -0.308200
      6 N1          4.2040   -1.0810    1.1790 n         1 3CJ     -0.425100
      7 C1          5.6010   -1.1830    1.1890 c         1 3CJ      0.551400
      8 S1          6.3100   -2.5930    0.8920 s         1 3CJ     -0.503400
      9 N2          6.3210   -0.0270    1.4640 n         1 3CJ     -0.541500
     10 C4          5.7160    1.2240    1.7240 c         1 3CJ      0.703700
     11 O1          6.4450    2.2000    1.9590 o         1 3CJ     -0.599500
     12 H1         -0.4800   -0.7830    0.7700 hc        1 3CJ      0.041033
     13 H2         -0.3270    0.9410    0.2390 hc        1 3CJ      0.041033
     14 H3         -0.4100   -0.3820   -0.9960 hc        1 3CJ      0.041033
     15 H4          1.7750   -1.2850   -0.2380 hc        1 3CJ      0.048700
     16 H5          1.9340    0.4430   -0.7420 hc        1 3CJ      0.048700
     17 H6          1.6810    1.1430    1.6940 hc        1 3CJ      0.071700
     18 H7          1.6530   -0.6030    2.1670 hc        1 3CJ      0.071700
     19 H8          3.7750    2.2200    1.8910 ha        1 3CJ      0.180000
     20 H10         7.3190   -0.1030    1.4730 hn        1 3CJ      0.363500
     21 H9          3.6900   -1.9130    0.9720 hn        1 3CJ      0.363500
@<TRIPOS>BOND
     1    1    2 1   
     2    1   12 1   
     3    1   13 1   
     4    1   14 1   
     5    2    3 1   
     6    2   15 1   
     7    2   16 1   
     8    3    4 1   
     9    3   17 1   
    10    3   18 1   
    11    4    5 2   
    12    4    6 1   
    13    5   10 1   
    14    5   19 1   
    15    6    7 1   
    16    6   21 1   
    17    7    8 2   
    18    7    9 1   
    19    9   10 1   
    20    9   20 1   
    21   10   11 2   
@<TRIPOS>SUBSTRUCTURE
     1 3CJ         1 TEMP              0 ****  ****    0 ROOT
