@<TRIPOS>MOLECULE
3CJ
   21    21     1     0     0
SMALL
bcc


@<TRIPOS>ATOM
      1 C7         -0.0160   -0.1010    0.0150 c3        1 3CJ     -0.096100
      2 C6          1.4860   -0.2300    0.0330 c3        1 3CJ     -0.081400
      3 C5          2.0410    0.1190    1.4000 c3        1 3CJ     -0.060200
      4 C2          3.5420    0.1160    1.4230 cc        1 3CJ      0.090400
      5 C3          4.2530    1.2480    1.6970 cd        1 3CJ     -0.308200
      6 N1          4.2030   -1.0830    1.1730 ns        1 3CJ     -0.425100
      7 C1          5.6000   -1.1850    1.1810 c         1 3CJ      0.551400
      8 S1          6.3090   -2.5950    0.8760 s         1 3CJ     -0.503400
      9 N2          6.3220   -0.0310    1.4610 ns        1 3CJ     -0.541500
     10 C4          5.7180    1.2180    1.7280 c         1 3CJ      0.703700
     11 O1          6.4470    2.1940    1.9680 o         1 3CJ     -0.599500
     12 H1         -0.4810   -0.7790    0.7700 hc        1 3CJ      0.041033
     13 H2         -0.3260    0.9470    0.2450 hc        1 3CJ      0.041033
     14 H3         -0.4120   -0.3720   -0.9940 hc        1 3CJ      0.041033
     15 H4          1.9330    0.4510   -0.7390 hc        1 3CJ      0.048700
     16 H5          1.7730   -1.2790   -0.2420 hc        1 3CJ      0.048700
     17 H6          1.6830    1.1410    1.7000 hc        1 3CJ      0.071700
     18 H7          1.6530   -0.6070    2.1650 hc        1 3CJ      0.071700
     19 H8          3.7770    2.2150    1.9020 ha        1 3CJ      0.180000
     20 H10         7.3200   -0.1080    1.4690 hn        1 3CJ      0.363500
     21 H9          3.6890   -1.9130    0.9630 hn        1 3CJ      0.363500
@<TRIPOS>BOND
     1    1    2 1   
     2    1   12 1   
     3    1   13 1   
     4    1   14 1   
     5    2    3 1   
     6    2   15 1   
     7    2   16 1   
     8    3    4 1   
     9    3   17 1   
    10    3   18 1   
    11    4    5 2   
    12    4    6 1   
    13    5   10 1   
    14    5   19 1   
    15    6    7 1   
    16    6   21 1   
    17    7    8 2   
    18    7    9 1   
    19    9   10 1   
    20    9   20 1   
    21   10   11 2   
@<TRIPOS>SUBSTRUCTURE
     1 3CJ         1 TEMP              0 ****  ****    0 ROOT
