@<TRIPOS>MOLECULE
3CK
   45    46     1     0     0
SMALL
bcc


@<TRIPOS>ATOM
      1 C1         -0.4320    0.3440    0.4900 c3        1 3CK      0.324900
      2 C2          1.0150    0.3430   -0.0430 c3        1 3CK      0.081100
      3 C3          2.0090    0.1700    1.1130 c3        1 3CK      0.112100
      4 C4          1.7340    1.2400    2.1850 c3        1 3CK      0.124100
      5 C5          0.2700    1.1520    2.6390 c3        1 3CK      0.100100
      6 C6         -0.0830    2.3130    3.5750 c3        1 3CK      0.143400
      7 O1         -0.7130   -0.9120    1.0970 os        1 3CK     -0.473600
      8 O2          1.2470   -0.7240   -0.9430 oh        1 3CK     -0.606800
      9 O3          3.3420    0.3660    0.6770 oh        1 3CK     -0.608800
     10 O4          2.5390    1.0130    3.3280 oh        1 3CK     -0.594800
     11 O5         -0.6160    1.2840    1.5210 os        1 3CK     -0.415600
     12 O6         -1.3980    2.1920    4.0670 oh        1 3CK     -0.605800
     13 C1'        -1.5660   -2.1800   -0.8260 c3        1 3CK      0.115400
     14 C2'        -1.8150   -1.6450    0.5940 c3        1 3CK      0.271600
     15 C3'        -2.1260   -2.7680    1.6210 c3        1 3CK      0.107100
     16 C4'        -3.5270   -2.4000    2.1790 c3        1 3CK      0.126100
     17 C5'        -3.7840   -0.9570    1.6840 c3        1 3CK      0.074100
     18 C6'        -3.5080    0.1000    2.7520 c3        1 3CK      0.101400
     19 O1'        -1.6210   -1.1530   -1.7920 oh        1 3CK     -0.609800
     20 O2'        -2.9180   -0.7510    0.5520 os        1 3CK     -0.433600
     21 O3'        -1.2340   -2.8390    2.7120 oh        1 3CK     -0.593800
     22 O4'        -3.6400   -2.5480    3.5680 oh        1 3CK     -0.574800
     23 O6'        -3.9470    1.3820    2.3590 oh        1 3CK     -0.586800
     24 H1         -1.1780    0.6180   -0.3060 h2        1 3CK      0.109700
     25 H2          1.1970    1.3260   -0.5620 h1        1 3CK      0.065700
     26 H3          1.8980   -0.8600    1.5540 h1        1 3CK      0.068700
     27 H4          1.9550    2.2590    1.7600 h1        1 3CK      0.058700
     28 H5          0.0810    0.1660    3.1450 h1        1 3CK      0.077700
     29 H6          0.0520    3.2900    3.0400 h1        1 3CK      0.060200
     30 H7          0.5850    2.2650    4.4760 h1        1 3CK      0.060200
     31 H8          0.5600   -0.6750   -1.6240 ho        1 3CK      0.429000
     32 H9          3.4890   -0.2540   -0.0490 ho        1 3CK      0.426000
     33 H10         3.4520    0.9670    3.0130 ho        1 3CK      0.424000
     34 H11        -2.0000    2.2780    3.3130 ho        1 3CK      0.427000
     35 H12        -0.5210   -2.5890   -0.8920 h1        1 3CK      0.070700
     36 H13        -2.3210   -2.9760   -1.0590 h1        1 3CK      0.070700
     37 H14        -2.1410   -3.7680    1.1110 h1        1 3CK      0.068700
     38 H15        -4.3050   -3.0930    1.7540 h1        1 3CK      0.085700
     39 H16        -4.8220   -0.8410    1.2700 h1        1 3CK      0.076700
     40 H17        -2.3950    0.2140    2.8960 h1        1 3CK      0.075200
     41 H18        -4.0000   -0.2050    3.7140 h1        1 3CK      0.075200
     42 H19        -2.5030   -0.7590   -1.7490 ho        1 3CK      0.425000
     43 H20        -0.3730   -2.4980    2.4350 ho        1 3CK      0.439000
     44 H21        -2.8330   -2.2040    3.9790 ho        1 3CK      0.431000
     45 H22        -4.9060    1.3430    2.2630 ho        1 3CK      0.396000
@<TRIPOS>BOND
     1    1    2 1   
     2    1    7 1   
     3    1   11 1   
     4    1   24 1   
     5    2    3 1   
     6    2    8 1   
     7    2   25 1   
     8    3    4 1   
     9    3    9 1   
    10    3   26 1   
    11    4    5 1   
    12    4   10 1   
    13    4   27 1   
    14    5    6 1   
    15    5   11 1   
    16    5   28 1   
    17    6   12 1   
    18    6   29 1   
    19    6   30 1   
    20    7   14 1   
    21    8   31 1   
    22    9   32 1   
    23   10   33 1   
    24   12   34 1   
    25   13   14 1   
    26   13   19 1   
    27   13   35 1   
    28   13   36 1   
    29   14   15 1   
    30   14   20 1   
    31   15   16 1   
    32   15   21 1   
    33   15   37 1   
    34   16   17 1   
    35   16   22 1   
    36   16   38 1   
    37   17   18 1   
    38   17   20 1   
    39   17   39 1   
    40   18   23 1   
    41   18   40 1   
    42   18   41 1   
    43   19   42 1   
    44   21   43 1   
    45   22   44 1   
    46   23   45 1   
@<TRIPOS>SUBSTRUCTURE
     1 3CK         1 TEMP              0 ****  ****    0 ROOT
