@<TRIPOS>MOLECULE
3CK
   45    46     1     0     0
SMALL
bcc


@<TRIPOS>ATOM
      1 C1         -0.4260    0.3330    0.3650 c3        1 3CK      0.350900
      2 C2          1.0480    0.2430   -0.0850 c3        1 3CK      0.083100
      3 C3          1.9560    0.0630    1.1380 c3        1 3CK      0.069100
      4 C4          1.7110    1.2240    2.1150 c3        1 3CK      0.124100
      5 C5          0.2220    1.2510    2.4960 c3        1 3CK      0.102100
      6 C6         -0.1010    2.4950    3.3310 c3        1 3CK      0.142400
      7 O1         -0.7990   -0.8640    1.0300 os        1 3CK     -0.464600
      8 O2          1.1750   -0.8620   -0.9620 oh        1 3CK     -0.589800
      9 O3          3.3230    0.1200    0.7600 oh        1 3CK     -0.607800
     10 O4          2.4480    1.0350    3.3100 oh        1 3CK     -0.593800
     11 O5         -0.6000    1.3490    1.3280 os        1 3CK     -0.418600
     12 O6         -1.3870    2.4150    3.8990 oh        1 3CK     -0.603800
     13 C1'        -1.8300   -1.8870   -0.9750 c3        1 3CK      0.119400
     14 C2'        -1.9290   -1.5510    0.5220 c3        1 3CK      0.279600
     15 C3'        -2.1340   -2.7900    1.4360 c3        1 3CK      0.106100
     16 C4'        -3.3500   -2.4200    2.3240 c3        1 3CK      0.085100
     17 C5'        -3.7430   -0.9830    1.9230 c3        1 3CK      0.112100
     18 C6'        -3.4140    0.0610    2.9890 c3        1 3CK      0.115400
     19 O1'        -2.2810   -0.8320   -1.7940 oh        1 3CK     -0.592800
     20 O2'        -3.0350   -0.6770    0.7090 os        1 3CK     -0.432600
     21 O3'        -1.0170   -3.1160    2.2230 oh        1 3CK     -0.580800
     22 O4'        -3.0240   -2.4610    3.6970 oh        1 3CK     -0.590800
     23 O6'        -3.9910    1.3150    2.6880 oh        1 3CK     -0.590800
     24 H1         -1.1140    0.5960   -0.4860 h2        1 3CK      0.126700
     25 H2          1.3080    1.2010   -0.6150 h1        1 3CK      0.065700
     26 H3          1.7260   -0.9180    1.6390 h1        1 3CK      0.077700
     27 H4          2.0130    2.1940    1.6310 h1        1 3CK      0.057700
     28 H5         -0.0440    0.3170    3.0610 h1        1 3CK      0.074700
     29 H6          0.6100    2.5410    4.1990 h1        1 3CK      0.059700
     30 H7         -0.0040    3.4160    2.6960 h1        1 3CK      0.059700
     31 H8          1.9830   -0.7140   -1.4690 ho        1 3CK      0.408000
     32 H9          3.5360   -0.7360    0.3710 ho        1 3CK      0.410000
     33 H10         3.3710    0.9270    3.0430 ho        1 3CK      0.421000
     34 H11        -2.0280    2.4000    3.1720 ho        1 3CK      0.428000
     35 H12        -0.7490   -2.0340   -1.2530 h1        1 3CK      0.072700
     36 H13        -2.4220   -2.8170   -1.1840 h1        1 3CK      0.072700
     37 H14        -2.3340   -3.7090    0.8240 h1        1 3CK      0.093700
     38 H15        -4.2030   -3.1250    2.1270 h1        1 3CK      0.054700
     39 H16        -4.8300   -0.9290    1.6400 h1        1 3CK      0.069700
     40 H17        -3.7580   -0.3030    3.9940 h1        1 3CK      0.077200
     41 H18        -2.3050    0.2550    3.0030 h1        1 3CK      0.077200
     42 H19        -3.1810   -0.6090   -1.5200 ho        1 3CK      0.417000
     43 H20        -0.7090   -2.3050    2.6580 ho        1 3CK      0.433000
     44 H21        -2.5430   -3.2880    3.8490 ho        1 3CK      0.424000
     45 H22        -4.9490    1.2110    2.7310 ho        1 3CK      0.394000
@<TRIPOS>BOND
     1    1    2 1   
     2    1    7 1   
     3    1   11 1   
     4    1   24 1   
     5    2    3 1   
     6    2    8 1   
     7    2   25 1   
     8    3    4 1   
     9    3    9 1   
    10    3   26 1   
    11    4    5 1   
    12    4   10 1   
    13    4   27 1   
    14    5    6 1   
    15    5   11 1   
    16    5   28 1   
    17    6   12 1   
    18    6   29 1   
    19    6   30 1   
    20    7   14 1   
    21    8   31 1   
    22    9   32 1   
    23   10   33 1   
    24   12   34 1   
    25   13   14 1   
    26   13   19 1   
    27   13   35 1   
    28   13   36 1   
    29   14   15 1   
    30   14   20 1   
    31   15   16 1   
    32   15   21 1   
    33   15   37 1   
    34   16   17 1   
    35   16   22 1   
    36   16   38 1   
    37   17   18 1   
    38   17   20 1   
    39   17   39 1   
    40   18   23 1   
    41   18   40 1   
    42   18   41 1   
    43   19   42 1   
    44   21   43 1   
    45   22   44 1   
    46   23   45 1   
@<TRIPOS>SUBSTRUCTURE
     1 3CK         1 TEMP              0 ****  ****    0 ROOT
