@<TRIPOS>MOLECULE
3CL
   12    11     1     0     0
SMALL
bcc


@<TRIPOS>ATOM
      1 O1         -0.4600    0.0000    2.9180 oh        1 3CL     -0.596800
      2 C2          0.5000    0.0000    1.8740 c3        1 3CL      0.131400
      3 C3         -0.2740    0.0000    0.5650 c3        1 3CL     -0.097400
      4 C4          0.6880    0.0000   -0.5970 c3        1 3CL      0.036000
      5 CL5        -0.1610    0.0000   -2.1330 cl        1 3CL     -0.190400
      6 HO1         0.0330   -0.0000    3.7460 ho        1 3CL      0.402000
      7 H21         1.1490    0.9130    1.9500 h1        1 3CL      0.021700
      8 H22         1.1490   -0.9130    1.9500 h1        1 3CL      0.021700
      9 H31        -0.9390   -0.9020    0.5290 hc        1 3CL      0.071700
     10 H32        -0.9390    0.9020    0.5290 hc        1 3CL      0.071700
     11 H41         1.3310    0.9130   -0.5890 h1        1 3CL      0.063700
     12 H42         1.3310   -0.9130   -0.5890 h1        1 3CL      0.063700
@<TRIPOS>BOND
     1    1    2 1   
     2    1    6 1   
     3    2    3 1   
     4    2    7 1   
     5    2    8 1   
     6    3    4 1   
     7    3    9 1   
     8    3   10 1   
     9    4    5 1   
    10    4   11 1   
    11    4   12 1   
@<TRIPOS>SUBSTRUCTURE
     1 3CL         1 TEMP              0 ****  ****    0 ROOT
