@<TRIPOS>MOLECULE
3CL
   12    11     1     0     0
SMALL
bcc


@<TRIPOS>ATOM
      1 O1         -2.0520    0.0000   -0.8230 oh        1 3CL     -0.596800
      2 C2         -0.6410    0.0000   -0.8230 c3        1 3CL      0.131400
      3 C3         -0.1370    0.0000    0.6040 c3        1 3CL     -0.097400
      4 C4          1.3760    0.0000    0.6040 c3        1 3CL      0.036000
      5 CL5         1.9570   -0.0000    2.2480 cl        1 3CL     -0.190400
      6 HO1        -2.3480    0.0000   -1.6590 ho        1 3CL      0.402000
      7 H21        -0.3160   -0.7970   -1.2830 h1        1 3CL      0.021700
      8 H22        -0.3160    0.7970   -1.2830 h1        1 3CL      0.021700
      9 H31        -0.4630    0.7970    1.0640 hc        1 3CL      0.071700
     10 H32        -0.4620   -0.7970    1.0640 hc        1 3CL      0.071700
     11 H41         1.7010    0.7970    0.1440 h1        1 3CL      0.063700
     12 H42         1.7010   -0.7970    0.1440 h1        1 3CL      0.063700
@<TRIPOS>BOND
     1    1    2 1   
     2    1    6 1   
     3    2    3 1   
     4    2    7 1   
     5    2    8 1   
     6    3    4 1   
     7    3    9 1   
     8    3   10 1   
     9    4    5 1   
    10    4   11 1   
    11    4   12 1   
@<TRIPOS>SUBSTRUCTURE
     1 3CL         1 TEMP              0 ****  ****    0 ROOT
