@<TRIPOS>MOLECULE
3CM
   70    72     1     0     0
SMALL
bcc


@<TRIPOS>ATOM
      1 C1          2.7440    3.7450    0.4120 c3        1 3CM      0.330900
      2 C2          4.1600    3.7180    0.2270 c3        1 3CM      0.129100
      3 C3          4.9000    3.5900    1.4170 c3        1 3CM      0.068100
      4 C4          4.5230    4.5920    2.4670 c3        1 3CM      0.083100
      5 C5          2.9740    4.6070    2.8260 c3        1 3CM      0.106100
      6 C6          2.6710    5.6560    3.5960 c3        1 3CM      0.142400
      7 O2          4.5070    2.5210   -0.6930 oh        1 3CM     -0.589800
      8 O3          6.3540    3.7630    1.0940 oh        1 3CM     -0.606800
      9 O5          2.2930    4.7340    1.4080 os        1 3CM     -0.425600
     10 O6          2.9180    5.3310    4.9640 oh        1 3CM     -0.597800
     11 O1          2.3040    2.4320    0.8350 os        1 3CM     -0.443600
     12 O4          5.2460    4.3090    3.6310 oh        1 3CM     -0.603800
     13 C10         0.6490   -0.6820    0.5180 c3        1 3CM      0.292900
     14 C20         1.4890   -0.0620   -0.5660 c3        1 3CM      0.107100
     15 C30         1.0610    1.3360   -0.8880 c3        1 3CM      0.096100
     16 C40         0.9690    2.1920    0.3270 c3        1 3CM      0.084100
     17 C50         0.1300    1.5580    1.4170 c3        1 3CM      0.111100
     18 C60        -1.2970    1.5380    0.9770 c3        1 3CM      0.105400
     19 O10        -0.6300   -0.9060    0.0220 os        1 3CM     -0.468600
     20 O20         2.8530   -0.0390   -0.1350 oh        1 3CM     -0.586800
     21 O30        -0.2380    1.2920   -1.5290 oh        1 3CM     -0.586800
     22 O50         0.5540    0.1800    1.7270 os        1 3CM     -0.426600
     23 O60        -1.9860    2.6370    1.5530 oh        1 3CM     -0.591800
     24 C11        -1.0700   -2.2880    0.1230 c3        1 3CM      0.135400
     25 C21        -2.2050   -2.5450   -0.9080 c3        1 3CM     -0.087400
     26 C31        -2.3840   -4.1140   -1.1290 c3        1 3CM     -0.074400
     27 C12        -3.5580   -4.3480   -1.7550 c3        1 3CM     -0.061700
     28 C22        -4.3720   -5.5300   -1.0710 c3        1 3CM     -0.072400
     29 C32        -5.6990   -5.8360   -1.7820 c3        1 3CM     -0.074900
     30 C42        -5.7090   -5.3490   -3.0440 c3        1 3CM     -0.075400
     31 C52        -4.6530   -5.3640   -3.9010 c3        1 3CM     -0.074900
     32 C62        -3.3470   -5.0680   -3.1840 c3        1 3CM     -0.072400
     33 HO6         2.8690    6.0640    5.4550 ho        1 3CM      0.417000
     34 H61         3.2220    6.4160    3.3400 h1        1 3CM      0.058200
     35 H62A        1.7200    5.8860    3.4800 h1        1 3CM      0.058200
     36 H5          2.7130    3.7710    3.2600 h1        1 3CM      0.080700
     37 H1          2.3240    3.9530   -0.4410 h2        1 3CM      0.102700
     38 H40         0.5700    3.0450    0.0790 h1        1 3CM      0.094700
     39 H30         1.7120    1.7340   -1.5130 h1        1 3CM      0.094700
     40 HO30       -0.1960    1.7130   -2.3170 ho        1 3CM      0.421000
     41 H20         1.4190   -0.6140   -1.3810 h1        1 3CM      0.099700
     42 HO20        3.3350   -0.5910   -0.6450 ho        1 3CM      0.433000
     43 H10         1.0450   -1.5390    0.7710 h2        1 3CM      0.094700
     44 H111       -0.3190   -2.8830   -0.0640 h1        1 3CM      0.038200
     45 H112       -1.4060   -2.4600    1.0300 h1        1 3CM      0.038200
     46 H211       -1.9750   -2.1200   -1.7590 hc        1 3CM      0.054700
     47 H212       -3.0420   -2.1670   -0.5710 hc        1 3CM      0.054700
     48 H311       -1.6410   -4.4550   -1.6850 hc        1 3CM      0.041700
     49 H312       -2.3790   -4.5720   -0.2580 hc        1 3CM      0.041700
     50 H12        -4.0940   -3.5450   -1.8350 hc        1 3CM      0.049700
     51 H6         -3.8150   -6.3420   -1.0760 hc        1 3CM      0.039200
     52 H7         -5.8290   -6.8110   -1.8140 hc        1 3CM      0.038200
     53 H421       -6.4360   -5.8120   -3.5040 hc        1 3CM      0.039200
     54 H422       -5.9790   -4.4070   -2.9650 hc        1 3CM      0.039200
     55 H8         -4.5950   -6.2450   -4.3210 hc        1 3CM      0.038200
     56 H9         -2.8650   -5.9150   -3.0430 hc        1 3CM      0.039200
     57 H50         0.2030    2.0970    2.2220 h1        1 3CM      0.085700
     58 H601       -1.3380    1.6020    0.0060 h1        1 3CM      0.060700
     59 H602       -1.7190    0.6960    1.2690 h1        1 3CM      0.060700
     60 HO60       -2.8330    2.4030    1.7230 ho        1 3CM      0.401000
     61 H2          4.4300    4.5400   -0.2180 h1        1 3CM      0.066700
     62 HO2         5.0120    2.8020   -1.3690 ho        1 3CM      0.426000
     63 H3          4.7630    2.6900    1.7770 h1        1 3CM      0.081700
     64 HO3         6.8070    3.0510    1.3750 ho        1 3CM      0.412000
     65 H4          4.7780    5.4880    2.1500 h1        1 3CM      0.061700
     66 HO4         5.9830    4.8230    3.6590 ho        1 3CM      0.412000
     67 H22        -4.5610   -5.2850   -0.1480 hc        1 3CM      0.039200
     68 H32        -6.4340   -5.4320   -1.2770 hc        1 3CM      0.038200
     69 H52        -4.7960   -4.6890   -4.5950 hc        1 3CM      0.038200
     70 H62        -2.8060   -4.4910   -3.7470 hc        1 3CM      0.039200
@<TRIPOS>BOND
     1    1    2 1   
     2    1    9 1   
     3    1   11 1   
     4    1   37 1   
     5    2    3 1   
     6    2    7 1   
     7    2   61 1   
     8    3    4 1   
     9    3    8 1   
    10    3   63 1   
    11    4    5 1   
    12    4   12 1   
    13    4   65 1   
    14    5    6 1   
    15    5    9 1   
    16    5   36 1   
    17    6   10 1   
    18    6   34 1   
    19    6   35 1   
    20    7   62 1   
    21    8   64 1   
    22   10   33 1   
    23   11   16 1   
    24   12   66 1   
    25   13   14 1   
    26   13   19 1   
    27   13   22 1   
    28   13   43 1   
    29   14   15 1   
    30   14   20 1   
    31   14   41 1   
    32   15   16 1   
    33   15   21 1   
    34   15   39 1   
    35   16   17 1   
    36   16   38 1   
    37   17   18 1   
    38   17   22 1   
    39   17   57 1   
    40   18   23 1   
    41   18   58 1   
    42   18   59 1   
    43   19   24 1   
    44   20   42 1   
    45   21   40 1   
    46   23   60 1   
    47   24   25 1   
    48   24   44 1   
    49   24   45 1   
    50   25   26 1   
    51   25   46 1   
    52   25   47 1   
    53   26   27 1   
    54   26   48 1   
    55   26   49 1   
    56   27   28 1   
    57   27   32 1   
    58   27   50 1   
    59   28   29 1   
    60   28   51 1   
    61   28   67 1   
    62   29   30 1   
    63   29   52 1   
    64   29   68 1   
    65   30   31 1   
    66   30   53 1   
    67   30   54 1   
    68   31   32 1   
    69   31   55 1   
    70   31   69 1   
    71   32   56 1   
    72   32   70 1   
@<TRIPOS>SUBSTRUCTURE
     1 3CM         1 TEMP              0 ****  ****    0 ROOT
