@<TRIPOS>MOLECULE
3CM
   70    72     1     0     0
SMALL
bcc


@<TRIPOS>ATOM
      1 C1         -4.0380    0.8770   -0.5390 c3        1 3CM      0.302900
      2 C2         -5.3000    1.1290    0.3090 c3        1 3CM      0.095100
      3 C3         -5.7760   -0.1650    0.9830 c3        1 3CM      0.073100
      4 C4         -5.9070   -1.2820   -0.0640 c3        1 3CM      0.129100
      5 C5         -4.5560   -1.4640   -0.7690 c3        1 3CM      0.098100
      6 C6         -4.6560   -2.4850   -1.9050 c3        1 3CM      0.140400
      7 O2         -5.0850    2.1340    1.2760 oh        1 3CM     -0.590800
      8 O3         -7.0590    0.0040    1.5620 oh        1 3CM     -0.605800
      9 O5         -4.1400   -0.2410   -1.3870 os        1 3CM     -0.441600
     10 O6         -3.3930   -2.7220   -2.4860 oh        1 3CM     -0.596800
     11 O1         -2.9780    0.6220    0.3710 os        1 3CM     -0.458600
     12 O4         -6.2260   -2.5160    0.5530 oh        1 3CM     -0.594800
     13 C10         1.1190    1.2060    0.2950 c3        1 3CM      0.306900
     14 C20         0.3350    2.0820   -0.6980 c3        1 3CM      0.086100
     15 C30        -1.1580    2.0880   -0.3300 c3        1 3CM      0.121100
     16 C40        -1.6710    0.6410   -0.2050 c3        1 3CM      0.128100
     17 C50        -0.7760   -0.1390    0.7760 c3        1 3CM      0.107100
     18 C60        -1.1590   -1.6210    0.8400 c3        1 3CM      0.140400
     19 O10         2.4020    1.0110   -0.2530 os        1 3CM     -0.422600
     20 O20         0.7710    3.4280   -0.6230 oh        1 3CM     -0.603800
     21 O30        -1.8970    2.7210   -1.3600 oh        1 3CM     -0.604800
     22 O50         0.5830   -0.1120    0.3400 os        1 3CM     -0.444600
     23 O60        -0.2790   -2.3330    1.6810 oh        1 3CM     -0.592800
     24 C11         3.3010    0.3160    0.6230 c3        1 3CM      0.136400
     25 C21         4.6220    0.2180   -0.1180 c3        1 3CM     -0.084400
     26 C31         5.6460   -0.4980    0.7350 c3        1 3CM     -0.075400
     27 C12         6.9780   -0.6580    0.0170 c3        1 3CM     -0.062700
     28 C22         7.8190   -1.7210    0.7140 c3        1 3CM     -0.073400
     29 C32         9.1630   -1.8920    0.0370 c3        1 3CM     -0.076400
     30 C42         9.9150   -0.5790   -0.0390 c3        1 3CM     -0.076400
     31 C52         9.0820    0.4880   -0.7200 c3        1 3CM     -0.076400
     32 C62         7.7400    0.6580   -0.0390 c3        1 3CM     -0.073400
     33 HO6        -3.0830   -1.8790   -2.8410 ho        1 3CM      0.408000
     34 H61        -4.9850   -3.4720   -1.4810 h1        1 3CM      0.064700
     35 H62A       -5.3850   -2.1290   -2.6790 h1        1 3CM      0.064700
     36 H5         -3.7740   -1.7830   -0.0260 h1        1 3CM      0.074700
     37 H1         -3.8130    1.7440   -1.2250 h2        1 3CM      0.126700
     38 H40        -1.6880    0.1500   -1.2160 h1        1 3CM      0.087700
     39 H30        -1.3130    2.6390    0.6390 h1        1 3CM      0.062700
     40 HO30       -1.5190    3.6050   -1.4680 ho        1 3CM      0.427000
     41 H20         0.4750    1.6860   -1.7420 h1        1 3CM      0.079700
     42 HO20        1.7040    3.4280   -0.8730 ho        1 3CM      0.426000
     43 H10         1.1560    1.6570    1.3240 h2        1 3CM      0.054700
     44 H111        3.4100    0.8970    1.5760 h1        1 3CM      0.038700
     45 H112        2.8840   -0.7000    0.8510 h1        1 3CM      0.038700
     46 H211        4.4650   -0.3330   -1.0830 hc        1 3CM      0.055700
     47 H212        4.9790    1.2480   -0.3780 hc        1 3CM      0.055700
     48 H311        5.8020    0.0660    1.6930 hc        1 3CM      0.042200
     49 H312        5.2520   -1.5130    1.0080 hc        1 3CM      0.042200
     50 H12         6.7810   -1.0000   -1.0380 hc        1 3CM      0.050700
     51 H6          7.9710   -1.4290    1.7860 hc        1 3CM      0.039450
     52 H7          9.7730   -2.6420    0.6030 hc        1 3CM      0.039450
     53 H421       10.1810   -0.2410    0.9960 hc        1 3CM      0.039700
     54 H422       10.8720   -0.7260   -0.6030 hc        1 3CM      0.039700
     55 H8          9.6350    1.4640   -0.7030 hc        1 3CM      0.039450
     56 H9          7.1340    1.4200   -0.5950 hc        1 3CM      0.039450
     57 H50        -0.8480    0.3220    1.8010 h1        1 3CM      0.062700
     58 H601       -2.1700   -1.7180    1.3180 h1        1 3CM      0.065200
     59 H602       -1.1700   -2.0630   -0.1910 h1        1 3CM      0.065200
     60 HO60        0.6040   -2.2630    1.2940 ho        1 3CM      0.412000
     61 H2         -6.1110    1.5380   -0.3580 h1        1 3CM      0.102700
     62 HO2        -4.2870    1.8980    1.7700 ho        1 3CM      0.419000
     63 H3         -5.0430   -0.4710    1.7810 h1        1 3CM      0.062700
     64 HO3        -7.0260    0.8230    2.0760 ho        1 3CM      0.424000
     65 H4         -6.7090   -1.0120   -0.8070 h1        1 3CM      0.059700
     66 HO4        -7.0070   -2.3540    1.1010 ho        1 3CM      0.426000
     67 H22         7.2690   -2.6980    0.7050 hc        1 3CM      0.039450
     68 H32         9.0100   -2.2950   -0.9990 hc        1 3CM      0.039450
     69 H52         8.9240    0.2090   -1.7940 hc        1 3CM      0.039450
     70 H62         7.8940    1.0440    1.0030 hc        1 3CM      0.039450
@<TRIPOS>BOND
     1    1    2 1   
     2    1    9 1   
     3    1   11 1   
     4    1   37 1   
     5    2    3 1   
     6    2    7 1   
     7    2   61 1   
     8    3    4 1   
     9    3    8 1   
    10    3   63 1   
    11    4    5 1   
    12    4   12 1   
    13    4   65 1   
    14    5    6 1   
    15    5    9 1   
    16    5   36 1   
    17    6   10 1   
    18    6   34 1   
    19    6   35 1   
    20    7   62 1   
    21    8   64 1   
    22   10   33 1   
    23   11   16 1   
    24   12   66 1   
    25   13   14 1   
    26   13   19 1   
    27   13   22 1   
    28   13   43 1   
    29   14   15 1   
    30   14   20 1   
    31   14   41 1   
    32   15   16 1   
    33   15   21 1   
    34   15   39 1   
    35   16   17 1   
    36   16   38 1   
    37   17   18 1   
    38   17   22 1   
    39   17   57 1   
    40   18   23 1   
    41   18   58 1   
    42   18   59 1   
    43   19   24 1   
    44   20   42 1   
    45   21   40 1   
    46   23   60 1   
    47   24   25 1   
    48   24   44 1   
    49   24   45 1   
    50   25   26 1   
    51   25   46 1   
    52   25   47 1   
    53   26   27 1   
    54   26   48 1   
    55   26   49 1   
    56   27   28 1   
    57   27   32 1   
    58   27   50 1   
    59   28   29 1   
    60   28   51 1   
    61   28   67 1   
    62   29   30 1   
    63   29   52 1   
    64   29   68 1   
    65   30   31 1   
    66   30   53 1   
    67   30   54 1   
    68   31   32 1   
    69   31   55 1   
    70   31   69 1   
    71   32   56 1   
    72   32   70 1   
@<TRIPOS>SUBSTRUCTURE
     1 3CM         1 TEMP              0 ****  ****    0 ROOT
