@<TRIPOS>MOLECULE
3CN
   13    12     1     0     0
SMALL
bcc


@<TRIPOS>ATOM
      1 CA         -1.5810    0.0000   -0.7240 c3        1 3CN     -0.095100
      2 CB         -0.0680    0.0000   -0.7240 c3        1 3CN     -0.082400
      3 CC          0.4360    0.0000    0.7020 c3        1 3CN      0.168800
      4 ND          1.8620    0.0000    0.7020 n3        1 3CN     -0.932800
      5 HA1        -1.9060    0.7970   -0.2640 hc        1 3CN      0.031367
      6 HA2        -1.9060   -0.0000   -1.6450 hc        1 3CN      0.031367
      7 HA3        -1.9060   -0.7970   -0.2640 hc        1 3CN      0.031367
      8 HB1         0.2570    0.7970   -1.1850 hc        1 3CN      0.047700
      9 HB2         0.2570   -0.7970   -1.1850 hc        1 3CN      0.047700
     10 HC1         0.1110    0.7970    1.1620 h1        1 3CN      0.022700
     11 HC2         0.1110   -0.7970    1.1620 h1        1 3CN      0.022700
     12 HND1        2.1660    0.7450    1.1320 hn        1 3CN      0.352800
     13 HND2        2.1660   -0.7450    1.1320 hn        1 3CN      0.352800
@<TRIPOS>BOND
     1    1    2 1   
     2    1    5 1   
     3    1    6 1   
     4    1    7 1   
     5    2    3 1   
     6    2    8 1   
     7    2    9 1   
     8    3    4 1   
     9    3   10 1   
    10    3   11 1   
    11    4   12 1   
    12    4   13 1   
@<TRIPOS>SUBSTRUCTURE
     1 3CN         1 TEMP              0 ****  ****    0 ROOT
