@<TRIPOS>MOLECULE
3CN
   13    12     1     0     0
SMALL
bcc


@<TRIPOS>ATOM
      1 CA          1.9160   -0.1530   -0.0160 c3        1 3CN     -0.093100
      2 CB          0.5760    0.5340    0.0110 c3        1 3CN     -0.083400
      3 CC         -0.5520   -0.4960   -0.0210 c3        1 3CN      0.157800
      4 ND         -1.8690    0.0900    0.0570 n3        1 3CN     -0.916800
      5 HA1         2.0330   -0.8270    0.8670 hc        1 3CN      0.034033
      6 HA2         2.0290   -0.7680   -0.9420 hc        1 3CN      0.034033
      7 HA3         2.7380    0.6030    0.0070 hc        1 3CN      0.034033
      8 HB1         0.4900    1.1610    0.9370 hc        1 3CN      0.045200
      9 HB2         0.4880    1.2240   -0.8690 hc        1 3CN      0.045200
     10 HC1        -0.4160   -1.1310   -0.9480 h1        1 3CN      0.023700
     11 HC2        -0.4410   -1.1840    0.8660 h1        1 3CN      0.023700
     12 HND1       -1.9780    0.8230   -0.6160 hn        1 3CN      0.347300
     13 HND2       -2.5700   -0.6060   -0.0990 hn        1 3CN      0.347300
@<TRIPOS>BOND
     1    1    2 1   
     2    1    5 1   
     3    1    6 1   
     4    1    7 1   
     5    2    3 1   
     6    2    8 1   
     7    2    9 1   
     8    3    4 1   
     9    3   10 1   
    10    3   11 1   
    11    4   12 1   
    12    4   13 1   
@<TRIPOS>SUBSTRUCTURE
     1 3CN         1 TEMP              0 ****  ****    0 ROOT
