@<TRIPOS>MOLECULE
3CN
   14    13     1     0     0
SMALL
bcc


@<TRIPOS>ATOM
      1 CA          0.0010    0.0000    0.0110 c3        1 3CN     -0.103100
      2 CB          1.5100   -0.0000   -0.0200 c3        1 3CN     -0.106400
      3 CC          2.0410    0.0010    1.4080 c3        1 3CN      0.096800
      4 ND          3.5340    0.0000    1.4670 nz        1 3CN     -0.839600
      5 HA1        -0.3900   -0.9070    0.5330 hc        1 3CN      0.066033
      6 HA2        -0.3900    0.9080    0.5320 hc        1 3CN      0.066033
      7 HA3        -0.3930   -0.0000   -1.0360 hc        1 3CN      0.066033
      8 HB1         1.8730   -0.9080   -0.5720 hc        1 3CN      0.069700
      9 HB2         1.8730    0.9070   -0.5730 hc        1 3CN      0.069700
     10 HC1         1.6760   -0.9160    1.9570 hx        1 3CN      0.114700
     11 HC2         1.6770    0.9190    1.9550 hx        1 3CN      0.114700
     12 HND1        3.9050    0.8320    0.9960 hn        1 3CN      0.461800
     13 HND2        3.8480    0.0010    2.4430 hn        1 3CN      0.461800
     14 HD3         3.9040   -0.8330    0.9970 hn        1 3CN      0.461800
@<TRIPOS>BOND
     1    1    2 1   
     2    1    5 1   
     3    1    6 1   
     4    1    7 1   
     5    2    3 1   
     6    2    8 1   
     7    2    9 1   
     8    3    4 1   
     9    3   10 1   
    10    3   11 1   
    11    4   12 1   
    12    4   13 1   
    13    4   14 1   
@<TRIPOS>SUBSTRUCTURE
     1 3CN         1 TEMP              0 ****  ****    0 ROOT
