@<TRIPOS>MOLECULE
3CQ
   79    84     1     0     0
SMALL
bcc


@<TRIPOS>ATOM
      1 N42         1.1050    1.8610    0.3330 nc        1 3CQ     -0.623000
      2 C43         2.2950    1.2090    0.6020 cc        1 3CQ      0.334800
      3 C44         3.6390    1.8580    0.2890 c         1 3CQ      0.833100
      4 O45         3.9120    2.9500    0.8670 o         1 3CQ     -0.824300
      5 O46         4.4440    1.2380   -0.4560 o         1 3CQ     -0.824300
      6 C2         10.3450    5.5710    3.1350 c1        1 3CQ     -0.386100
      7 C3         -3.6410   -5.6700   -6.6080 ca        1 3CQ     -0.128000
      8 C4         -2.4370   -5.1320   -7.0960 ca        1 3CQ     -0.137000
      9 C5         -5.9490    2.5610   -1.1090 ca        1 3CQ     -0.140000
     10 C6          8.6860    2.6950    4.4220 ca        1 3CQ     -0.095000
     11 C7         -5.3980    1.6640   -2.0200 ca        1 3CQ     -0.106000
     12 C8         -5.1910    3.0060   -0.0270 ca        1 3CQ     -0.108000
     13 C9         -4.3890   -5.0060   -5.6520 ca        1 3CQ     -0.090000
     14 C10         7.7260    1.6810    4.4910 ca        1 3CQ      0.064900
     15 C11        -1.9650   -3.9160   -6.6300 ca        1 3CQ     -0.079000
     16 C12         6.4670    2.7560    2.6840 ca        1 3CQ     -0.193000
     17 C13         8.5430    3.7320    3.4840 ca        1 3CQ     -0.128000
     18 C14        -4.0820    1.2200   -1.8520 ca        1 3CQ     -0.147600
     19 C15        -3.8770    2.5640    0.1510 ca        1 3CQ     -0.068300
     20 C16        -3.3080    1.6690   -0.7710 ca        1 3CQ     -0.010300
     21 C17        -3.9250   -3.7650   -5.1640 ca        1 3CQ      0.111400
     22 C18         6.6110    1.6970    3.5990 ca        1 3CQ      0.180100
     23 C19        -2.6960   -3.2190   -5.6640 ca        1 3CQ     -0.145100
     24 C22        -3.8430   -1.8720   -3.9820 cc        1 3CQ      0.410800
     25 C23        -3.4990    0.2840   -2.8530 c         1 3CQ      0.678700
     26 C24        -3.1020    3.0270    1.3330 c3        1 3CQ     -0.039100
     27 C25        -1.8850    1.2120   -0.6360 c3        1 3CQ      0.193100
     28 C26        -1.6010    2.7900    1.1840 c3        1 3CQ      0.164800
     29 C20         2.1550   -0.0410    1.2100 cd        1 3CQ     -0.193700
     30 C21         0.0670    1.1130    0.7490 cd        1 3CQ      0.544300
     31 C27        12.4990    7.8190    1.1180 c3        1 3CQ      0.083600
     32 C28        12.5760    5.3730    1.1690 c3        1 3CQ      0.083600
     33 C29        11.2960    6.5990    2.9010 c3        1 3CQ      0.269900
     34 C30         3.2360   -0.9920    1.5190 c3        1 3CQ     -0.002100
     35 C31         3.9780   -0.6970    2.8140 c3        1 3CQ     -0.072400
     36 C32         4.7390    0.6030    2.6630 c3        1 3CQ      0.092400
     37 C33         7.4160    3.7620    2.6370 ca        1 3CQ     -0.044000
     38 N34        -4.5700   -2.9830   -4.2030 nd        1 3CQ     -0.598100
     39 N36        -4.2240   -0.8890   -3.0720 ns        1 3CQ     -0.462400
     40 N35        -1.3180    1.4400    0.6950 nh        1 3CQ     -0.687300
     41 N37        11.7590    6.5800    1.4480 nx        1 3CQ     -0.694400
     42 O38        -2.4460    0.5070   -3.4750 o         1 3CQ     -0.560100
     43 O39         5.7460    0.6510    3.7060 os        1 3CQ     -0.311900
     44 S40        -2.3700   -1.7430   -4.9250 ss        1 3CQ      0.086900
     45 S41         0.5270   -0.3950    1.4740 ss        1 3CQ     -0.148300
     46 H2         -3.9910   -6.6390   -6.9970 ha        1 3CQ      0.130000
     47 H3         -1.8670   -5.6880   -7.8540 ha        1 3CQ      0.131000
     48 H4         -6.9800    2.9180   -1.2440 ha        1 3CQ      0.136000
     49 H5          9.5480    2.6700    5.1040 ha        1 3CQ      0.144000
     50 H6         -5.9940    1.3170   -2.8770 ha        1 3CQ      0.138000
     51 H7         -5.6280    3.7110    0.6960 ha        1 3CQ      0.135000
     52 H8         -5.3290   -5.4280   -5.2700 ha        1 3CQ      0.146000
     53 H9         -1.0210   -3.4990   -7.0110 ha        1 3CQ      0.137000
     54 H10         5.5980    2.8010    1.9810 ha        1 3CQ      0.254000
     55 H11        -3.2700    4.1250    1.4980 hc        1 3CQ      0.057200
     56 H12        -3.4830    2.4860    2.2420 hc        1 3CQ      0.057200
     57 H13        -1.8300    0.1010   -0.8300 h1        1 3CQ      0.076200
     58 H14        -1.2880    1.7240   -1.4520 h1        1 3CQ      0.076200
     59 H15        -1.1710    3.5800    0.5030 h1        1 3CQ      0.057200
     60 H16        -1.1100    2.9020    2.1910 h1        1 3CQ      0.057200
     61 H17        12.8460    7.7750    0.0510 hx        1 3CQ      0.100700
     62 H18        11.8240    8.7050    1.2560 hx        1 3CQ      0.100700
     63 H19        13.3870    7.9160    1.7960 hx        1 3CQ      0.100700
     64 H20        13.5290    5.4210    1.7580 hx        1 3CQ      0.100700
     65 H21        11.9930    4.4600    1.4750 hx        1 3CQ      0.100700
     66 H22        12.8100    5.3240    0.0730 hx        1 3CQ      0.100700
     67 H23        10.8450    7.6210    3.0830 hx        1 3CQ      0.099200
     68 H24        12.2140    6.4760    3.5470 hx        1 3CQ      0.099200
     69 H25         2.8160   -2.0320    1.5850 hc        1 3CQ      0.066200
     70 H26         3.9710   -0.9710    0.6620 hc        1 3CQ      0.066200
     71 H27         3.2650   -0.6290    3.6740 hc        1 3CQ      0.046700
     72 H28         4.6920   -1.5330    3.0300 hc        1 3CQ      0.046700
     73 H29         5.2540    0.6480    1.6620 h1        1 3CQ      0.096700
     74 H30         4.0580    1.4900    2.7770 h1        1 3CQ      0.096700
     75 H31         7.2850    4.5870    1.9190 ha        1 3CQ      0.145000
     76 H32        -5.0530   -1.0450   -2.5390 hn        1 3CQ      0.342500
     77 F47         7.8620    0.6840    5.3960 f         1 3CQ     -0.126900
     78 H371       10.9140    6.5310    0.8590 hn        1 3CQ      0.457800
     79 C1          9.5180    4.7210    3.3440 cg        1 3CQ      0.143000
@<TRIPOS>BOND
     1    1    2 1   
     2    1   30 2   
     3    2    3 1   
     4    2   29 2   
     5    3    4 1   
     6    3    5 1   
     7    6   33 1   
     8    6   79 3   
     9    7    8 ar  
    10    7   13 ar  
    11    7   46 1   
    12    8   15 ar  
    13    8   47 1   
    14    9   11 ar  
    15    9   12 ar  
    16    9   48 1   
    17   10   14 ar  
    18   10   17 ar  
    19   10   49 1   
    20   11   18 ar  
    21   11   50 1   
    22   12   19 ar  
    23   12   51 1   
    24   13   21 ar  
    25   13   52 1   
    26   14   22 ar  
    27   14   77 1   
    28   15   23 ar  
    29   15   53 1   
    30   16   22 ar  
    31   16   37 ar  
    32   16   54 1   
    33   17   37 ar  
    34   17   79 1   
    35   18   20 ar  
    36   18   25 1   
    37   19   20 ar  
    38   19   26 1   
    39   20   27 1   
    40   21   23 ar  
    41   21   38 1   
    42   22   43 1   
    43   23   44 1   
    44   24   38 2   
    45   24   39 1   
    46   24   44 1   
    47   25   39 1   
    48   25   42 2   
    49   26   28 1   
    50   26   55 1   
    51   26   56 1   
    52   27   40 1   
    53   27   57 1   
    54   27   58 1   
    55   28   40 1   
    56   28   59 1   
    57   28   60 1   
    58   29   34 1   
    59   29   45 1   
    60   30   40 1   
    61   30   45 1   
    62   31   41 1   
    63   31   61 1   
    64   31   62 1   
    65   31   63 1   
    66   32   41 1   
    67   32   64 1   
    68   32   65 1   
    69   32   66 1   
    70   33   41 1   
    71   33   67 1   
    72   33   68 1   
    73   34   35 1   
    74   34   69 1   
    75   34   70 1   
    76   35   36 1   
    77   35   71 1   
    78   35   72 1   
    79   36   43 1   
    80   36   73 1   
    81   36   74 1   
    82   37   75 1   
    83   39   76 1   
    84   41   78 1   
@<TRIPOS>SUBSTRUCTURE
     1 3CQ         1 TEMP              0 ****  ****    0 ROOT
