@<TRIPOS>MOLECULE
3CQ
   79    84     1     0     0
SMALL
bcc


@<TRIPOS>ATOM
      1 N42         0.8680    1.3040    1.0240 nc        1 3CQ     -0.627000
      2 C43         1.9800    0.6520    1.5260 cc        1 3CQ      0.333800
      3 C44         3.3880    1.0530    1.1000 c         1 3CQ      0.833100
      4 O45         3.7600    2.2380    1.3440 o         1 3CQ     -0.825300
      5 O46         4.1380    0.1700    0.6060 o         1 3CQ     -0.825300
      6 C2         10.4040    4.7560    2.9900 c1        1 3CQ     -0.385100
      7 C3         -1.5230   -3.5970   -8.0620 ca        1 3CQ     -0.128000
      8 C4         -1.3560   -4.6630   -7.1610 ca        1 3CQ     -0.137000
      9 C5         -5.8570    2.4720   -1.1580 ca        1 3CQ     -0.139000
     10 C6          8.4380    2.5780    5.0180 ca        1 3CQ     -0.093000
     11 C7         -5.3280    1.3780   -1.8370 ca        1 3CQ     -0.106000
     12 C8         -5.1700    3.0150   -0.0750 ca        1 3CQ     -0.108000
     13 C9         -1.9730   -2.3610   -7.6340 ca        1 3CQ     -0.090000
     14 C10         7.3740    1.7320    5.3430 ca        1 3CQ      0.064900
     15 C11        -1.6400   -4.5040   -5.8140 ca        1 3CQ     -0.079000
     16 C12         6.2570    2.3370    3.2480 ca        1 3CQ     -0.193000
     17 C13         8.4180    3.2950    3.8090 ca        1 3CQ     -0.127000
     18 C14        -4.1120    0.8230   -1.4260 ca        1 3CQ     -0.147600
     19 C15        -3.9510    2.4690    0.3400 ca        1 3CQ     -0.069300
     20 C16        -3.4120    1.3610   -0.3350 ca        1 3CQ     -0.011300
     21 C17        -2.2690   -2.1770   -6.2660 ca        1 3CQ      0.112400
     22 C18         6.2770    1.5910    4.4400 ca        1 3CQ      0.181100
     23 C19        -2.0970   -3.2680   -5.3490 ca        1 3CQ     -0.143100
     24 C22        -2.9030   -1.1820   -4.3690 cc        1 3CQ      0.412800
     25 C23        -3.5920   -0.3700   -2.1530 c         1 3CQ      0.681700
     26 C24        -3.2450    3.0540    1.5100 c3        1 3CQ     -0.039100
     27 C25        -2.0960    0.7620    0.0690 c3        1 3CQ      0.188100
     28 C26        -1.7700    2.6640    1.5500 c3        1 3CQ      0.163800
     29 C20         1.7010   -0.3450    2.4660 cd        1 3CQ     -0.196700
     30 C21        -0.2480    0.8070    1.5880 cd        1 3CQ      0.537300
     31 C27        13.2780    5.6350    0.8150 c3        1 3CQ      0.083100
     32 C28        11.0000    5.1020    0.0970 c3        1 3CQ      0.083100
     33 C29        11.4590    5.5630    2.4880 c3        1 3CQ      0.268900
     34 C30         2.6720   -1.2580    3.0910 c3        1 3CQ     -0.002100
     35 C31         3.4170   -0.6610    4.2760 c3        1 3CQ     -0.072400
     36 C32         4.3120    0.4570    3.7860 c3        1 3CQ      0.092400
     37 C33         7.3090    3.1830    2.9450 ca        1 3CQ     -0.045000
     38 N34        -2.7310   -0.9920   -5.6900 nd        1 3CQ     -0.596100
     39 N36        -3.3570   -0.1800   -3.5150 n         1 3CQ     -0.461400
     40 N35        -1.5930    1.2240    1.3640 nh        1 3CQ     -0.683300
     41 N37        12.0030    4.9820    1.1860 n4        1 3CQ     -0.694400
     42 O38        -3.3940   -1.4740   -1.6180 o         1 3CQ     -0.564100
     43 O39         5.3030    0.7160    4.8130 os        1 3CQ     -0.311900
     44 S40        -2.5150   -2.7910   -3.7900 ss        1 3CQ      0.081900
     45 S41         0.0410   -0.4570    2.7370 ss        1 3CQ     -0.132300
     46 H2         -1.2880   -3.7530   -9.1250 ha        1 3CQ      0.130000
     47 H3         -0.9950   -5.6320   -7.5340 ha        1 3CQ      0.130000
     48 H4         -6.8160    2.9050   -1.4770 ha        1 3CQ      0.136000
     49 H5          9.2860    2.6710    5.7120 ha        1 3CQ      0.145000
     50 H6         -5.8730    0.9440   -2.6890 ha        1 3CQ      0.138000
     51 H7         -5.5850    3.8820    0.4620 ha        1 3CQ      0.135000
     52 H8         -2.1010   -1.5260   -8.3380 ha        1 3CQ      0.146000
     53 H9         -1.5050   -5.3400   -5.1120 ha        1 3CQ      0.137000
     54 H10         5.4050    2.2580    2.5270 ha        1 3CQ      0.254000
     55 H11        -3.3130    4.1740    1.4830 hc        1 3CQ      0.057700
     56 H12        -3.7570    2.7050    2.4480 hc        1 3CQ      0.057700
     57 H13        -2.2170   -0.3590    0.1530 h1        1 3CQ      0.077700
     58 H14        -1.3610    0.9680   -0.7660 h1        1 3CQ      0.077700
     59 H15        -1.2110    3.2600    0.7720 h1        1 3CQ      0.055200
     60 H16        -1.3460    2.9340    2.5580 h1        1 3CQ      0.055200
     61 H17        14.0390    5.4550    1.6210 hx        1 3CQ      0.101533
     62 H18        13.6500    5.2070   -0.1540 hx        1 3CQ      0.101533
     63 H19        13.1130    6.7380    0.6960 hx        1 3CQ      0.101533
     64 H20        10.0350    4.6300    0.4350 hx        1 3CQ      0.101533
     65 H21        10.8230    6.1850   -0.1330 hx        1 3CQ      0.101533
     66 H22        11.3780    4.5760   -0.8190 hx        1 3CQ      0.101533
     67 H23        11.1100    6.6120    2.2560 hx        1 3CQ      0.099200
     68 H24        12.3220    5.6080    3.2170 hx        1 3CQ      0.099200
     69 H25         2.1460   -2.1880    3.4400 hc        1 3CQ      0.066200
     70 H26         3.4200   -1.5600    2.3010 hc        1 3CQ      0.066200
     71 H27         2.7000   -0.2740    5.0430 hc        1 3CQ      0.047200
     72 H28         4.0370   -1.4600    4.7620 hc        1 3CQ      0.047200
     73 H29         4.8430    0.1540    2.8400 h1        1 3CQ      0.096200
     74 H30         3.7250    1.3980    3.6050 h1        1 3CQ      0.096200
     75 H31         7.2760    3.7650    2.0100 ha        1 3CQ      0.143000
     76 H32        -3.5050    0.7280   -3.9030 hn        1 3CQ      0.343500
     77 F47         7.3930    1.0420    6.5070 f         1 3CQ     -0.125900
     78 H371       12.1750    3.9790    1.3460 hn        1 3CQ      0.454800
     79 C1          9.4950    4.0930    3.4180 cg        1 3CQ      0.141000
@<TRIPOS>BOND
     1    1    2 1   
     2    1   30 2   
     3    2    3 1   
     4    2   29 2   
     5    3    4 1   
     6    3    5 1   
     7    6   33 1   
     8    6   79 3   
     9    7    8 ar  
    10    7   13 ar  
    11    7   46 1   
    12    8   15 ar  
    13    8   47 1   
    14    9   11 ar  
    15    9   12 ar  
    16    9   48 1   
    17   10   14 ar  
    18   10   17 ar  
    19   10   49 1   
    20   11   18 ar  
    21   11   50 1   
    22   12   19 ar  
    23   12   51 1   
    24   13   21 ar  
    25   13   52 1   
    26   14   22 ar  
    27   14   77 1   
    28   15   23 ar  
    29   15   53 1   
    30   16   22 ar  
    31   16   37 ar  
    32   16   54 1   
    33   17   37 ar  
    34   17   79 1   
    35   18   20 ar  
    36   18   25 1   
    37   19   20 ar  
    38   19   26 1   
    39   20   27 1   
    40   21   23 ar  
    41   21   38 1   
    42   22   43 1   
    43   23   44 1   
    44   24   38 2   
    45   24   39 1   
    46   24   44 1   
    47   25   39 1   
    48   25   42 2   
    49   26   28 1   
    50   26   55 1   
    51   26   56 1   
    52   27   40 1   
    53   27   57 1   
    54   27   58 1   
    55   28   40 1   
    56   28   59 1   
    57   28   60 1   
    58   29   34 1   
    59   29   45 1   
    60   30   40 1   
    61   30   45 1   
    62   31   41 1   
    63   31   61 1   
    64   31   62 1   
    65   31   63 1   
    66   32   41 1   
    67   32   64 1   
    68   32   65 1   
    69   32   66 1   
    70   33   41 1   
    71   33   67 1   
    72   33   68 1   
    73   34   35 1   
    74   34   69 1   
    75   34   70 1   
    76   35   36 1   
    77   35   71 1   
    78   35   72 1   
    79   36   43 1   
    80   36   73 1   
    81   36   74 1   
    82   37   75 1   
    83   39   76 1   
    84   41   78 1   
@<TRIPOS>SUBSTRUCTURE
     1 3CQ         1 TEMP              0 ****  ****    0 ROOT
