@<TRIPOS>MOLECULE
3CR
   21    21     1     0     0
SMALL
bcc


@<TRIPOS>ATOM
      1 O01         1.6200   -0.4960    1.2070 o         1 3CR     -0.812300
      2 C02         2.0690   -1.1360    0.2210 c         1 3CR      0.846300
      3 O03         2.3760   -2.3540    0.2000 o         1 3CR     -0.812300
      4 C04         2.3370   -0.3370   -1.0830 ce        1 3CR      0.319300
      5 N05         1.3590   -0.1180   -1.9100 n2        1 3CR     -0.475200
      6 O06         1.6500    0.5320   -3.0330 oh        1 3CR     -0.396500
      7 C07         3.7800    0.0500   -1.2560 c3        1 3CR     -0.100400
      8 C08         4.0800    1.4320   -0.7890 ca        1 3CR     -0.049300
      9 C09         4.9920    2.2260   -1.4960 ca        1 3CR     -0.128000
     10 C10         5.3070    3.5080   -1.0480 ca        1 3CR     -0.145500
     11 C11         4.7140    4.0100    0.1090 ca        1 3CR     -0.155000
     12 C12         3.8020    3.2240    0.8150 ca        1 3CR     -0.145500
     13 C13         3.4830    1.9420    0.3720 ca        1 3CR     -0.128000
     14 H2          0.7930    0.6020   -3.4910 ho        1 3CR      0.406000
     15 H3          4.4030   -0.6760   -0.6610 hc        1 3CR      0.058700
     16 H4          4.0750   -0.0580   -2.3360 hc        1 3CR      0.058700
     17 H5          5.4570    1.8370   -2.4130 ha        1 3CR      0.161500
     18 H6          6.0230    4.1230   -1.6100 ha        1 3CR      0.114000
     19 H7          4.9620    5.0200    0.4620 ha        1 3CR      0.108000
     20 H8          3.3280    3.6170    1.7260 ha        1 3CR      0.114000
     21 H9          2.7540    1.3120    0.9250 ha        1 3CR      0.161500
@<TRIPOS>BOND
     1    1    2 1   
     2    2    3 1   
     3    2    4 1   
     4    4    5 2   
     5    4    7 1   
     6    5    6 1   
     7    6   14 1   
     8    7    8 1   
     9    7   15 1   
    10    7   16 1   
    11    8    9 ar  
    12    8   13 ar  
    13    9   10 ar  
    14    9   17 1   
    15   10   11 ar  
    16   10   18 1   
    17   11   12 ar  
    18   11   19 1   
    19   12   13 ar  
    20   12   20 1   
    21   13   21 1   
@<TRIPOS>SUBSTRUCTURE
     1 3CR         1 TEMP              0 ****  ****    0 ROOT
