@<TRIPOS>MOLECULE
3CR
   21    21     1     0     0
SMALL
bcc


@<TRIPOS>ATOM
      1 O01         1.6280   -0.5200    1.1910 o         1 3CR     -0.812300
      2 C02         2.0800   -1.1490    0.1990 c         1 3CR      0.846300
      3 O03         2.3950   -2.3650    0.1670 o         1 3CR     -0.812300
      4 C04         2.3430   -0.3370   -1.0980 ce        1 3CR      0.319300
      5 N05         1.3640   -0.1150   -1.9220 n2        1 3CR     -0.475200
      6 O06         1.6510    0.5460   -3.0400 oh        1 3CR     -0.396500
      7 C07         3.7840    0.0590   -1.2690 c3        1 3CR     -0.100400
      8 C08         4.0780    1.4380   -0.7890 ca        1 3CR     -0.049300
      9 C09         4.9860    2.2420   -1.4880 ca        1 3CR     -0.128000
     10 C10         5.2960    3.5220   -1.0290 ca        1 3CR     -0.145500
     11 C11         4.7000    4.0100    0.1330 ca        1 3CR     -0.155000
     12 C12         3.7910    3.2140    0.8310 ca        1 3CR     -0.145500
     13 C13         3.4790    1.9350    0.3770 ca        1 3CR     -0.128000
     14 H2          0.7930    0.6160   -3.4960 ho        1 3CR      0.406000
     15 H3          4.0790   -0.0380   -2.3500 hc        1 3CR      0.058700
     16 H4          4.4110   -0.6690   -0.6810 hc        1 3CR      0.058700
     17 H5          5.4540    1.8640   -2.4090 ha        1 3CR      0.161500
     18 H6          6.0090    4.1450   -1.5850 ha        1 3CR      0.114000
     19 H7          4.9430    5.0180    0.4940 ha        1 3CR      0.108000
     20 H8          3.3160    3.5970    1.7460 ha        1 3CR      0.114000
     21 H9          2.7530    1.2960    0.9240 ha        1 3CR      0.161500
@<TRIPOS>BOND
     1    1    2 1   
     2    2    3 1   
     3    2    4 1   
     4    4    5 2   
     5    4    7 1   
     6    5    6 1   
     7    6   14 1   
     8    7    8 1   
     9    7   15 1   
    10    7   16 1   
    11    8    9 ar  
    12    8   13 ar  
    13    9   10 ar  
    14    9   17 1   
    15   10   11 ar  
    16   10   18 1   
    17   11   12 ar  
    18   11   19 1   
    19   12   13 ar  
    20   12   20 1   
    21   13   21 1   
@<TRIPOS>SUBSTRUCTURE
     1 3CR         1 TEMP              0 ****  ****    0 ROOT
