@<TRIPOS>MOLECULE
3CS
   79    83     1     0     0
SMALL
bcc


@<TRIPOS>ATOM
      1 C1         -1.5300   -1.1300   -1.2080 ca        1 3CS     -0.147300
      2 C2         -0.5400   -1.9030   -1.8670 ca        1 3CS     -0.107000
      3 C3          0.7420   -1.9560   -1.3770 ca        1 3CS     -0.136000
      4 C7         -2.8700   -1.0470   -1.6810 ca        1 3CS     -0.086000
      5 C8         -3.7800   -0.2860   -0.9970 ca        1 3CS     -0.228300
      6 C9         -3.3590    0.4170    0.1820 ca        1 3CS      0.407600
      7 C10        -4.3890    1.2240    0.9450 c3        1 3CS      0.075100
      8 C11        -6.4020    1.5350   -0.2910 ca        1 3CS      0.058100
      9 C12        -6.6770    1.4330   -1.6550 ca        1 3CS     -0.126000
     10 C13        -7.3640    1.2420    0.6960 ca        1 3CS     -0.171000
     11 C14        -8.6370    0.8330    0.3320 ca        1 3CS     -0.115000
     12 C15        -8.9380    0.7170   -1.0320 ca        1 3CS     -0.068200
     13 C16        -7.9460    1.0100   -2.0470 ca        1 3CS     -0.032800
     14 C19       -12.2630    1.1890   -0.7920 ca        1 3CS     -0.087300
     15 C20       -11.8850    2.2490    0.0370 ca        1 3CS     -0.115000
     16 C21       -12.7600    3.3090    0.2660 ca        1 3CS     -0.112500
     17 C22       -14.3970    2.2630   -1.1700 ca        1 3CS     -0.112500
     18 C24       -14.0200    3.3130   -0.3340 ca        1 3CS      0.026900
     19 N26        -2.1150    0.3680    0.6520 nb        1 3CS     -0.668000
     20 C30        -6.5030    0.6500   -4.7170 c3        1 3CS     -0.168400
     21 C31        -6.0910    0.9390   -7.1760 c3        1 3CS     -0.091433
     22 C32        -4.5790   -0.4610   -5.8010 c3        1 3CS     -0.091433
     23 C33        -6.0270   -0.0280   -6.0030 c3        1 3CS     -0.040000
     24 C34        -6.8750   -1.2540   -6.3030 c3        1 3CS     -0.091433
     25 C4          1.0870   -1.2370   -0.2080 ca        1 3CS     -0.131000
     26 C5          0.1560   -0.4790    0.4560 ca        1 3CS     -0.166300
     27 C6         -1.1910   -0.4010   -0.0270 ca        1 3CS      0.398600
     28 N17       -10.1180    0.3110   -1.6750 na        1 3CS     -0.047400
     29 C18       -11.3570    0.0080   -1.0100 c3        1 3CS      0.042600
     30 C23       -13.5210    1.2020   -1.4050 ca        1 3CS     -0.115000
     31 I25       -15.2930    4.8490    0.0080 i         1 3CS     -0.182900
     32 O27        -5.1540    2.0470    0.0660 os        1 3CS     -0.334900
     33 C28        -8.5830    0.7710   -3.3220 cc        1 3CS     -0.297400
     34 C29        -7.9840    0.9360   -4.6360 c         1 3CS      0.627300
     35 O35        -8.6300    1.3110   -5.6270 o         1 3CS     -0.567100
     36 C36        -9.9090    0.3460   -3.0580 cd        1 3CS      0.114700
     37 C37       -10.9480   -0.0120   -4.0590 c3        1 3CS     -0.058200
     38 C38       -11.3130   -1.6670   -5.8650 c3        1 3CS     -0.071600
     39 C39        -9.8210   -2.2780   -3.9860 c3        1 3CS     -0.071600
     40 C40       -11.0690   -1.5080   -4.3700 c3        1 3CS     -0.169000
     41 C41       -12.2930   -2.1540   -3.6480 c         1 3CS      0.915600
     42 O42       -13.1750   -1.3950   -3.1380 o         1 3CS     -0.840300
     43 O43       -12.3610   -3.4100   -3.6140 o         1 3CS     -0.840300
     44 H2         -0.8230   -2.4570   -2.7750 ha        1 3CS      0.134000
     45 H3          1.5120   -2.5540   -1.8850 ha        1 3CS      0.129000
     46 H7         -3.1540   -1.5970   -2.5920 ha        1 3CS      0.142000
     47 H8         -4.8260   -0.1890   -1.3280 ha        1 3CS      0.167000
     48 H101       -3.8990    1.9590    1.6430 h1        1 3CS      0.070200
     49 H102       -5.0340    0.5160    1.5270 h1        1 3CS      0.070200
     50 H12        -5.9090    1.7040   -2.3930 ha        1 3CS      0.145000
     51 H13        -7.1020    1.3520    1.7580 ha        1 3CS      0.129000
     52 H14        -9.3910    0.6030    1.0990 ha        1 3CS      0.135000
     53 H20       -10.8870    2.2510    0.5030 ha        1 3CS      0.175500
     54 H21       -12.4470    4.1380    0.9180 ha        1 3CS      0.137000
     55 H22       -15.3850    2.2580   -1.6560 ha        1 3CS      0.137000
     56 H301       -6.2160   -0.0030   -3.8490 hc        1 3CS      0.059200
     57 H302       -5.9650    1.6310   -4.6060 hc        1 3CS      0.059200
     58 H311       -5.4470    1.8290   -6.9800 hc        1 3CS      0.036256
     59 H312       -7.1420    1.2820   -7.3340 hc        1 3CS      0.036256
     60 H313       -5.7310    0.4370   -8.1060 hc        1 3CS      0.036256
     61 H321       -3.9400    0.4220   -5.5610 hc        1 3CS      0.036256
     62 H322       -4.1900   -0.9420   -6.7300 hc        1 3CS      0.036256
     63 H323       -4.5020   -1.1940   -4.9620 hc        1 3CS      0.036256
     64 H341       -6.8300   -1.9760   -5.4520 hc        1 3CS      0.036256
     65 H342       -6.5040   -1.7640   -7.2240 hc        1 3CS      0.036256
     66 H343       -7.9420   -0.9560   -6.4620 hc        1 3CS      0.036256
     67 H4          2.1210   -1.2950    0.1640 ha        1 3CS      0.128000
     68 H5          0.4290    0.0800    1.3650 ha        1 3CS      0.145000
     69 H181      -11.1100   -0.4420   -0.0050 h1        1 3CS      0.109700
     70 H182      -11.9080   -0.7750   -1.6320 h1        1 3CS      0.109700
     71 H23       -13.8110    0.3670   -2.0780 ha        1 3CS      0.175500
     72 H371      -11.9590    0.3500   -3.7100 hc        1 3CS      0.087700
     73 H372      -10.6900    0.5490   -5.0000 hc        1 3CS      0.087700
     74 H381      -12.2000   -1.0660   -6.1760 hc        1 3CS      0.027533
     75 H382      -10.4240   -1.3280   -6.4500 hc        1 3CS      0.027533
     76 H383      -11.5120   -2.7430   -6.0940 hc        1 3CS      0.027533
     77 H391       -8.9220   -1.8640   -4.5070 hc        1 3CS      0.027533
     78 H392       -9.6530   -2.2300   -2.8840 hc        1 3CS      0.027533
     79 H393       -9.9510   -3.3510   -4.2690 hc        1 3CS      0.027533
@<TRIPOS>BOND
     1    1    2 ar  
     2    1    4 ar  
     3    1   27 ar  
     4    2    3 ar  
     5    2   44 1   
     6    3   25 ar  
     7    3   45 1   
     8    4    5 ar  
     9    4   46 1   
    10    5    6 ar  
    11    5   47 1   
    12    6    7 1   
    13    6   19 ar  
    14    7   32 1   
    15    7   48 1   
    16    7   49 1   
    17    8    9 ar  
    18    8   10 ar  
    19    8   32 1   
    20    9   13 ar  
    21    9   50 1   
    22   10   11 ar  
    23   10   51 1   
    24   11   12 ar  
    25   11   52 1   
    26   12   13 ar  
    27   12   28 1   
    28   13   33 1   
    29   14   15 ar  
    30   14   29 1   
    31   14   30 ar  
    32   15   16 ar  
    33   15   53 1   
    34   16   18 ar  
    35   16   54 1   
    36   17   18 ar  
    37   17   30 ar  
    38   17   55 1   
    39   18   31 1   
    40   19   27 ar  
    41   20   23 1   
    42   20   34 1   
    43   20   56 1   
    44   20   57 1   
    45   21   23 1   
    46   21   58 1   
    47   21   59 1   
    48   21   60 1   
    49   22   23 1   
    50   22   61 1   
    51   22   62 1   
    52   22   63 1   
    53   23   24 1   
    54   24   64 1   
    55   24   65 1   
    56   24   66 1   
    57   25   26 ar  
    58   25   67 1   
    59   26   27 ar  
    60   26   68 1   
    61   28   29 1   
    62   28   36 1   
    63   29   69 1   
    64   29   70 1   
    65   30   71 1   
    66   33   34 1   
    67   33   36 2   
    68   34   35 2   
    69   36   37 1   
    70   37   40 1   
    71   37   72 1   
    72   37   73 1   
    73   38   40 1   
    74   38   74 1   
    75   38   75 1   
    76   38   76 1   
    77   39   40 1   
    78   39   77 1   
    79   39   78 1   
    80   39   79 1   
    81   40   41 1   
    82   41   42 1   
    83   41   43 1   
@<TRIPOS>SUBSTRUCTURE
     1 3CS         1 TEMP              0 ****  ****    0 ROOT
