@<TRIPOS>MOLECULE
3CS
   79    83     1     0     0
SMALL
bcc


@<TRIPOS>ATOM
      1 C1         -1.4670   -0.6150   -1.4010 ca        1 3CS     -0.147300
      2 C2         -0.5120   -1.4310   -2.0580 ca        1 3CS     -0.108000
      3 C3          0.1790   -2.3910   -1.3600 ca        1 3CS     -0.134000
      4 C7         -2.2080    0.3900   -2.0850 ca        1 3CS     -0.088000
      5 C8         -3.1180    1.1450   -1.3940 ca        1 3CS     -0.224300
      6 C9         -3.3080    0.9000    0.0080 ca        1 3CS      0.403600
      7 C10        -4.2950    1.7620    0.7680 c3        1 3CS      0.076100
      8 C11        -6.3640    1.8440   -0.4040 ca        1 3CS      0.060100
      9 C12        -6.6500    1.6160   -1.7500 ca        1 3CS     -0.116000
     10 C13        -7.2870    1.5600    0.6230 ca        1 3CS     -0.164000
     11 C14        -8.5360    1.0420    0.3160 ca        1 3CS     -0.117000
     12 C15        -8.8540    0.8170   -1.0300 ca        1 3CS     -0.065200
     13 C16        -7.8990    1.0950   -2.0840 ca        1 3CS     -0.032800
     14 C19       -12.1920    1.1290   -0.7370 ca        1 3CS     -0.086300
     15 C20       -11.8510    2.2550    0.0200 ca        1 3CS     -0.115000
     16 C21       -12.7750    3.2810    0.2090 ca        1 3CS     -0.113000
     17 C22       -14.3870    2.0700   -1.1210 ca        1 3CS     -0.113000
     18 C24       -14.0460    3.1860   -0.3580 ca        1 3CS      0.026900
     19 N26        -2.6350   -0.0280    0.6820 nb        1 3CS     -0.669000
     20 C30        -6.5030    0.6280   -4.7710 c3        1 3CS     -0.169400
     21 C31        -6.1610    0.8310   -7.2480 c3        1 3CS     -0.091433
     22 C32        -4.5720   -0.4660   -5.8590 c3        1 3CS     -0.091433
     23 C33        -6.0380   -0.0860   -6.0410 c3        1 3CS     -0.040000
     24 C34        -6.8520   -1.3490   -6.2700 c3        1 3CS     -0.091433
     25 C4         -0.0560   -2.5740    0.0230 ca        1 3CS     -0.129000
     26 C5         -0.9730   -1.8040    0.6920 ca        1 3CS     -0.165300
     27 C6         -1.7130   -0.7920   -0.0040 ca        1 3CS      0.400600
     28 N17       -10.0230    0.3100   -1.6190 na        1 3CS     -0.047400
     29 C18       -11.2310   -0.0160   -0.9090 c3        1 3CS      0.042600
     30 C23       -13.4630    1.0430   -1.3170 ca        1 3CS     -0.115000
     31 I25       -15.3890    4.6730   -0.0730 i         1 3CS     -0.183900
     32 O27        -5.1590    2.4820   -0.1060 os        1 3CS     -0.344900
     33 C28        -8.5500    0.7460   -3.3270 cc        1 3CS     -0.296400
     34 C29        -7.9910    0.8680   -4.6630 c         1 3CS      0.627300
     35 O35        -8.6750    1.1730   -5.6520 o         1 3CS     -0.568100
     36 C36        -9.8460    0.2720   -3.0070 cd        1 3CS      0.112700
     37 C37       -10.8880   -0.1920   -3.9600 c3        1 3CS     -0.057200
     38 C38       -11.1920   -1.9600   -5.6680 c3        1 3CS     -0.071600
     39 C39        -9.6550   -2.3960   -3.7770 c3        1 3CS     -0.071600
     40 C40       -10.9410   -1.7070   -4.1870 c3        1 3CS     -0.169000
     41 C41       -12.1260   -2.3700   -3.4160 c         1 3CS      0.916600
     42 O42       -13.0200   -1.6260   -2.9060 o         1 3CS     -0.840800
     43 O43       -12.1510   -3.6260   -3.3440 o         1 3CS     -0.840800
     44 H2         -0.3430   -1.2810   -3.1340 ha        1 3CS      0.132000
     45 H3          0.9190   -3.0290   -1.8660 ha        1 3CS      0.129000
     46 H7         -2.0400    0.5390   -3.1620 ha        1 3CS      0.138000
     47 H8         -3.7200    1.9310   -1.8770 ha        1 3CS      0.164000
     48 H101       -3.7260    2.5700    1.3080 h1        1 3CS      0.071700
     49 H102       -4.8780    1.1480    1.5040 h1        1 3CS      0.071700
     50 H12        -5.9090    1.8620   -2.5220 ha        1 3CS      0.138000
     51 H13        -7.0140    1.7600    1.6680 ha        1 3CS      0.129000
     52 H14        -9.2580    0.8150    1.1130 ha        1 3CS      0.135000
     53 H20       -10.8450    2.3350    0.4600 ha        1 3CS      0.175500
     54 H21       -12.4910    4.1610    0.8040 ha        1 3CS      0.137000
     55 H22       -15.3840    1.9870   -1.5810 ha        1 3CS      0.137000
     56 H301       -6.1750    0.0220   -3.8840 hc        1 3CS      0.060200
     57 H302       -5.9980    1.6300   -4.7140 hc        1 3CS      0.060200
     58 H311       -5.5400    1.7470   -7.1050 hc        1 3CS      0.036367
     59 H312       -7.2260    1.1370   -7.3910 hc        1 3CS      0.036367
     60 H313       -5.8110    0.3030   -8.1680 hc        1 3CS      0.036367
     61 H321       -3.9580    0.4420   -5.6500 hc        1 3CS      0.036367
     62 H322       -4.1850   -0.9530   -6.7860 hc        1 3CS      0.036367
     63 H323       -4.4570   -1.1790   -5.0080 hc        1 3CS      0.036367
     64 H341       -6.7600   -2.0350   -5.3940 hc        1 3CS      0.036367
     65 H342       -6.4880   -1.8820   -7.1810 hc        1 3CS      0.036367
     66 H343       -7.9320   -1.0930   -6.4110 hc        1 3CS      0.036367
     67 H4          0.5080   -3.3520    0.5590 ha        1 3CS      0.129000
     68 H5         -1.1570   -1.9520    1.7670 ha        1 3CS      0.146000
     69 H181      -10.9400   -0.3930    0.1140 h1        1 3CS      0.110200
     70 H182      -11.7540   -0.8600   -1.4730 h1        1 3CS      0.110200
     71 H23       -13.7240    0.1570   -1.9340 ha        1 3CS      0.175500
     72 H371      -11.9070    0.1390   -3.6050 hc        1 3CS      0.086700
     73 H372      -10.6800    0.3280   -4.9360 hc        1 3CS      0.086700
     74 H381      -12.1100   -1.4190   -6.0010 hc        1 3CS      0.027533
     75 H382      -10.3250   -1.6130   -6.2820 hc        1 3CS      0.027533
     76 H383      -11.3420   -3.0550   -5.8340 hc        1 3CS      0.027533
     77 H391       -8.7830   -1.9740   -4.3340 hc        1 3CS      0.027533
     78 H392       -9.4760   -2.2760   -2.6820 hc        1 3CS      0.027533
     79 H393       -9.7390   -3.4890   -3.9950 hc        1 3CS      0.027533
@<TRIPOS>BOND
     1    1    2 ar  
     2    1    4 ar  
     3    1   27 ar  
     4    2    3 ar  
     5    2   44 1   
     6    3   25 ar  
     7    3   45 1   
     8    4    5 ar  
     9    4   46 1   
    10    5    6 ar  
    11    5   47 1   
    12    6    7 1   
    13    6   19 ar  
    14    7   32 1   
    15    7   48 1   
    16    7   49 1   
    17    8    9 ar  
    18    8   10 ar  
    19    8   32 1   
    20    9   13 ar  
    21    9   50 1   
    22   10   11 ar  
    23   10   51 1   
    24   11   12 ar  
    25   11   52 1   
    26   12   13 ar  
    27   12   28 1   
    28   13   33 1   
    29   14   15 ar  
    30   14   29 1   
    31   14   30 ar  
    32   15   16 ar  
    33   15   53 1   
    34   16   18 ar  
    35   16   54 1   
    36   17   18 ar  
    37   17   30 ar  
    38   17   55 1   
    39   18   31 1   
    40   19   27 ar  
    41   20   23 1   
    42   20   34 1   
    43   20   56 1   
    44   20   57 1   
    45   21   23 1   
    46   21   58 1   
    47   21   59 1   
    48   21   60 1   
    49   22   23 1   
    50   22   61 1   
    51   22   62 1   
    52   22   63 1   
    53   23   24 1   
    54   24   64 1   
    55   24   65 1   
    56   24   66 1   
    57   25   26 ar  
    58   25   67 1   
    59   26   27 ar  
    60   26   68 1   
    61   28   29 1   
    62   28   36 1   
    63   29   69 1   
    64   29   70 1   
    65   30   71 1   
    66   33   34 1   
    67   33   36 2   
    68   34   35 2   
    69   36   37 1   
    70   37   40 1   
    71   37   72 1   
    72   37   73 1   
    73   38   40 1   
    74   38   74 1   
    75   38   75 1   
    76   38   76 1   
    77   39   40 1   
    78   39   77 1   
    79   39   78 1   
    80   39   79 1   
    81   40   41 1   
    82   41   42 1   
    83   41   43 1   
@<TRIPOS>SUBSTRUCTURE
     1 3CS         1 TEMP              0 ****  ****    0 ROOT
