@<TRIPOS>MOLECULE
3CS
   79    67     1     0     0
SMALL
bcc


@<TRIPOS>ATOM
      1 C1          7.2550    3.7560    0.5140 c1        1 3CS     -0.082000
      2 C2          8.4310    4.5410    0.5190 c2        1 3CS     -0.110000
      3 C3          8.3420    5.9300    0.5040 c1        1 3CS     -0.134000
      4 C7          7.3420    2.3660    0.5190 c1        1 3CS     -0.091000
      5 C8          6.1970    1.6060    0.5050 c1        1 3CS     -0.155000
      6 C9          4.9460    2.2280    0.4850 c1        1 3CS     -0.025000
      7 C10         3.6430    1.4550    0.7250 c2        1 3CS      0.019000
      8 C11         1.5830    1.0150   -0.4000 c1        1 3CS      0.020000
      9 C12         1.0040   -0.2470   -0.2580 c1        1 3CS     -0.109500
     10 C13         0.7810    2.1590   -0.3730 c1        1 3CS     -0.184000
     11 C14        -0.6000    2.0400   -0.2040 c1        1 3CS     -0.109500
     12 C15        -1.1870    0.7620   -0.0600 c1        1 3CS     -0.023500
     13 C16        -0.3940   -0.3680   -0.0870 c1        1 3CS     -0.023500
     14 C19        -4.5570    1.6790   -0.1400 c1        1 3CS     -0.082000
     15 C20        -4.6000    2.9380    0.4520 c1        1 3CS     -0.111500
     16 C21        -5.3590    3.9520   -0.1220 c1        1 3CS     -0.111500
     17 C22        -6.0340    2.4530   -1.8800 c1        1 3CS     -0.116000
     18 C24        -6.0750    3.7090   -1.2870 c1        1 3CS     -0.259000
     19 N26         4.8600    3.5960    0.4800 n2        1 3CS     -0.143000
     20 C30        -0.5540   -3.8910   -0.8870 c3        1 3CS     -0.209000
     21 C31         1.2120   -3.8930   -2.6920 c3        1 3CS     -0.209000
     22 C32         0.1130   -6.0510   -2.0240 c3        1 3CS     -0.209000
     23 C33        -0.1020   -4.5380   -2.2290 c3        1 3CS     -0.038000
     24 C34        -1.1860   -4.3150   -3.2950 c3        1 3CS     -0.209000
     25 C4          7.0860    6.5510    0.4850 c1        1 3CS     -0.111500
     26 C5          5.9280    5.7790    0.4800 c1        1 3CS     -0.111500
     27 C6          6.0180    4.3680    0.4950 c1        1 3CS      0.004000
     28 N17        -2.5110    0.3570    0.1190 n1        1 3CS     -0.141000
     29 C18        -3.8780    0.5080    0.5990 c2        1 3CS     -0.020000
     30 C23        -5.2750    1.4370   -1.3060 c1        1 3CS     -0.128000
     31 I25        -4.1460    2.8970   -1.5360 i         1 3CS      0.102000
     32 O27         2.9840    1.2380   -0.5200 os        1 3CS     -0.220000
     33 C28        -1.2200   -1.4750    0.0750 c1        1 3CS     -0.281000
     34 C29        -0.9440   -2.4130   -1.1310 c1        1 3CS      0.316000
     35 O35        -1.0950   -2.0030   -2.2680 o         1 3CS     -0.350000
     36 C36        -2.5280   -1.0200    0.2020 c1        1 3CS      0.127000
     37 C37        -3.1950   -2.2610    0.8520 c2        1 3CS     -0.135000
     38 C38        -4.6400   -1.8250    2.8730 c3        1 3CS     -0.191500
     39 C39        -2.6810   -3.3850    3.0500 c3        1 3CS     -0.191500
     40 C40        -3.2030   -2.0970    2.3940 c3        1 3CS     -0.125000
     41 C41        -2.3020   -0.9230    2.7880 c2        1 3CS      0.336000
     42 O42        -2.7450   -0.0160    3.5520 o         1 3CS     -0.570500
     43 O43        -1.0860   -0.9220    2.4480 o         1 3CS     -0.570500
     44 H2          9.3110    4.1060    0.5330 ha        1 3CS      0.131000
     45 H3          9.1580    6.4740    0.5050 ha        1 3CS      0.129000
     46 H7          8.2220    1.9850    0.3100 ha        1 3CS      0.138000
     47 H8          6.4780    0.6730    0.6300 ha        1 3CS      0.170000
     48 H101        3.8480    0.5900    1.1420 h4        1 3CS      0.114500
     49 H102        3.0580    1.9750    1.3190 h4        1 3CS      0.114500
     50 H12         1.5710   -1.0500   -0.2590 ha        1 3CS      0.151500
     51 H13         1.1830    3.0450   -0.5110 ha        1 3CS      0.134000
     52 H14        -1.1620    2.8410   -0.1850 ha        1 3CS      0.151500
     53 H20        -4.1210    3.1000    1.2930 ha        1 3CS      0.158250
     54 H21        -5.3880    4.8380    0.2950 ha        1 3CS      0.158250
     55 H22        -6.5730    2.2710   -2.6760 ha        1 3CS      0.132000
     56 H301       -1.3270   -4.3790   -0.5330 hc        1 3CS      0.114000
     57 H302        0.1830   -3.9320   -0.2400 hc        1 3CS      0.114000
     58 H311        1.8470   -3.8670   -1.9420 hc        1 3CS      0.074556
     59 H312        1.5960   -4.4220   -3.4290 hc        1 3CS      0.074556
     60 H313        1.0350   -2.9780   -3.0030 hc        1 3CS      0.074556
     61 H321       -0.7570   -6.4890   -1.8770 hc        1 3CS      0.074556
     62 H322        0.5420   -6.4320   -2.8230 hc        1 3CS      0.074556
     63 H323        0.6900   -6.1970   -1.2400 hc        1 3CS      0.074556
     64 H341       -1.1420   -5.0380   -3.9640 hc        1 3CS      0.074556
     65 H342       -1.0360   -3.4490   -3.7380 hc        1 3CS      0.074556
     66 H343       -2.0710   -4.3160   -2.8690 hc        1 3CS      0.074556
     67 H4          7.0230    7.5300    0.4750 ha        1 3CS      0.158250
     68 H5          5.0510    6.2140    0.4780 ha        1 3CS      0.158250
     69 H181       -4.3760   -0.3170    0.4290 ha        1 3CS      0.146000
     70 H182       -3.8680    0.6910    1.5610 ha        1 3CS      0.146000
     71 H23        -5.2470    0.5500   -1.7250 ha        1 3CS      0.140000
     72 H371       -4.1180   -2.3450    0.5270 ha        1 3CS      0.113500
     73 H372       -2.6900   -3.0660    0.6120 ha        1 3CS      0.113500
     74 H381       -4.6190   -1.4930    3.7950 hc        1 3CS      0.067500
     75 H382       -5.1610   -2.6590    2.8360 hc        1 3CS      0.067500
     76 H383       -5.0570   -1.1520    2.2910 hc        1 3CS      0.067500
     77 H391       -2.7460   -3.3050    4.0280 hc        1 3CS      0.067500
     78 H392       -3.2200   -4.1490    2.7470 hc        1 3CS      0.067500
     79 H393       -1.7410   -3.5250    2.7950 hc        1 3CS      0.067500
@<TRIPOS>BOND
     1    1    2 1   
     2    1    4 1   
     3    2    3 1   
     4    2   44 1   
     5    3   45 1   
     6    4   46 1   
     7    5    6 1   
     8    5   47 1   
     9    6   19 1   
    10    7   32 1   
    11    7   48 1   
    12    7   49 1   
    13    8   10 1   
    14    8   32 1   
    15    9   13 1   
    16    9   50 1   
    17   10   51 1   
    18   11   12 1   
    19   11   52 1   
    20   14   29 1   
    21   14   30 1   
    22   15   16 1   
    23   15   53 1   
    24   16   54 1   
    25   17   18 1   
    26   17   55 1   
    27   18   31 1   
    28   19   27 1   
    29   20   23 1   
    30   20   34 1   
    31   20   56 1   
    32   20   57 1   
    33   21   23 1   
    34   21   58 1   
    35   21   59 1   
    36   21   60 1   
    37   22   23 1   
    38   22   61 1   
    39   22   62 1   
    40   22   63 1   
    41   23   24 1   
    42   24   64 1   
    43   24   65 1   
    44   24   66 1   
    45   25   26 1   
    46   25   67 1   
    47   26   68 1   
    48   28   36 1   
    49   29   69 1   
    50   29   70 1   
    51   30   71 1   
    52   33   36 1   
    53   34   35 1   
    54   37   40 1   
    55   37   72 1   
    56   37   73 1   
    57   38   40 1   
    58   38   74 1   
    59   38   75 1   
    60   38   76 1   
    61   39   40 1   
    62   39   77 1   
    63   39   78 1   
    64   39   79 1   
    65   40   41 1   
    66   41   42 1   
    67   41   43 1   
@<TRIPOS>SUBSTRUCTURE
     1 3CS         1 TEMP              0 ****  ****    0 ROOT
