@<TRIPOS>MOLECULE
3CS
   79    83     1     0     0
SMALL
bcc


@<TRIPOS>ATOM
      1 C1         -7.2060    0.3040   -0.3090 ca        1 3CS     -0.147300
      2 C2         -8.2590    1.2540   -0.3160 ca        1 3CS     -0.108000
      3 C3         -9.2370    1.2140    0.6460 ca        1 3CS     -0.134000
      4 C7         -6.1700    0.3090   -1.2860 ca        1 3CS     -0.088000
      5 C8         -5.1790   -0.6350   -1.2230 ca        1 3CS     -0.224300
      6 C9         -5.2060   -1.6060   -0.1660 ca        1 3CS      0.403600
      7 C10        -4.1230   -2.6630   -0.1240 c3        1 3CS      0.076100
      8 C11        -1.9860   -1.6360   -0.3270 ca        1 3CS      0.060100
      9 C12        -1.6250   -0.4000   -0.8630 ca        1 3CS     -0.116000
     10 C13        -1.2780   -2.2350    0.7330 ca        1 3CS     -0.164000
     11 C14        -0.1710   -1.6030    1.2800 ca        1 3CS     -0.117000
     12 C15         0.2210   -0.3660    0.7510 ca        1 3CS     -0.065200
     13 C16        -0.5170    0.2570   -0.3290 ca        1 3CS     -0.032800
     14 C19         3.4810   -0.5720    1.5610 ca        1 3CS     -0.086300
     15 C20         3.3530   -1.8670    1.0490 ca        1 3CS     -0.115000
     16 C21         4.4790   -2.5650    0.6150 ca        1 3CS     -0.113000
     17 C22         5.8690   -0.6760    1.1920 ca        1 3CS     -0.113000
     18 C24         5.7390   -1.9710    0.6910 ca        1 3CS      0.026900
     19 N26        -6.1570   -1.6440    0.7640 nb        1 3CS     -0.669000
     20 C30        -1.6930    2.6050   -1.9070 c3        1 3CS     -0.169400
     21 C31        -1.7090    4.4580   -3.5990 c3        1 3CS     -0.091433
     22 C32        -3.7090    4.0020   -2.2100 c3        1 3CS     -0.091433
     23 C33        -2.1840    4.0190   -2.2230 c3        1 3CS     -0.040000
     24 C34        -1.6910    5.0010   -1.1720 c3        1 3CS     -0.091433
     25 C4         -9.2030    0.2250    1.6570 ca        1 3CS     -0.129000
     26 C5         -8.1990   -0.7100    1.6960 ca        1 3CS     -0.165300
     27 C6         -7.1620   -0.6990    0.7080 ca        1 3CS      0.400600
     28 N17         1.2820    0.4820    1.1040 na        1 3CS     -0.047400
     29 C18         2.2890    0.1800    2.0870 c3        1 3CS      0.042600
     30 C23         4.7440    0.0280    1.6240 ca        1 3CS     -0.115000
     31 I25         7.3720   -2.9910    0.0690 i         1 3CS     -0.183900
     32 O27        -3.0190   -2.3290   -0.9610 os        1 3CS     -0.344900
     33 C28         0.1540    1.5050   -0.6160 cc        1 3CS     -0.296400
     34 C29        -0.2120    2.4730   -1.6370 c         1 3CS      0.627300
     35 O35         0.6270    3.1330   -2.2680 o         1 3CS     -0.568100
     36 C36         1.2500    1.6100    0.2760 cd        1 3CS      0.112700
     37 C37         2.2370    2.7180    0.3510 c3        1 3CS     -0.057200
     38 C38         2.2700    5.1560    0.7910 c3        1 3CS     -0.071600
     39 C39         0.4820    3.7920    1.8260 c3        1 3CS     -0.071600
     40 C40         1.9350    3.7980    1.3950 c3        1 3CS     -0.169000
     41 C41         2.8290    3.6440    2.6670 c         1 3CS      0.916600
     42 O42         3.8210    2.8530    2.6280 o         1 3CS     -0.840800
     43 O43         2.5320    4.3290    3.6800 o         1 3CS     -0.840800
     44 H2         -8.2710    2.0210   -1.1050 ha        1 3CS      0.132000
     45 H3        -10.0540    1.9510    0.6460 ha        1 3CS      0.129000
     46 H7         -6.1810    1.0770   -2.0740 ha        1 3CS      0.138000
     47 H8         -4.3540   -0.6710   -1.9500 ha        1 3CS      0.164000
     48 H101       -3.7920   -2.8560    0.9300 h1        1 3CS      0.071700
     49 H102       -4.5270   -3.6110   -0.5800 h1        1 3CS      0.071700
     50 H12        -2.1950    0.0290   -1.6980 ha        1 3CS      0.138000
     51 H13        -1.6010   -3.2120    1.1180 ha        1 3CS      0.129000
     52 H14         0.3820   -2.0640    2.1100 ha        1 3CS      0.135000
     53 H20         2.3580   -2.3330    0.9800 ha        1 3CS      0.175500
     54 H21         4.3620   -3.5820    0.2110 ha        1 3CS      0.137000
     55 H22         6.8570   -0.1930    1.2500 ha        1 3CS      0.137000
     56 H301       -2.2540    2.2280   -1.0100 hc        1 3CS      0.060200
     57 H302       -1.9350    1.9360   -2.7760 hc        1 3CS      0.060200
     58 H311       -2.0940    3.7620   -4.3830 hc        1 3CS      0.036367
     59 H312       -2.0810    5.4860   -3.8230 hc        1 3CS      0.036367
     60 H313       -0.5920    4.4600   -3.6370 hc        1 3CS      0.036367
     61 H321       -4.0880    3.7310   -1.1960 hc        1 3CS      0.036367
     62 H322       -4.1050    5.0110   -2.4790 hc        1 3CS      0.036367
     63 H323       -4.0960    3.2590   -2.9470 hc        1 3CS      0.036367
     64 H341       -0.5730    5.0320   -1.1670 hc        1 3CS      0.036367
     65 H342       -2.0780    6.0250   -1.3900 hc        1 3CS      0.036367
     66 H343       -2.0440    4.6940   -0.1580 hc        1 3CS      0.036367
     67 H4         -9.9970    0.2170    2.4190 ha        1 3CS      0.129000
     68 H5         -8.1730   -1.4760    2.4870 ha        1 3CS      0.146000
     69 H181        1.8060   -0.4390    2.8980 h1        1 3CS      0.110200
     70 H182        2.6410    1.1660    2.5430 h1        1 3CS      0.110200
     71 H23         4.8400    1.0630    2.0130 ha        1 3CS      0.175500
     72 H371        3.2640    2.3020    0.5720 hc        1 3CS      0.086700
     73 H372        2.2700    3.1830   -0.6740 hc        1 3CS      0.086700
     74 H381        1.5870    5.3890   -0.0620 hc        1 3CS      0.027533
     75 H382        2.1590    5.9450    1.5740 hc        1 3CS      0.027533
     76 H383        3.3230    5.1640    0.4230 hc        1 3CS      0.027533
     77 H391        0.2240    2.8280    2.3260 hc        1 3CS      0.027533
     78 H392        0.3130    4.6170    2.5600 hc        1 3CS      0.027533
     79 H393       -0.1940    3.9350    0.9470 hc        1 3CS      0.027533
@<TRIPOS>BOND
     1    1    2 ar  
     2    1    4 ar  
     3    1   27 ar  
     4    2    3 ar  
     5    2   44 1   
     6    3   25 ar  
     7    3   45 1   
     8    4    5 ar  
     9    4   46 1   
    10    5    6 ar  
    11    5   47 1   
    12    6    7 1   
    13    6   19 ar  
    14    7   32 1   
    15    7   48 1   
    16    7   49 1   
    17    8    9 ar  
    18    8   10 ar  
    19    8   32 1   
    20    9   13 ar  
    21    9   50 1   
    22   10   11 ar  
    23   10   51 1   
    24   11   12 ar  
    25   11   52 1   
    26   12   13 ar  
    27   12   28 1   
    28   13   33 1   
    29   14   15 ar  
    30   14   29 1   
    31   14   30 ar  
    32   15   16 ar  
    33   15   53 1   
    34   16   18 ar  
    35   16   54 1   
    36   17   18 ar  
    37   17   30 ar  
    38   17   55 1   
    39   18   31 1   
    40   19   27 ar  
    41   20   23 1   
    42   20   34 1   
    43   20   56 1   
    44   20   57 1   
    45   21   23 1   
    46   21   58 1   
    47   21   59 1   
    48   21   60 1   
    49   22   23 1   
    50   22   61 1   
    51   22   62 1   
    52   22   63 1   
    53   23   24 1   
    54   24   64 1   
    55   24   65 1   
    56   24   66 1   
    57   25   26 ar  
    58   25   67 1   
    59   26   27 ar  
    60   26   68 1   
    61   28   29 1   
    62   28   36 1   
    63   29   69 1   
    64   29   70 1   
    65   30   71 1   
    66   33   34 1   
    67   33   36 2   
    68   34   35 2   
    69   36   37 1   
    70   37   40 1   
    71   37   72 1   
    72   37   73 1   
    73   38   40 1   
    74   38   74 1   
    75   38   75 1   
    76   38   76 1   
    77   39   40 1   
    78   39   77 1   
    79   39   78 1   
    80   39   79 1   
    81   40   41 1   
    82   41   42 1   
    83   41   43 1   
@<TRIPOS>SUBSTRUCTURE
     1 3CS         1 TEMP              0 ****  ****    0 ROOT
