@<TRIPOS>MOLECULE
3CU
   29    30     1     0     0
SMALL
bcc


@<TRIPOS>ATOM
      1 O7          0.1300    0.2080   -0.1650 oh        1 3CU     -0.585800
      2 C7          1.5340    0.0650   -0.0680 c3        1 3CU      0.134100
      3 C7A         1.8890    0.0270    1.4390 c3        1 3CU      0.169500
      4 C1          2.6920    1.2690    1.8920 c3        1 3CU      0.098100
      5 O1          1.8710    1.9770    2.8020 oh        1 3CU     -0.581800
      6 C2          3.9630    0.7160    2.5780 c3        1 3CU      0.088100
      7 O2          5.1390    1.2410    1.9900 oh        1 3CU     -0.592800
      8 C3          3.9700   -0.8130    2.3110 c3        1 3CU      0.129500
      9 C8          4.2490   -1.5790    3.6170 c3        1 3CU      0.144400
     10 O8          3.3880   -1.2180    4.6750 oh        1 3CU     -0.602800
     11 N4          2.6760   -1.1910    1.7240 n3        1 3CU     -0.703600
     12 C5          2.7580   -2.0000    0.5120 c3        1 3CU      0.127800
     13 C6          1.9910   -1.3010   -0.6340 c3        1 3CU      0.083100
     14 OXT         2.8170   -1.0330   -1.7520 oh        1 3CU     -0.597800
     15 H7         -0.0710    0.3270   -1.1010 ho        1 3CU      0.407000
     16 HA          2.0530    0.9020   -0.6060 h1        1 3CU      0.067700
     17 H7A         0.9350   -0.0350    2.0400 h1        1 3CU      0.116700
     18 H6          1.1060   -1.9150   -0.9530 h1        1 3CU      0.058700
     19 H1          2.9690    1.9300    1.0270 h1        1 3CU      0.055700
     20 HB          2.3750    2.7470    3.0910 ho        1 3CU      0.399000
     21 H2          3.9380    0.9250    3.6830 h1        1 3CU      0.078700
     22 HC          5.2130    2.1570    2.2830 ho        1 3CU      0.401000
     23 H3          4.8300   -1.0410    1.6120 h1        1 3CU      0.071700
     24 H8C1        5.2760   -1.3060    3.9810 h1        1 3CU      0.049700
     25 H8C2        4.1930   -2.6850    3.4320 h1        1 3CU      0.049700
     26 H8          2.4830   -1.3930    4.3880 ho        1 3CU      0.416000
     27 H5C1        2.2690   -2.9850    0.7490 h1        1 3CU      0.055200
     28 H5C2        3.8170   -2.2030    0.1910 h1        1 3CU      0.055200
     29 HOT         3.1560   -1.8820   -2.0620 ho        1 3CU      0.406000
@<TRIPOS>BOND
     1    1    2 1   
     2    1   15 1   
     3    2    3 1   
     4    2   13 1   
     5    2   16 1   
     6    3    4 1   
     7    3   11 1   
     8    3   17 1   
     9    4    5 1   
    10    4    6 1   
    11    4   19 1   
    12    5   20 1   
    13    6    7 1   
    14    6    8 1   
    15    6   21 1   
    16    7   22 1   
    17    8    9 1   
    18    8   11 1   
    19    8   23 1   
    20    9   10 1   
    21    9   24 1   
    22    9   25 1   
    23   10   26 1   
    24   11   12 1   
    25   12   13 1   
    26   12   27 1   
    27   12   28 1   
    28   13   14 1   
    29   13   18 1   
    30   14   29 1   
@<TRIPOS>SUBSTRUCTURE
     1 3CU         1 TEMP              0 ****  ****    0 ROOT
