@<TRIPOS>MOLECULE
3CU
   29    30     1     0     0
SMALL
bcc


@<TRIPOS>ATOM
      1 O7          0.1290    0.2170   -0.2390 oh        1 3CU     -0.584800
      2 C7          1.5300    0.0750   -0.1020 c3        1 3CU      0.133100
      3 C7A         1.8460    0.0760    1.4150 c3        1 3CU      0.163500
      4 C1          2.6370    1.3310    1.8540 c3        1 3CU      0.139100
      5 O1          1.7900    2.0900    2.6950 oh        1 3CU     -0.585800
      6 C2          3.8570    0.7890    2.6320 c3        1 3CU      0.089100
      7 O2          5.0000    1.4870    2.1760 oh        1 3CU     -0.595800
      8 C3          3.9350   -0.7240    2.2870 c3        1 3CU      0.090500
      9 C8          4.3260   -1.5430    3.5290 c3        1 3CU      0.143400
     10 O8          3.5160   -1.2820    4.6520 oh        1 3CU     -0.601800
     11 N4          2.6280   -1.1330    1.7510 n3        1 3CU     -0.697600
     12 C5          2.6870   -1.9990    0.5770 c3        1 3CU      0.126800
     13 C6          1.9950   -1.3080   -0.6210 c3        1 3CU      0.081100
     14 OXT         2.8880   -1.0720   -1.6940 oh        1 3CU     -0.596800
     15 H7         -0.0440    0.3480   -1.1800 ho        1 3CU      0.407000
     16 HA          2.0660    0.8960   -0.6480 h1        1 3CU      0.069700
     17 H7A         0.8760    0.0270    1.9920 h1        1 3CU      0.117700
     18 H6          1.1190   -1.9140   -0.9760 h1        1 3CU      0.058700
     19 H1          2.9740    1.9510    0.9800 h1        1 3CU      0.066700
     20 HB          2.2850    2.8800    2.9420 ho        1 3CU      0.409000
     21 H2          3.7200    0.9320    3.7390 h1        1 3CU      0.080700
     22 HC          5.7470    1.1670    2.6960 ho        1 3CU      0.407000
     23 H3          4.7630   -0.8660    1.5280 h1        1 3CU      0.056700
     24 H8C1        5.3600   -1.2410    3.8490 h1        1 3CU      0.043700
     25 H8C2        4.3130   -2.6400    3.2880 h1        1 3CU      0.043700
     26 H8          2.6020   -1.4730    4.4040 ho        1 3CU      0.419000
     27 H5C1        3.7390   -2.2830    0.3000 h1        1 3CU      0.055700
     28 H5C2        2.1300   -2.9390    0.8430 h1        1 3CU      0.055700
     29 HOT         3.2000   -1.9340   -1.9940 ho        1 3CU      0.405000
@<TRIPOS>BOND
     1    1    2 1   
     2    1   15 1   
     3    2    3 1   
     4    2   13 1   
     5    2   16 1   
     6    3    4 1   
     7    3   11 1   
     8    3   17 1   
     9    4    5 1   
    10    4    6 1   
    11    4   19 1   
    12    5   20 1   
    13    6    7 1   
    14    6    8 1   
    15    6   21 1   
    16    7   22 1   
    17    8    9 1   
    18    8   11 1   
    19    8   23 1   
    20    9   10 1   
    21    9   24 1   
    22    9   25 1   
    23   10   26 1   
    24   11   12 1   
    25   12   13 1   
    26   12   27 1   
    27   12   28 1   
    28   13   14 1   
    29   13   18 1   
    30   14   29 1   
@<TRIPOS>SUBSTRUCTURE
     1 3CU         1 TEMP              0 ****  ****    0 ROOT
