@<TRIPOS>MOLECULE
3CU
   29    30     1     0     0
SMALL
bcc


@<TRIPOS>ATOM
      1 O7         -3.0490   -0.0430   -0.9740 oh        1 3CU     -0.594800
      2 C7         -1.6030   -0.0430   -0.9740 c3        1 3CU      0.129100
      3 C7A        -1.1300   -0.0430    0.3040 c3        1 3CU      0.130500
      4 C1         -0.7580    1.1940    0.6850 c3        1 3CU      0.135100
      5 O1         -0.8700    1.3260    2.0990 oh        1 3CU     -0.592800
      6 C2          0.7960    1.3590    0.2280 c3        1 3CU      0.128100
      7 O2          0.8650    1.7180   -1.1250 oh        1 3CU     -0.591800
      8 C3          1.3910    0.1250    0.4240 c3        1 3CU      0.094500
      9 C8          1.9950    0.0530    1.7780 c3        1 3CU      0.141400
     10 O8          3.1330   -0.7770    1.7410 oh        1 3CU     -0.600800
     11 N4          0.2360   -0.9150    0.2900 n3        1 3CU     -0.698600
     12 C5          0.0250   -1.9130   -0.5640 c3        1 3CU      0.126800
     13 C6         -1.0640   -1.3570   -1.5990 c3        1 3CU      0.088100
     14 OXT        -0.5040   -1.1130   -2.7620 oh        1 3CU     -0.595800
     15 H7         -3.3450    0.4220   -1.6700 ho        1 3CU      0.412000
     16 HA         -1.2620    0.7310   -1.4620 h1        1 3CU      0.070700
     17 H7A        -1.7830   -0.4210    0.9230 h1        1 3CU      0.101700
     18 H6         -1.7890   -2.0020   -1.7020 h1        1 3CU      0.058700
     19 H1         -1.3120    1.8630    0.2390 h1        1 3CU      0.071700
     20 HB         -1.4350    1.9830    2.2910 ho        1 3CU      0.412000
     21 H2          1.2360    2.0350    0.7780 h1        1 3CU      0.072700
     22 HC          1.2900    2.4930   -1.2040 ho        1 3CU      0.406000
     23 H3          2.0700   -0.0340   -0.2590 h1        1 3CU      0.066700
     24 H8C1        1.3440   -0.3140    2.4050 h1        1 3CU      0.050700
     25 H8C2        2.2550    0.9490    2.0660 h1        1 3CU      0.050700
     26 H8          3.5440   -0.7500    2.5280 ho        1 3CU      0.410000
     27 H5C1        0.8520   -2.1390   -1.0310 h1        1 3CU      0.054700
     28 H5C2       -0.3230   -2.6940   -0.0920 h1        1 3CU      0.054700
     29 HOT        -0.8050   -1.6930   -3.3620 ho        1 3CU      0.408000
@<TRIPOS>BOND
     1    1    2 1   
     2    1   15 1   
     3    2    3 1   
     4    2   13 1   
     5    2   16 1   
     6    3    4 1   
     7    3   11 1   
     8    3   17 1   
     9    4    5 1   
    10    4    6 1   
    11    4   19 1   
    12    5   20 1   
    13    6    7 1   
    14    6    8 1   
    15    6   21 1   
    16    7   22 1   
    17    8    9 1   
    18    8   11 1   
    19    8   23 1   
    20    9   10 1   
    21    9   24 1   
    22    9   25 1   
    23   10   26 1   
    24   11   12 1   
    25   12   13 1   
    26   12   27 1   
    27   12   28 1   
    28   13   14 1   
    29   13   18 1   
    30   14   29 1   
@<TRIPOS>SUBSTRUCTURE
     1 3CU         1 TEMP              0 ****  ****    0 ROOT
