@<TRIPOS>MOLECULE
3CU
   29    30     1     0     0
SMALL
bcc


@<TRIPOS>ATOM
      1 O7          0.1190   -0.0650   -0.3800 oh        1 3CU     -0.592800
      2 C7          1.5180   -0.0330   -0.1650 c3        1 3CU      0.133100
      3 C7A         1.8560    0.0350    1.3460 c3        1 3CU      0.127500
      4 C1          2.6410    1.3140    1.7240 c3        1 3CU      0.132100
      5 O1          1.7590    2.1520    2.4440 oh        1 3CU     -0.595800
      6 C2          3.8110    0.8160    2.6000 c3        1 3CU      0.091100
      7 O2          4.9700    1.5260    2.2120 oh        1 3CU     -0.595800
      8 C3          3.9330   -0.7030    2.2940 c3        1 3CU      0.091500
      9 C8          4.3030   -1.4830    3.5670 c3        1 3CU      0.142400
     10 O8          3.4420   -1.2240    4.6520 oh        1 3CU     -0.601800
     11 N4          2.6510   -1.1510    1.7280 n3        1 3CU     -0.696600
     12 C5          2.7570   -2.0380    0.5730 c3        1 3CU      0.123800
     13 C6          2.0790   -1.3860   -0.6570 c3        1 3CU      0.121100
     14 OXT         3.0260   -1.0990   -1.6710 oh        1 3CU     -0.593800
     15 H7         -0.2340    0.7640   -0.0330 ho        1 3CU      0.413000
     16 HA          1.9770    0.8180   -0.7370 h1        1 3CU      0.071700
     17 H7A         0.9000   -0.0010    1.9440 h1        1 3CU      0.100700
     18 H6          1.2540   -2.0340   -1.0560 h1        1 3CU      0.072700
     19 H1          3.0350    1.8550    0.8210 h1        1 3CU      0.068700
     20 HB          2.2750    2.9180    2.7260 ho        1 3CU      0.413000
     21 H2          3.5930    0.9800    3.6910 h1        1 3CU      0.079700
     22 HC          5.6890    1.2120    2.7740 ho        1 3CU      0.408000
     23 H3          4.7860   -0.8440    1.5640 h1        1 3CU      0.058700
     24 H8C1        4.3350   -2.5840    3.3490 h1        1 3CU      0.045200
     25 H8C2        5.3140   -1.1390    3.9190 h1        1 3CU      0.045200
     26 H8          2.5480   -1.4680    4.3810 ho        1 3CU      0.418000
     27 H5C1        3.8210   -2.3030    0.3250 h1        1 3CU      0.057200
     28 H5C2        2.2110   -2.9830    0.8440 h1        1 3CU      0.057200
     29 HOT         3.2330   -1.9350   -2.1030 ho        1 3CU      0.405000
@<TRIPOS>BOND
     1    1    2 1   
     2    1   15 1   
     3    2    3 1   
     4    2   13 1   
     5    2   16 1   
     6    3    4 1   
     7    3   11 1   
     8    3   17 1   
     9    4    5 1   
    10    4    6 1   
    11    4   19 1   
    12    5   20 1   
    13    6    7 1   
    14    6    8 1   
    15    6   21 1   
    16    7   22 1   
    17    8    9 1   
    18    8   11 1   
    19    8   23 1   
    20    9   10 1   
    21    9   24 1   
    22    9   25 1   
    23   10   26 1   
    24   11   12 1   
    25   12   13 1   
    26   12   27 1   
    27   12   28 1   
    28   13   14 1   
    29   13   18 1   
    30   14   29 1   
@<TRIPOS>SUBSTRUCTURE
     1 3CU         1 TEMP              0 ****  ****    0 ROOT
