@<TRIPOS>MOLECULE
3CU
   29    30     1     0     0
SMALL
bcc


@<TRIPOS>ATOM
      1 O7          2.6660    0.8920   -1.3380 oh        1 3CU     -0.585800
      2 C7          1.8950    0.5200   -0.2120 c3        1 3CU      0.134100
      3 C7A         0.4250    0.3980   -0.6820 c3        1 3CU      0.169500
      4 C1         -0.4880    1.4850   -0.0670 c3        1 3CU      0.098100
      5 O1         -0.9300    2.3010   -1.1360 oh        1 3CU     -0.581800
      6 C2         -1.6600    0.7210    0.5930 c3        1 3CU      0.088100
      7 O2         -1.7930    1.0590    1.9610 oh        1 3CU     -0.592800
      8 C3         -1.2830   -0.7840    0.5350 c3        1 3CU      0.129500
      9 C8         -2.4710   -1.6090    0.0080 c3        1 3CU      0.144400
     10 O8         -2.9880   -1.1340   -1.2140 oh        1 3CU     -0.602800
     11 N4         -0.0950   -0.9360   -0.3180 n3        1 3CU     -0.703600
     12 C5          0.9870   -1.7260    0.2620 c3        1 3CU      0.127800
     13 C6          2.2880   -0.8910    0.2860 c3        1 3CU      0.083100
     14 OXT         2.8100   -0.7430    1.5930 oh        1 3CU     -0.597800
     15 H7          3.5610    1.0590   -1.0160 ho        1 3CU      0.407000
     16 HA          2.0170    1.2710    0.6140 h1        1 3CU      0.067700
     17 H7A         0.3910    0.4810   -1.8080 h1        1 3CU      0.116700
     18 H6          3.0650   -1.3480   -0.3860 h1        1 3CU      0.058700
     19 H1          0.0530    2.1070    0.6960 h1        1 3CU      0.055700
     20 HB         -1.5060    2.9730   -0.7530 ho        1 3CU      0.399000
     21 H2         -2.6180    0.9100    0.0360 h1        1 3CU      0.078700
     22 HC         -2.1720    1.9450    1.9940 ho        1 3CU      0.401000
     23 H3         -1.0880   -1.1350    1.5930 h1        1 3CU      0.071700
     24 H8C1       -2.1760   -2.6880   -0.0880 h1        1 3CU      0.049700
     25 H8C2       -3.3250   -1.5130    0.7340 h1        1 3CU      0.049700
     26 H8         -2.2720   -1.1540   -1.8620 ho        1 3CU      0.416000
     27 H5C1        0.7540   -2.0950    1.3000 h1        1 3CU      0.055200
     28 H5C2        1.1240   -2.6220   -0.4030 h1        1 3CU      0.055200
     29 HOT         2.9900   -1.6290    1.9280 ho        1 3CU      0.406000
@<TRIPOS>BOND
     1    1    2 1   
     2    1   15 1   
     3    2    3 1   
     4    2   13 1   
     5    2   16 1   
     6    3    4 1   
     7    3   11 1   
     8    3   17 1   
     9    4    5 1   
    10    4    6 1   
    11    4   19 1   
    12    5   20 1   
    13    6    7 1   
    14    6    8 1   
    15    6   21 1   
    16    7   22 1   
    17    8    9 1   
    18    8   11 1   
    19    8   23 1   
    20    9   10 1   
    21    9   24 1   
    22    9   25 1   
    23   10   26 1   
    24   11   12 1   
    25   12   13 1   
    26   12   27 1   
    27   12   28 1   
    28   13   14 1   
    29   13   18 1   
    30   14   29 1   
@<TRIPOS>SUBSTRUCTURE
     1 3CU         1 TEMP              0 ****  ****    0 ROOT
