@<TRIPOS>MOLECULE
3CX
   33    33     1     0     0
SMALL
bcc


@<TRIPOS>ATOM
      1 OAA         2.1150   -2.4490    0.3690 o         1 3CX     -0.750533
      2 OAB         2.9140   -0.4660    1.4000 o         1 3CX     -0.750533
      3 OAC         0.8930    1.4390    0.6440 oh        1 3CX     -0.647800
      4 OAD         4.0500   -1.3730   -0.4840 o         1 3CX     -0.750533
      5 CAE        -5.0630   -0.8540    0.7720 c3        1 3CX     -0.076400
      6 CAF        -5.2680    0.3560   -0.1160 c3        1 3CX     -0.072400
      7 CAG        -3.8190   -1.6160    0.3670 c3        1 3CX     -0.072400
      8 CAH        -4.0510    1.2560   -0.1110 c3        1 3CX     -0.096400
      9 CAI        -2.5970   -0.7250    0.3530 c3        1 3CX     -0.096400
     10 CAJ        -0.4440    0.8060   -1.2180 c3        1 3CX      0.163800
     11 CAK         1.8120   -0.2410   -0.8620 c3        1 3CX     -0.333600
     12 NAL        -1.6640    1.3900   -0.7030 n3        1 3CX     -0.823200
     13 CAM         0.5860    0.3180   -0.1770 c3        1 3CX      0.165100
     14 CAN        -2.7990    0.4870   -0.5730 c3        1 3CX      0.178500
     15 SAO         2.8280   -1.2390    0.2100 s6        1 3CX      1.430800
     16 HOAC        1.6260    1.1690    1.2210 ho        1 3CX      0.447000
     17 HAF        -5.4800    0.0180   -1.1640 hc        1 3CX      0.032950
     18 HAFA       -6.1600    0.9350    0.2370 hc        1 3CX      0.032950
     19 HAG        -3.6510   -2.4660    1.0780 hc        1 3CX      0.032950
     20 HAGA       -3.9700   -2.0580   -0.6540 hc        1 3CX      0.032950
     21 HAH        -4.2310    2.1290   -0.7900 hc        1 3CX      0.048700
     22 HAHA       -3.8850    1.6570    0.9230 hc        1 3CX      0.048700
     23 HAI        -2.3730   -0.3710    1.3930 hc        1 3CX      0.048700
     24 HAIA       -1.7140   -1.3220    0.0020 hc        1 3CX      0.048700
     25 HAJ        -0.6810   -0.0570   -1.8980 h1        1 3CX      0.045700
     26 HAJA        0.0510    1.6140   -1.8290 h1        1 3CX      0.045700
     27 HAK         1.4980   -0.8680   -1.7300 h1        1 3CX      0.076700
     28 HAKA        2.4260    0.5990   -1.2640 h1        1 3CX      0.076700
     29 HNAL       -1.4770    1.8450    0.1740 hn        1 3CX      0.370800
     30 HAM         0.1300   -0.4850    0.4740 h1        1 3CX      0.035700
     31 HAN        -3.0060    0.0850   -1.6100 h1        1 3CX      0.044700
     32 HAE        -4.9670   -0.5220    1.8390 hc        1 3CX      0.030700
     33 HAEA       -5.9580   -1.5260    0.7070 hc        1 3CX      0.030700
@<TRIPOS>BOND
     1    1   15 1   
     2    2   15 1   
     3    3   13 1   
     4    3   16 1   
     5    4   15 1   
     6    5    6 1   
     7    5    7 1   
     8    5   32 1   
     9    5   33 1   
    10    6    8 1   
    11    6   17 1   
    12    6   18 1   
    13    7    9 1   
    14    7   19 1   
    15    7   20 1   
    16    8   14 1   
    17    8   21 1   
    18    8   22 1   
    19    9   14 1   
    20    9   23 1   
    21    9   24 1   
    22   10   12 1   
    23   10   13 1   
    24   10   25 1   
    25   10   26 1   
    26   11   13 1   
    27   11   15 1   
    28   11   27 1   
    29   11   28 1   
    30   12   14 1   
    31   12   29 1   
    32   13   30 1   
    33   14   31 1   
@<TRIPOS>SUBSTRUCTURE
     1 3CX         1 TEMP              0 ****  ****    0 ROOT
