@<TRIPOS>MOLECULE
3CX
   34    34     1     0     0
SMALL
bcc


@<TRIPOS>ATOM
      1 OAA        -0.0740    0.2050   -0.3520 o         1 3CX     -0.733533
      2 OAB         1.6640    0.3440    1.2450 o         1 3CX     -0.733533
      3 OAC         2.4880    2.9640    0.6690 oh        1 3CX     -0.684800
      4 OAD         1.8150   -1.2360   -0.5400 o         1 3CX     -0.733533
      5 CAE         1.8410    8.7470   -3.2510 c3        1 3CX     -0.088400
      6 CAF         2.8830    8.5490   -2.1710 c3        1 3CX     -0.077900
      7 CAG         1.5380    7.4470   -3.9660 c3        1 3CX     -0.077900
      8 CAH         2.4680    7.4710   -1.1890 c3        1 3CX     -0.097900
      9 CAI         1.1160    6.3630   -2.9950 c3        1 3CX     -0.097900
     10 CAJ         2.0920    3.6870   -1.5480 c3        1 3CX      0.096800
     11 CAK         2.1240    1.2530   -1.0400 c3        1 3CX     -0.325600
     12 NAL         1.8670    5.0530   -0.9880 ny        1 3CX     -0.759000
     13 CAM         1.7620    2.6020   -0.4980 c3        1 3CX      0.192100
     14 CAN         2.2120    6.1580   -1.9420 c3        1 3CX      0.119500
     15 SAO         1.2790   -0.0420   -0.0620 s6        1 3CX      1.443800
     16 HOAC        2.4990    2.1870    1.2620 ho        1 3CX      0.497000
     17 HAFA        3.0340    9.5090   -1.6100 hc        1 3CX      0.060950
     18 HAG         0.7130    7.6080   -4.7090 hc        1 3CX      0.060950
     19 HAGA        2.4430    7.1090   -4.5380 hc        1 3CX      0.060950
     20 HAH         3.2790    7.3320   -0.4270 hc        1 3CX      0.063200
     21 HAHA        1.5370    7.7920   -0.6510 hc        1 3CX      0.063200
     22 HAI         0.1560    6.6600   -2.4950 hc        1 3CX      0.063200
     23 HAIA        0.9340    5.4100   -3.5570 hc        1 3CX      0.063200
     24 HAJ         1.4380    3.5460   -2.4510 hx        1 3CX      0.097700
     25 HAJA        3.1740    3.6030   -1.8430 hx        1 3CX      0.097700
     26 HAK         1.8010    1.1450   -2.0990 h1        1 3CX      0.084700
     27 HAKA        3.2210    1.0780   -0.9850 h1        1 3CX      0.084700
     28 HNAL        0.8850    5.1350   -0.7040 hn        1 3CX      0.455300
     29 HAM         0.6560    2.6320   -0.2590 h1        1 3CX      0.069700
     30 HAN         3.1680    5.8470   -2.4630 hx        1 3CX      0.102700
     31 HAE         2.2120    9.5030   -3.9920 hc        1 3CX      0.058200
     32 HAEA        0.9000    9.1550   -2.7970 hc        1 3CX      0.058200
     33 HAL2        2.4440    5.1330   -0.1370 hn        1 3CX      0.455300
     34 HAF         3.8660    8.2740   -2.6380 hc        1 3CX      0.060950
@<TRIPOS>BOND
     1    1   15 1   
     2    2   15 1   
     3    3   13 1   
     4    3   16 1   
     5    4   15 1   
     6    5    6 1   
     7    5    7 1   
     8    5   31 1   
     9    5   32 1   
    10    6    8 1   
    11    6   17 1   
    12    6   34 1   
    13    7    9 1   
    14    7   18 1   
    15    7   19 1   
    16    8   14 1   
    17    8   20 1   
    18    8   21 1   
    19    9   14 1   
    20    9   22 1   
    21    9   23 1   
    22   10   12 1   
    23   10   13 1   
    24   10   24 1   
    25   10   25 1   
    26   11   13 1   
    27   11   15 1   
    28   11   26 1   
    29   11   27 1   
    30   12   14 1   
    31   12   28 1   
    32   12   33 1   
    33   13   29 1   
    34   14   30 1   
@<TRIPOS>SUBSTRUCTURE
     1 3CX         1 TEMP              0 ****  ****    0 ROOT
