@<TRIPOS>MOLECULE
3CX
   34    34     1     0     0
SMALL
bcc


@<TRIPOS>ATOM
      1 OAA        -0.0760    0.2100   -0.3360 o         1 3CX     -0.733533
      2 OAB         1.6740    0.3450    1.2470 o         1 3CX     -0.733533
      3 OAC         2.5000    2.9630    0.6640 oh        1 3CX     -0.685800
      4 OAD         1.8080   -1.2360   -0.5390 o         1 3CX     -0.733533
      5 CAE         1.8400    8.7470   -3.2510 c3        1 3CX     -0.088400
      6 CAF         2.8880    8.5470   -2.1770 c3        1 3CX     -0.077900
      7 CAG         1.5290    7.4480   -3.9640 c3        1 3CX     -0.077900
      8 CAH         2.4760    7.4700   -1.1930 c3        1 3CX     -0.097900
      9 CAI         1.1110    6.3650   -2.9900 c3        1 3CX     -0.097900
     10 CAJ         2.0890    3.6860   -1.5500 c3        1 3CX      0.096800
     11 CAK         2.1190    1.2530   -1.0420 c3        1 3CX     -0.325600
     12 NAL         1.8710    5.0530   -0.9880 n4        1 3CX     -0.759000
     13 CAM         1.7640    2.6030   -0.4960 c3        1 3CX      0.192100
     14 CAN         2.2130    6.1570   -1.9440 c3        1 3CX      0.119500
     15 SAO         1.2770   -0.0400   -0.0570 s6        1 3CX      1.443800
     16 HOAC        2.5130    2.1860    1.2580 ho        1 3CX      0.497000
     17 HAFA        3.0440    9.5070   -1.6180 hc        1 3CX      0.060950
     18 HAG         0.6990    7.6110   -4.7010 hc        1 3CX      0.060950
     19 HAGA        2.4290    7.1080   -4.5410 hc        1 3CX      0.060950
     20 HAH         3.2920    7.3280   -0.4360 hc        1 3CX      0.063200
     21 HAHA        1.5500    7.7930   -0.6490 hc        1 3CX      0.063200
     22 HAI         0.9220    5.4120   -3.5510 hc        1 3CX      0.063200
     23 HAIA        0.1550    6.6640   -2.4840 hc        1 3CX      0.063200
     24 HAJ         1.4270    3.5470   -2.4470 hx        1 3CX      0.097700
     25 HAJA        3.1690    3.6000   -1.8520 hx        1 3CX      0.097700
     26 HAK         3.2160    1.0750   -0.9950 h1        1 3CX      0.084700
     27 HAKA        1.7870    1.1450   -2.0980 h1        1 3CX      0.084700
     28 HNAL        2.4550    5.1310   -0.1410 hn        1 3CX      0.455300
     29 HAM         0.6600    2.6350   -0.2490 h1        1 3CX      0.068700
     30 HAN         3.1640    5.8440   -2.4710 hx        1 3CX      0.103700
     31 HAE         2.2070    9.5020   -3.9940 hc        1 3CX      0.058200
     32 HAEA        0.9020    9.1580   -2.7910 hc        1 3CX      0.058200
     33 HAL2        0.8920    5.1380   -0.6970 hn        1 3CX      0.455300
     34 HAF         3.8670    8.2700   -2.6500 hc        1 3CX      0.060950
@<TRIPOS>BOND
     1    1   15 1   
     2    2   15 1   
     3    3   13 1   
     4    3   16 1   
     5    4   15 1   
     6    5    6 1   
     7    5    7 1   
     8    5   31 1   
     9    5   32 1   
    10    6    8 1   
    11    6   17 1   
    12    6   34 1   
    13    7    9 1   
    14    7   18 1   
    15    7   19 1   
    16    8   14 1   
    17    8   20 1   
    18    8   21 1   
    19    9   14 1   
    20    9   22 1   
    21    9   23 1   
    22   10   12 1   
    23   10   13 1   
    24   10   24 1   
    25   10   25 1   
    26   11   13 1   
    27   11   15 1   
    28   11   26 1   
    29   11   27 1   
    30   12   14 1   
    31   12   28 1   
    32   12   33 1   
    33   13   29 1   
    34   14   30 1   
@<TRIPOS>SUBSTRUCTURE
     1 3CX         1 TEMP              0 ****  ****    0 ROOT
