@<TRIPOS>MOLECULE
3CX
   33    33     1     0     0
SMALL
bcc


@<TRIPOS>ATOM
      1 OAA         0.7170   -3.8750    3.7920 o         1 3CX     -0.750533
      2 OAB         2.0970   -5.2470    2.5050 o         1 3CX     -0.750533
      3 OAC        -0.0830   -1.4240    2.4320 oh        1 3CX     -0.649800
      4 OAD        -0.1830   -4.7380    1.6330 o         1 3CX     -0.750533
      5 CAE        -1.9080    2.7340   -1.6020 c3        1 3CX     -0.073400
      6 CAF        -1.3580    2.7760   -0.1900 c3        1 3CX     -0.080400
      7 CAG        -1.5360    1.4590   -2.3320 c3        1 3CX     -0.080400
      8 CAH         0.1280    2.4940   -0.1400 c3        1 3CX     -0.091400
      9 CAI        -0.0500    1.1760   -2.2810 c3        1 3CX     -0.091400
     10 CAJ         1.0520   -0.5850    0.5100 c3        1 3CX      0.164800
     11 CAK         1.6530   -2.7660    1.4990 c3        1 3CX     -0.333600
     12 NAL        -0.0190    0.0960   -0.1360 n3        1 3CX     -0.821200
     13 CAM         0.5170   -1.8090    1.2180 c3        1 3CX      0.164100
     14 CAN         0.5000    1.2170   -0.8690 c3        1 3CX      0.180500
     15 SAO         1.0290   -4.1910    2.3490 s6        1 3CX      1.430800
     16 HOAC       -0.9450   -1.6410    2.4180 ho        1 3CX      0.448000
     17 HAE        -1.5550    3.4980   -2.1020 hc        1 3CX      0.027700
     18 HAEA       -2.8830    2.8040   -1.5640 hc        1 3CX      0.027700
     19 HAF        -1.8250    2.1090    0.3510 hc        1 3CX      0.043950
     20 HAFA       -1.5240    3.6630    0.1880 hc        1 3CX      0.043950
     21 HAG        -2.0140    0.7100   -1.9230 hc        1 3CX      0.043950
     22 HAGA       -1.8110    1.5370   -3.2670 hc        1 3CX      0.043950
     23 HAH         0.4030    2.4150    0.7960 hc        1 3CX      0.040450
     24 HAHA        0.6060    3.2420   -0.5490 hc        1 3CX      0.040450
     25 HAI         0.1150    0.2890   -2.6590 hc        1 3CX      0.040450
     26 HAIA        0.4170    1.8430   -2.8220 hc        1 3CX      0.040450
     27 HAJ         1.4730    0.0120    1.1630 h1        1 3CX      0.045200
     28 HAJA        1.7160   -0.8580   -0.1570 h1        1 3CX      0.045200
     29 HAK         2.0620   -3.0430    0.6540 h1        1 3CX      0.077200
     30 HAKA        2.3240   -2.3220    2.0550 h1        1 3CX      0.077200
     31 HNAL       -0.4410   -0.4760   -0.7120 hn        1 3CX      0.373800
     32 HAM        -0.1470   -2.2490    0.6510 h1        1 3CX      0.035700
     33 HAN         1.4740    1.1470   -0.9070 h1        1 3CX      0.040700
@<TRIPOS>BOND
     1    1   15 1   
     2    2   15 1   
     3    3   13 1   
     4    3   16 1   
     5    4   15 1   
     6    5    6 1   
     7    5    7 1   
     8    5   17 1   
     9    5   18 1   
    10    6    8 1   
    11    6   19 1   
    12    6   20 1   
    13    7    9 1   
    14    7   21 1   
    15    7   22 1   
    16    8   14 1   
    17    8   23 1   
    18    8   24 1   
    19    9   14 1   
    20    9   25 1   
    21    9   26 1   
    22   10   12 1   
    23   10   13 1   
    24   10   27 1   
    25   10   28 1   
    26   11   13 1   
    27   11   15 1   
    28   11   29 1   
    29   11   30 1   
    30   12   14 1   
    31   12   31 1   
    32   13   32 1   
    33   14   33 1   
@<TRIPOS>SUBSTRUCTURE
     1 3CX         1 TEMP              0 ****  ****    0 ROOT
