@<TRIPOS>MOLECULE
3CX
   34    34     1     0     0
SMALL
bcc


@<TRIPOS>ATOM
      1 OAA        -0.0790    0.2080   -0.3480 o         1 3CX     -0.733533
      2 OAB         1.6580    0.3480    1.2490 o         1 3CX     -0.733533
      3 OAC         2.4860    2.9660    0.6710 oh        1 3CX     -0.684800
      4 OAD         1.8090   -1.2350   -0.5330 o         1 3CX     -0.733533
      5 CAE         1.8450    8.7450   -3.2550 c3        1 3CX     -0.088400
      6 CAF         2.8870    8.5470   -2.1750 c3        1 3CX     -0.077900
      7 CAG         1.5400    7.4450   -3.9690 c3        1 3CX     -0.077900
      8 CAH         2.4710    7.4710   -1.1920 c3        1 3CX     -0.097900
      9 CAI         1.1180    6.3630   -2.9950 c3        1 3CX     -0.097900
     10 CAJ         2.0910    3.6860   -1.5470 c3        1 3CX      0.096800
     11 CAK         2.1200    1.2540   -1.0360 c3        1 3CX     -0.325600
     12 NAL         1.8670    5.0540   -0.9880 n4        1 3CX     -0.759000
     13 CAM         1.7590    2.6040   -0.4950 c3        1 3CX      0.192100
     14 CAN         2.2140    6.1570   -1.9430 c3        1 3CX      0.119500
     15 SAO         1.2730   -0.0390   -0.0570 s6        1 3CX      1.443800
     16 HOAC        2.4950    2.1900    1.2660 ho        1 3CX      0.497000
     17 HAFA        3.0390    9.5080   -1.6160 hc        1 3CX      0.060950
     18 HAG         2.4440    7.1060   -4.5400 hc        1 3CX      0.060950
     19 HAGA        0.7140    7.6060   -4.7110 hc        1 3CX      0.060950
     20 HAH         1.5410    7.7930   -0.6540 hc        1 3CX      0.063200
     21 HAHA        3.2830    7.3310   -0.4300 hc        1 3CX      0.063200
     22 HAI         0.9340    5.4090   -3.5570 hc        1 3CX      0.063200
     23 HAIA        0.1580    6.6610   -2.4960 hc        1 3CX      0.063200
     24 HAJ         1.4370    3.5460   -2.4490 hx        1 3CX      0.097700
     25 HAJA        3.1730    3.6010   -1.8410 hx        1 3CX      0.097700
     26 HAK         1.7970    1.1450   -2.0950 h1        1 3CX      0.084700
     27 HAKA        3.2170    1.0770   -0.9810 h1        1 3CX      0.084700
     28 HNAL        0.8860    5.1370   -0.7040 hn        1 3CX      0.455300
     29 HAM         0.6530    2.6350   -0.2560 h1        1 3CX      0.068700
     30 HAN         3.1680    5.8450   -2.4650 hx        1 3CX      0.102700
     31 HAE         0.9050    9.1550   -2.8010 hc        1 3CX      0.058200
     32 HAEA        2.2160    9.5000   -3.9970 hc        1 3CX      0.058200
     33 HAL2        2.4460    5.1340   -0.1380 hn        1 3CX      0.455300
     34 HAF         3.8690    8.2710   -2.6420 hc        1 3CX      0.060950
@<TRIPOS>BOND
     1    1   15 1   
     2    2   15 1   
     3    3   13 1   
     4    3   16 1   
     5    4   15 1   
     6    5    6 1   
     7    5    7 1   
     8    5   31 1   
     9    5   32 1   
    10    6    8 1   
    11    6   17 1   
    12    6   34 1   
    13    7    9 1   
    14    7   18 1   
    15    7   19 1   
    16    8   14 1   
    17    8   20 1   
    18    8   21 1   
    19    9   14 1   
    20    9   22 1   
    21    9   23 1   
    22   10   12 1   
    23   10   13 1   
    24   10   24 1   
    25   10   25 1   
    26   11   13 1   
    27   11   15 1   
    28   11   26 1   
    29   11   27 1   
    30   12   14 1   
    31   12   28 1   
    32   12   33 1   
    33   13   29 1   
    34   14   30 1   
@<TRIPOS>SUBSTRUCTURE
     1 3CX         1 TEMP              0 ****  ****    0 ROOT
