@<TRIPOS>MOLECULE
3CY
   77    74     1     0     0
SMALL
bcc


@<TRIPOS>ATOM
      1 C1          7.4030   -4.3940    4.3550 c1        1 3CY     -0.100000
      2 C2          7.9660   -5.5890    4.7740 c1        1 3CY     -0.142000
      3 C3          8.1380   -5.8390    6.1270 c1        1 3CY     -0.142000
      4 C4          7.7460   -4.8930    7.0600 c1        1 3CY     -0.142000
      5 C5          7.1830   -3.6970    6.6420 c1        1 3CY     -0.142000
      6 C6          7.0110   -3.4480    5.2900 c1        1 3CY     -0.060000
      7 C7          6.3550   -2.1630    4.8350 c3        1 3CY     -0.251000
      8 S1          4.7260   -2.5130    4.2290 ss        1 3CY      0.043000
      9 C8          3.9250   -0.9980    3.7800 c3        1 3CY     -0.340000
     10 C9          2.8200   -1.2860    2.7870 c2        1 3CY      0.233000
     11 C10         1.9440   -0.1610    2.2830 c3        1 3CY     -0.014000
     12 O1          2.6260   -2.4240    2.4090 o         1 3CY     -0.304000
     13 N1          1.4700   -0.4780    0.9820 n         1 3CY     -0.336000
     14 C11         0.7690    0.0210    3.2170 c3        1 3CY     -0.227000
     15 C12         1.0520    1.1660    4.1650 c2        1 3CY      0.316000
     16 O2          0.7970    2.3490    3.8170 o         1 3CY     -0.581000
     17 O3          1.5190    0.9330    5.3110 o         1 3CY     -0.581000
     18 C13         1.3210    0.5470    0.0120 c2        1 3CY      0.302000
     19 O4          1.5620    1.7010    0.3060 o         1 3CY     -0.402000
     20 C21         0.4440    2.2410   -2.5040 c1        1 3CY      0.065000
     21 N2         -0.1610    1.1170   -1.7590 n2        1 3CY     -0.255000
     22 C14         0.9200    0.2140   -1.3350 c3        1 3CY     -0.011000
     23 C15         2.0190    0.5350   -2.2640 c3        1 3CY     -0.132000
     24 C16         1.7350    1.8670   -2.8730 c2        1 3CY     -0.101000
     25 C17         2.1720    2.0520   -4.2060 c1        1 3CY     -0.106000
     26 C18         1.2930    2.5830   -5.1650 c1        1 3CY     -0.142000
     27 C19        -0.0160    2.9290   -4.8030 c1        1 3CY     -0.142000
     28 C20        -0.4500    2.7450   -3.4780 c1        1 3CY     -0.076000
     29 C22        -1.3240    3.8640   -2.8970 c3        1 3CY     -0.115000
     30 C23        -2.5980    3.3040   -2.3160 c3        1 3CY     -0.171000
     31 C24        -2.4820    1.7890   -2.1930 c3        1 3CY      0.023000
     32 C25        -1.3960    1.5170   -1.1370 c2        1 3CY      0.286000
     33 O5         -1.5750    1.5730    0.0630 o         1 3CY     -0.335000
     34 N3         -3.7460    1.1460   -1.8870 n         1 3CY     -0.374000
     35 C26        -4.6970    0.9250   -2.9160 c2        1 3CY      0.300000
     36 C27        -6.0540    0.3460   -2.5790 c3        1 3CY      0.032000
     37 O6         -4.4530    1.2750   -4.0530 o         1 3CY     -0.395000
     38 N4         -7.0540    1.0060   -3.3420 n         1 3CY     -0.344000
     39 C30        -8.2330    1.4790   -2.7090 c2        1 3CY      0.290000
     40 C31        -9.3840    1.9970   -3.5440 c3        1 3CY     -0.240000
     41 O9         -8.3290    1.4440   -1.4990 o         1 3CY     -0.412000
     42 C28        -6.0660   -1.1310   -2.9040 c3        1 3CY     -0.235000
     43 C29        -7.3580   -1.7450   -2.4100 c2        1 3CY      0.327000
     44 O8         -7.5800   -1.8360   -1.1740 o         1 3CY     -0.581000
     45 O7         -8.2210   -2.1450   -3.2370 o         1 3CY     -0.581000
     46 H1          7.2960   -4.2130    3.4030 ha        1 3CY      0.222000
     47 H2          8.2400   -6.2560    4.1160 ha        1 3CY      0.116167
     48 H3          8.5290   -6.6830    6.4210 ha        1 3CY      0.116167
     49 H4          7.8630   -5.0700    8.0140 ha        1 3CY      0.116167
     50 H5          6.9230   -3.0240    7.2990 ha        1 3CY      0.116167
     51 H71         6.2960   -1.5430    5.5890 h1        1 3CY      0.146000
     52 H72         6.8890   -1.7600    4.1220 h1        1 3CY      0.146000
     53 H81         3.5440   -0.5810    4.5790 h1        1 3CY      0.157500
     54 H82         4.5770   -0.3910    3.3750 h1        1 3CY      0.157500
     55 H10         2.4640    0.6650    2.2470 h1        1 3CY      0.157000
     56 HN1         1.2530   -1.3390    0.7720 hn        1 3CY      0.251000
     57 H111       -0.0340    0.2200    2.6960 hc        1 3CY      0.092500
     58 H112        0.6300   -0.8000    3.7300 hc        1 3CY      0.092500
     59 H14         0.6910   -0.7310   -1.2300 h1        1 3CY      0.131000
     60 H151        2.0690   -0.1460   -2.9660 hc        1 3CY      0.119500
     61 H152        2.8660    0.5680   -1.7760 hc        1 3CY      0.119500
     62 H17         3.0810    1.8050   -4.4610 ha        1 3CY      0.128000
     63 H18         1.6030    2.7370   -6.0780 ha        1 3CY      0.116167
     64 H19        -0.6260    3.2970   -5.4700 ha        1 3CY      0.116167
     65 H221       -0.8270    4.3280   -2.1940 hc        1 3CY      0.090000
     66 H222       -1.5460    4.5000   -3.6060 hc        1 3CY      0.090000
     67 H231       -3.2950    3.4700   -2.9810 hc        1 3CY      0.103500
     68 H232       -2.6530    3.6470   -1.4020 hc        1 3CY      0.103500
     69 H24        -2.2580    1.3770   -3.0510 h1        1 3CY      0.149000
     70 HN3        -3.9360    0.9000   -1.0300 hn        1 3CY      0.268000
     71 H27        -6.2350    0.4720   -1.6270 h1        1 3CY      0.115000
     72 HN4        -6.9420    1.1180   -4.2400 hn        1 3CY      0.273000
     73 H311       -9.0440    2.6180   -4.2210 hc        1 3CY      0.099000
     74 H312      -10.0240    2.4630   -2.9660 hc        1 3CY      0.099000
     75 H313       -9.8320    1.2440   -3.9860 hc        1 3CY      0.099000
     76 H281       -5.3090   -1.5670   -2.4650 hc        1 3CY      0.094500
     77 H282       -5.9960   -1.2520   -3.8720 hc        1 3CY      0.094500
@<TRIPOS>BOND
     1    1    6 1   
     2    1   46 1   
     3    2    3 1   
     4    2   47 1   
     5    3   48 1   
     6    4    5 1   
     7    4   49 1   
     8    5   50 1   
     9    6    7 1   
    10    7    8 1   
    11    7   51 1   
    12    7   52 1   
    13    8    9 1   
    14    9   10 1   
    15    9   53 1   
    16    9   54 1   
    17   10   11 1   
    18   10   12 1   
    19   11   13 1   
    20   11   14 1   
    21   11   55 1   
    22   13   18 1   
    23   13   56 1   
    24   14   15 1   
    25   14   57 1   
    26   14   58 1   
    27   15   16 1   
    28   15   17 1   
    29   18   19 1   
    30   18   22 1   
    31   20   24 1   
    32   20   28 1   
    33   21   22 1   
    34   21   32 1   
    35   22   23 1   
    36   22   59 1   
    37   23   24 1   
    38   23   60 1   
    39   23   61 1   
    40   24   25 1   
    41   25   62 1   
    42   26   27 1   
    43   26   63 1   
    44   27   64 1   
    45   28   29 1   
    46   29   30 1   
    47   29   65 1   
    48   29   66 1   
    49   30   31 1   
    50   30   67 1   
    51   30   68 1   
    52   31   32 1   
    53   31   34 1   
    54   31   69 1   
    55   32   33 1   
    56   34   35 1   
    57   34   70 1   
    58   35   36 1   
    59   35   37 1   
    60   36   38 1   
    61   36   42 1   
    62   36   71 1   
    63   38   39 1   
    64   38   72 1   
    65   39   40 1   
    66   39   41 1   
    67   40   73 1   
    68   40   74 1   
    69   40   75 1   
    70   42   43 1   
    71   42   76 1   
    72   42   77 1   
    73   43   44 1   
    74   43   45 1   
@<TRIPOS>SUBSTRUCTURE
     1 3CY         1 TEMP              0 ****  ****    0 ROOT
