@<TRIPOS>MOLECULE
3CY
   80    83     1     0     0
SMALL
bcc


@<TRIPOS>ATOM
      1 C1         -2.8530    0.2740    1.2760 ca        1 3CY     -0.110500
      2 C2         -1.7500   -0.0030    0.4720 ca        1 3CY     -0.130500
      3 C3         -0.6970   -0.7730    0.9660 ca        1 3CY     -0.111000
      4 C4         -0.7480   -1.2650    2.2700 ca        1 3CY     -0.130500
      5 C5         -1.8460   -0.9880    3.0810 ca        1 3CY     -0.110500
      6 C6         -2.9080   -0.2180    2.5870 ca        1 3CY     -0.093300
      7 C7         -4.0680    0.0970    3.4480 c3        1 3CY      0.030000
      8 S1         -5.0070   -1.4070    3.6100 ss        1 3CY     -0.235200
      9 C8         -6.3500   -0.9310    4.6460 c3        1 3CY     -0.140300
     10 C9         -7.6070   -0.8210    3.8560 c         1 3CY      0.568100
     11 C10        -7.7900    0.4430    2.9930 c3        1 3CY      0.004700
     12 O1         -8.4960   -1.6800    3.8670 o         1 3CY     -0.544100
     13 N1         -7.7910    0.1230    1.5890 ns        1 3CY     -0.578900
     14 C11        -9.0930    1.1500    3.4400 c3        1 3CY     -0.182400
     15 C12       -10.2570    0.8560    2.5490 c         1 3CY      0.671100
     16 O2        -10.9250    1.6720    1.9020 o         1 3CY     -0.562000
     17 O3        -10.6830   -0.4230    2.3320 oh        1 3CY     -0.646100
     18 C13        -6.9080    0.6950    0.6890 c         1 3CY      0.669100
     19 O4         -6.0460    1.5150    1.0440 o         1 3CY     -0.576100
     20 C21        -8.1320    1.6630   -2.3930 ca        1 3CY      0.023600
     21 N2         -8.3850    0.7620   -1.3170 n         1 3CY     -0.321000
     22 C14        -7.0890    0.2690   -0.7870 c3        1 3CY      0.027700
     23 C15        -5.9760    0.8770   -1.6810 c3        1 3CY     -0.041100
     24 C16        -6.7230    1.7440   -2.6350 ca        1 3CY     -0.096300
     25 C17        -6.2130    2.5550   -3.6280 ca        1 3CY     -0.084000
     26 C18        -7.1050    3.3070   -4.4070 ca        1 3CY     -0.114000
     27 C19        -8.4700    3.2410   -4.1700 ca        1 3CY     -0.108000
     28 C20        -9.0170    2.4250   -3.1570 ca        1 3CY     -0.087300
     29 C22       -10.4920    2.4380   -3.0000 c3        1 3CY     -0.036100
     30 C23       -10.9910    2.0750   -1.6220 c3        1 3CY     -0.105400
     31 C24       -10.9280    0.5640   -1.4030 c3        1 3CY      0.079500
     32 C25        -9.5200    0.0350   -1.0590 c         1 3CY      0.688500
     33 O5         -9.4540   -1.0610   -0.4490 o         1 3CY     -0.670500
     34 N3        -11.8740    0.1480   -0.3000 ny        1 3CY     -0.667800
     35 C26       -13.1840   -0.4000   -0.7740 c         1 3CY      0.564100
     36 C27       -14.1840   -0.7780    0.3320 c3        1 3CY      0.062700
     37 O6        -13.3580   -0.5770   -1.9710 o         1 3CY     -0.430100
     38 N4        -14.5010    0.3210    1.2060 ns        1 3CY     -0.575900
     39 C30       -14.5910    1.6330    0.7480 c         1 3CY      0.669100
     40 C31       -15.2450    2.6560    1.6300 c3        1 3CY     -0.171100
     41 O9        -14.0580    1.9170   -0.3490 o         1 3CY     -0.647100
     42 C28       -15.4020   -1.4190   -0.3640 c3        1 3CY     -0.218400
     43 C29       -16.3800   -1.9470    0.6440 c         1 3CY      0.632100
     44 O8        -16.3350   -1.7750    1.8640 o         1 3CY     -0.498000
     45 O7        -17.4360   -2.6880    0.2210 oh        1 3CY     -0.542100
     46 H1         -3.6830    0.8890    0.8890 ha        1 3CY      0.141000
     47 H2         -1.7070    0.3920   -0.5540 ha        1 3CY      0.137000
     48 H3          0.1730   -0.9900    0.3290 ha        1 3CY      0.140000
     49 H4          0.0830   -1.8710    2.6630 ha        1 3CY      0.137000
     50 H5         -1.8830   -1.3740    4.1110 ha        1 3CY      0.141000
     51 H71        -3.7320    0.4430    4.4570 h1        1 3CY      0.076700
     52 H72        -4.6970    0.9040    2.9920 h1        1 3CY      0.076700
     53 H81        -6.4650   -1.7390    5.4190 h1        1 3CY      0.110200
     54 H82        -6.1400    0.0290    5.1780 h1        1 3CY      0.110200
     55 H10        -6.9320    1.1550    3.2000 h1        1 3CY      0.117700
     56 HN1       -10.1760   -1.0650    2.8610 ho        1 3CY      0.487000
     57 H111       -8.9240    2.2610    3.4330 hc        1 3CY      0.105700
     58 H112       -9.3490    0.8410    4.4880 hc        1 3CY      0.105700
     59 H14        -7.0620   -0.8600   -0.8400 h1        1 3CY      0.107700
     60 H151       -5.2460    1.4710   -1.0700 hc        1 3CY      0.097700
     61 H152       -5.4200    0.0640   -2.2110 hc        1 3CY      0.097700
     62 H17        -5.1290    2.6130   -3.8060 ha        1 3CY      0.156000
     63 H18        -6.7150    3.9560   -5.2060 ha        1 3CY      0.155000
     64 H19        -9.1570    3.8440   -4.7850 ha        1 3CY      0.148000
     65 H221      -10.8690    3.4760   -3.2310 hc        1 3CY      0.075700
     66 H222      -10.9480    1.7560   -3.7710 hc        1 3CY      0.075700
     67 H231      -10.4030    2.6090   -0.8280 hc        1 3CY      0.095700
     68 H232      -12.0610    2.4240   -1.5380 hc        1 3CY      0.095700
     69 H24       -11.2430    0.0270   -2.3540 hx        1 3CY      0.141700
     70 HN3       -11.4160   -0.5680    0.3000 hn        1 3CY      0.499300
     71 H27       -13.6950   -1.5790    0.9750 h1        1 3CY      0.116700
     72 HN4       -17.4210   -2.7840   -0.7440 ho        1 3CY      0.440000
     73 H311      -15.2330    3.6440    1.1060 hc        1 3CY      0.090367
     74 H312      -14.6880    2.7480    2.5960 hc        1 3CY      0.090367
     75 H313      -16.3030    2.3680    1.8460 hc        1 3CY      0.090367
     76 H281      -15.0460   -2.2590   -1.0190 hc        1 3CY      0.107700
     77 H282      -15.9170   -0.6690   -1.0230 hc        1 3CY      0.107700
     78 H12        -8.2960   -0.6950    1.3180 hn        1 3CY      0.339500
     79 H32       -12.0580    0.9780    0.3030 hn        1 3CY      0.499300
     80 H42       -15.0230    0.0560    2.0210 hn        1 3CY      0.362500
@<TRIPOS>BOND
     1    1    2 ar  
     2    1    6 ar  
     3    1   46 1   
     4    2    3 ar  
     5    2   47 1   
     6    3    4 ar  
     7    3   48 1   
     8    4    5 ar  
     9    4   49 1   
    10    5    6 ar  
    11    5   50 1   
    12    6    7 1   
    13    7    8 1   
    14    7   51 1   
    15    7   52 1   
    16    8    9 1   
    17    9   10 1   
    18    9   53 1   
    19    9   54 1   
    20   10   11 1   
    21   10   12 2   
    22   11   13 1   
    23   11   14 1   
    24   11   55 1   
    25   13   18 1   
    26   13   78 1   
    27   14   15 1   
    28   14   57 1   
    29   14   58 1   
    30   15   16 2   
    31   15   17 1   
    32   17   56 1   
    33   18   19 2   
    34   18   22 1   
    35   20   21 1   
    36   20   24 ar  
    37   20   28 ar  
    38   21   22 1   
    39   21   32 1   
    40   22   23 1   
    41   22   59 1   
    42   23   24 1   
    43   23   60 1   
    44   23   61 1   
    45   24   25 ar  
    46   25   26 ar  
    47   25   62 1   
    48   26   27 ar  
    49   26   63 1   
    50   27   28 ar  
    51   27   64 1   
    52   28   29 1   
    53   29   30 1   
    54   29   65 1   
    55   29   66 1   
    56   30   31 1   
    57   30   67 1   
    58   30   68 1   
    59   31   32 1   
    60   31   34 1   
    61   31   69 1   
    62   32   33 2   
    63   34   35 1   
    64   34   70 1   
    65   34   79 1   
    66   35   36 1   
    67   35   37 2   
    68   36   38 1   
    69   36   42 1   
    70   36   71 1   
    71   38   39 1   
    72   38   80 1   
    73   39   40 1   
    74   39   41 2   
    75   40   73 1   
    76   40   74 1   
    77   40   75 1   
    78   42   43 1   
    79   42   76 1   
    80   42   77 1   
    81   43   44 2   
    82   43   45 1   
    83   45   72 1   
@<TRIPOS>SUBSTRUCTURE
     1 3CY         1 TEMP              0 ****  ****    0 ROOT
