@<TRIPOS>MOLECULE
3CY
   80    83     1     0     0
SMALL
bcc


@<TRIPOS>ATOM
      1 C1         -2.8960    0.0360    1.6090 ca        1 3CY     -0.118500
      2 C2         -1.6480   -0.3800    1.1490 ca        1 3CY     -0.128500
      3 C3         -0.5690   -0.4640    2.0280 ca        1 3CY     -0.113000
      4 C4         -0.7400   -0.1270    3.3720 ca        1 3CY     -0.128500
      5 C5         -1.9850    0.2890    3.8370 ca        1 3CY     -0.118500
      6 C6         -3.0740    0.3700    2.9580 ca        1 3CY     -0.107300
      7 C7         -4.3960    0.8210    3.4370 c3        1 3CY      0.041000
      8 S1         -5.3090   -0.4060    4.3520 ss        1 3CY     -0.297200
      9 C8         -5.3600   -1.8100    3.2920 c3        1 3CY     -0.134300
     10 C9         -6.6970   -2.0930    2.6910 c         1 3CY      0.555100
     11 C10        -7.5670   -0.8850    2.2960 c3        1 3CY     -0.002300
     12 O1         -7.1070   -3.2380    2.4920 o         1 3CY     -0.504100
     13 N1         -7.8900   -0.8640    0.8900 n         1 3CY     -0.564900
     14 C11        -8.8280   -0.9430    3.1800 c3        1 3CY     -0.190400
     15 C12        -9.8260    0.0950    2.7760 c         1 3CY      0.685100
     16 O2        -10.8940   -0.1040    2.1780 o         1 3CY     -0.613000
     17 O3         -9.6110    1.4080    3.0450 oh        1 3CY     -0.568100
     18 C13        -7.0840   -0.2100   -0.0240 c         1 3CY      0.655100
     19 O4         -6.0960    0.4570    0.3330 o         1 3CY     -0.586100
     20 C21        -8.4310    1.4860   -2.7370 ca        1 3CY      0.024600
     21 N2         -8.7270    0.4940   -1.7560 n         1 3CY     -0.322000
     22 C14        -7.5080   -0.3150   -1.5070 c3        1 3CY      0.025700
     23 C15        -6.4010    0.2360   -2.4440 c3        1 3CY     -0.041100
     24 C16        -7.0730    1.3540   -3.1660 ca        1 3CY     -0.096300
     25 C17        -6.5350    2.2020   -4.1130 ca        1 3CY     -0.083000
     26 C18        -7.3490    3.2050   -4.6570 ca        1 3CY     -0.115000
     27 C19        -8.6640    3.3450   -4.2380 ca        1 3CY     -0.107000
     28 C20        -9.2360    2.4960   -3.2680 ca        1 3CY     -0.090300
     29 C22       -10.6520    2.7400   -2.8970 c3        1 3CY     -0.035100
     30 C23       -11.0170    2.2990   -1.4990 c3        1 3CY     -0.104400
     31 C24       -11.2460    0.7890   -1.4530 c3        1 3CY      0.076500
     32 C25        -9.9460   -0.0470   -1.4300 c         1 3CY      0.688500
     33 O5        -10.0330   -1.2250   -1.0040 o         1 3CY     -0.661500
     34 N3        -12.0640    0.4090   -0.2450 n4        1 3CY     -0.669800
     35 C26       -13.5130    0.1480   -0.4940 c         1 3CY      0.535100
     36 C27       -14.3880    0.0900    0.7860 c3        1 3CY      0.080700
     37 O6        -13.9090   -0.0110   -1.6380 o         1 3CY     -0.419100
     38 N4        -15.2040    1.2700    0.8740 n         1 3CY     -0.570900
     39 C30       -14.6410    2.5380    0.9530 c         1 3CY      0.690100
     40 C31       -15.5380    3.6880    1.3100 c3        1 3CY     -0.171100
     41 O9        -13.4280    2.6810    0.6820 o         1 3CY     -0.669100
     42 C28       -15.1910   -1.2190    0.6910 c3        1 3CY     -0.204400
     43 C29       -16.1010   -1.4200    1.8690 c         1 3CY      0.632100
     44 O8        -16.5890   -0.5400    2.5790 o         1 3CY     -0.483000
     45 O7        -16.4710   -2.6820    2.2120 oh        1 3CY     -0.542100
     46 H1         -3.7440    0.1220    0.9090 ha        1 3CY      0.141500
     47 H2         -1.5140   -0.6390    0.0880 ha        1 3CY      0.139000
     48 H3          0.4160   -0.7910    1.6630 ha        1 3CY      0.141000
     49 H4          0.1120   -0.1880    4.0660 ha        1 3CY      0.139000
     50 H5         -2.1170    0.5530    4.8970 ha        1 3CY      0.141500
     51 H71        -5.0150    1.1830    2.5760 h1        1 3CY      0.088200
     52 H72        -4.2880    1.6560    4.1780 h1        1 3CY      0.088200
     53 H81        -4.6160   -1.6950    2.4560 h1        1 3CY      0.123200
     54 H82        -5.0400   -2.6970    3.9020 h1        1 3CY      0.123200
     55 H10        -6.9910    0.0640    2.5380 h1        1 3CY      0.110700
     56 HN1        -8.5060   -1.5800    0.5630 hn        1 3CY      0.340500
     57 H111       -8.5170   -0.7810    4.2470 hc        1 3CY      0.109700
     58 H112       -9.3020   -1.9590    3.1020 hc        1 3CY      0.109700
     59 H14        -7.7190   -1.3990   -1.7490 h1        1 3CY      0.101700
     60 H151       -6.0560   -0.5630   -3.1470 hc        1 3CY      0.097200
     61 H152       -5.5190    0.6040   -1.8560 hc        1 3CY      0.097200
     62 H17        -5.4880    2.0940   -4.4350 ha        1 3CY      0.157000
     63 H18        -6.9370    3.8870   -5.4170 ha        1 3CY      0.155000
     64 H19        -9.2890    4.1440   -4.6700 ha        1 3CY      0.148000
     65 H221      -11.3200    2.2410   -3.6530 hc        1 3CY      0.074200
     66 H222      -10.8580    3.8460   -2.9680 hc        1 3CY      0.074200
     67 H231      -11.9600    2.8360   -1.1930 hc        1 3CY      0.093200
     68 H232      -10.2180    2.5990   -0.7700 hc        1 3CY      0.093200
     69 H24       -11.8180    0.4580   -2.3770 hx        1 3CY      0.140700
     70 HN3       -11.6610   -0.4500    0.1850 hn        1 3CY      0.503300
     71 H27       -13.7050    0.0290    1.6930 h1        1 3CY      0.102700
     72 HN4       -16.0910   -3.3320    1.6030 ho        1 3CY      0.438000
     73 H311      -16.3810    3.7720    0.5800 hc        1 3CY      0.090367
     74 H312      -15.9590    3.5470    2.3360 hc        1 3CY      0.090367
     75 H313      -14.9390    4.6330    1.2870 hc        1 3CY      0.090367
     76 H281      -14.4630   -2.0710    0.6210 hc        1 3CY      0.103700
     77 H282      -15.8220   -1.2210   -0.2430 hc        1 3CY      0.103700
     78 H12        -8.7710    1.5240    3.5160 ho        1 3CY      0.453000
     79 H32       -11.9930    1.1660    0.4690 hn        1 3CY      0.503300
     80 H42       -16.1440    1.1330    1.1880 hn        1 3CY      0.362500
@<TRIPOS>BOND
     1    1    2 ar  
     2    1    6 ar  
     3    1   46 1   
     4    2    3 ar  
     5    2   47 1   
     6    3    4 ar  
     7    3   48 1   
     8    4    5 ar  
     9    4   49 1   
    10    5    6 ar  
    11    5   50 1   
    12    6    7 1   
    13    7    8 1   
    14    7   51 1   
    15    7   52 1   
    16    8    9 1   
    17    9   10 1   
    18    9   53 1   
    19    9   54 1   
    20   10   11 1   
    21   10   12 2   
    22   11   13 1   
    23   11   14 1   
    24   11   55 1   
    25   13   18 1   
    26   13   56 1   
    27   14   15 1   
    28   14   57 1   
    29   14   58 1   
    30   15   16 2   
    31   15   17 1   
    32   17   78 1   
    33   18   19 2   
    34   18   22 1   
    35   20   21 1   
    36   20   24 ar  
    37   20   28 ar  
    38   21   22 1   
    39   21   32 1   
    40   22   23 1   
    41   22   59 1   
    42   23   24 1   
    43   23   60 1   
    44   23   61 1   
    45   24   25 ar  
    46   25   26 ar  
    47   25   62 1   
    48   26   27 ar  
    49   26   63 1   
    50   27   28 ar  
    51   27   64 1   
    52   28   29 1   
    53   29   30 1   
    54   29   65 1   
    55   29   66 1   
    56   30   31 1   
    57   30   67 1   
    58   30   68 1   
    59   31   32 1   
    60   31   34 1   
    61   31   69 1   
    62   32   33 2   
    63   34   35 1   
    64   34   70 1   
    65   34   79 1   
    66   35   36 1   
    67   35   37 2   
    68   36   38 1   
    69   36   42 1   
    70   36   71 1   
    71   38   39 1   
    72   38   80 1   
    73   39   40 1   
    74   39   41 2   
    75   40   73 1   
    76   40   74 1   
    77   40   75 1   
    78   42   43 1   
    79   42   76 1   
    80   42   77 1   
    81   43   44 2   
    82   43   45 1   
    83   45   72 1   
@<TRIPOS>SUBSTRUCTURE
     1 3CY         1 TEMP              0 ****  ****    0 ROOT
