@<TRIPOS>MOLECULE
3CY
   80    83     1     0     0
SMALL
bcc


@<TRIPOS>ATOM
      1 C1         -2.7240    0.6670    2.2700 ca        1 3CY     -0.115000
      2 C2         -2.2290    0.2600    1.0330 ca        1 3CY     -0.129000
      3 C3         -2.0810   -1.0980    0.7490 ca        1 3CY     -0.122000
      4 C4         -2.4300   -2.0500    1.7070 ca        1 3CY     -0.129000
      5 C5         -2.9240   -1.6470    2.9460 ca        1 3CY     -0.115000
      6 C6         -3.0770   -0.2850    3.2360 ca        1 3CY     -0.103300
      7 C7         -3.5680    0.1470    4.5620 c3        1 3CY      0.042000
      8 S1         -5.2720    0.6460    4.6060 ss        1 3CY     -0.273200
      9 C8         -6.2000   -0.8440    4.7130 c3        1 3CY     -0.135300
     10 C9         -6.7720   -1.2910    3.4050 c         1 3CY      0.565100
     11 C10        -7.5750   -0.2250    2.6390 c3        1 3CY     -0.008300
     12 O1         -6.6410   -2.4370    2.9740 o         1 3CY     -0.496100
     13 N1         -7.6110   -0.4750    1.2200 n         1 3CY     -0.552900
     14 C11        -8.9760   -0.1800    3.2870 c3        1 3CY     -0.187400
     15 C12       -10.0210    0.4390    2.4200 c         1 3CY      0.682100
     16 O2        -11.1540   -0.0130    2.1890 o         1 3CY     -0.589000
     17 O3         -9.8170    1.6140    1.7650 oh        1 3CY     -0.623100
     18 C13        -7.3740    0.5200    0.3010 c         1 3CY      0.653100
     19 O4         -7.2200    1.7060    0.6610 o         1 3CY     -0.611100
     20 C21        -8.2300    1.5090   -2.9250 ca        1 3CY      0.043600
     21 N2         -8.6150    0.6900   -1.8330 n         1 3CY     -0.336000
     22 C14        -7.3990    0.1310   -1.1920 c3        1 3CY      0.044700
     23 C15        -6.1800    0.7460   -1.9330 c3        1 3CY     -0.034100
     24 C16        -6.8030    1.5510   -3.0250 ca        1 3CY     -0.102300
     25 C17        -6.1810    2.2680   -4.0270 ca        1 3CY     -0.079000
     26 C18        -6.9740    2.9560   -4.9550 ca        1 3CY     -0.122000
     27 C19        -8.3590    2.9240   -4.8610 ca        1 3CY     -0.098000
     28 C20        -9.0170    2.2050   -3.8450 ca        1 3CY     -0.101300
     29 C22       -10.4980    2.2160   -3.7980 c3        1 3CY     -0.033100
     30 C23       -11.0330    2.3300   -2.3850 c3        1 3CY     -0.103400
     31 C24       -11.1680    0.9500   -1.7460 c3        1 3CY      0.072500
     32 C25        -9.8370    0.2500   -1.4000 c         1 3CY      0.691500
     33 O5         -9.8980   -0.7340   -0.6260 o         1 3CY     -0.651500
     34 N3        -11.9990    1.0260   -0.4890 n4        1 3CY     -0.678800
     35 C26       -13.0900    0.0030   -0.3770 c         1 3CY      0.540100
     36 C27       -13.9170    0.0900    0.9340 c3        1 3CY      0.082700
     37 O6        -13.2690   -0.7880   -1.2880 o         1 3CY     -0.420100
     38 N4        -15.1820    0.7110    0.6640 n         1 3CY     -0.572900
     39 C30       -15.2690    2.0730    0.4060 c         1 3CY      0.689100
     40 C31       -16.6290    2.7090    0.4060 c3        1 3CY     -0.172100
     41 O9        -14.2230    2.7100    0.1440 o         1 3CY     -0.671100
     42 C28       -14.0020   -1.3480    1.4720 c3        1 3CY     -0.199400
     43 C29       -14.8680   -1.4480    2.6940 c         1 3CY      0.635100
     44 O8        -15.9780   -0.9350    2.8450 o         1 3CY     -0.491000
     45 O7        -14.4520   -2.1910    3.7530 oh        1 3CY     -0.547100
     46 H1         -2.8330    1.7390    2.4930 ha        1 3CY      0.137000
     47 H2         -1.9430    1.0130    0.2840 ha        1 3CY      0.138500
     48 H3         -1.6790   -1.4180   -0.2240 ha        1 3CY      0.137000
     49 H4         -2.3070   -3.1220    1.4900 ha        1 3CY      0.138500
     50 H5         -3.1860   -2.4030    3.7020 ha        1 3CY      0.137000
     51 H71        -3.3880   -0.6480    5.3280 h1        1 3CY      0.092700
     52 H72        -3.0310    1.0770    4.8930 h1        1 3CY      0.092700
     53 H81        -5.5900   -1.6740    5.1540 h1        1 3CY      0.107200
     54 H82        -7.0480   -0.6320    5.4170 h1        1 3CY      0.107200
     55 H10        -7.0560    0.7750    2.8110 h1        1 3CY      0.130700
     56 HN1        -8.9220    1.9680    1.9240 ho        1 3CY      0.485000
     57 H111       -8.9080    0.4070    4.2430 hc        1 3CY      0.103700
     58 H112       -9.3140   -1.2220    3.5410 hc        1 3CY      0.103700
     59 H14        -7.4120   -0.9900   -1.3170 h1        1 3CY      0.096700
     60 H151       -5.5220   -0.0630   -2.3340 hc        1 3CY      0.092200
     61 H152       -5.5810    1.3970   -1.2450 hc        1 3CY      0.092200
     62 H17        -5.0830    2.2990   -4.0970 ha        1 3CY      0.155000
     63 H18        -6.4910    3.5290   -5.7630 ha        1 3CY      0.155000
     64 H19        -8.9670    3.4740   -5.5980 ha        1 3CY      0.148000
     65 H221      -10.8840    3.0940   -4.3890 hc        1 3CY      0.074700
     66 H222      -10.8970    1.2920   -4.3010 hc        1 3CY      0.074700
     67 H231      -12.0440    2.8230   -2.4310 hc        1 3CY      0.083700
     68 H232      -10.3640    2.9880   -1.7690 hc        1 3CY      0.083700
     69 H24       -11.7000    0.2570   -2.4740 hx        1 3CY      0.142700
     70 HN3       -11.3860    0.9040    0.3440 hn        1 3CY      0.499300
     71 H27       -13.3360    0.7140    1.6870 h1        1 3CY      0.110700
     72 HN4       -13.5870   -2.5890    3.5750 ho        1 3CY      0.437000
     73 H311      -16.5220    3.7900    0.1380 hc        1 3CY      0.090367
     74 H312      -17.2980    2.2110   -0.3380 hc        1 3CY      0.090367
     75 H313      -17.0920    2.6290    1.4210 hc        1 3CY      0.090367
     76 H281      -12.9500   -1.6760    1.7010 hc        1 3CY      0.110700
     77 H282      -14.4250   -2.0360    0.6880 hc        1 3CY      0.110700
     78 H12        -7.7180   -1.4210    0.9250 hn        1 3CY      0.347500
     79 H32       -12.4430    1.9620   -0.4210 hn        1 3CY      0.499300
     80 H42       -16.0010    0.2110    0.9490 hn        1 3CY      0.364500
@<TRIPOS>BOND
     1    1    2 ar  
     2    1    6 ar  
     3    1   46 1   
     4    2    3 ar  
     5    2   47 1   
     6    3    4 ar  
     7    3   48 1   
     8    4    5 ar  
     9    4   49 1   
    10    5    6 ar  
    11    5   50 1   
    12    6    7 1   
    13    7    8 1   
    14    7   51 1   
    15    7   52 1   
    16    8    9 1   
    17    9   10 1   
    18    9   53 1   
    19    9   54 1   
    20   10   11 1   
    21   10   12 2   
    22   11   13 1   
    23   11   14 1   
    24   11   55 1   
    25   13   18 1   
    26   13   78 1   
    27   14   15 1   
    28   14   57 1   
    29   14   58 1   
    30   15   16 2   
    31   15   17 1   
    32   17   56 1   
    33   18   19 2   
    34   18   22 1   
    35   20   21 1   
    36   20   24 ar  
    37   20   28 ar  
    38   21   22 1   
    39   21   32 1   
    40   22   23 1   
    41   22   59 1   
    42   23   24 1   
    43   23   60 1   
    44   23   61 1   
    45   24   25 ar  
    46   25   26 ar  
    47   25   62 1   
    48   26   27 ar  
    49   26   63 1   
    50   27   28 ar  
    51   27   64 1   
    52   28   29 1   
    53   29   30 1   
    54   29   65 1   
    55   29   66 1   
    56   30   31 1   
    57   30   67 1   
    58   30   68 1   
    59   31   32 1   
    60   31   34 1   
    61   31   69 1   
    62   32   33 2   
    63   34   35 1   
    64   34   70 1   
    65   34   79 1   
    66   35   36 1   
    67   35   37 2   
    68   36   38 1   
    69   36   42 1   
    70   36   71 1   
    71   38   39 1   
    72   38   80 1   
    73   39   40 1   
    74   39   41 2   
    75   40   73 1   
    76   40   74 1   
    77   40   75 1   
    78   42   43 1   
    79   42   76 1   
    80   42   77 1   
    81   43   44 2   
    82   43   45 1   
    83   45   72 1   
@<TRIPOS>SUBSTRUCTURE
     1 3CY         1 TEMP              0 ****  ****    0 ROOT
