@<TRIPOS>MOLECULE
3CY
   77    80     1     0     0
SMALL
bcc


@<TRIPOS>ATOM
      1 C1         73.7860  -16.9070   91.8430 ca        1 3CY     -0.115000
      2 C2         74.0860  -16.7610   90.4900 ca        1 3CY     -0.138500
      3 C3         73.2460  -17.3100   89.5210 ca        1 3CY     -0.143000
      4 C4         72.1010  -18.0050   89.9100 ca        1 3CY     -0.138500
      5 C5         71.7970  -18.1520   91.2620 ca        1 3CY     -0.115000
      6 C6         72.6360  -17.6040   92.2400 ca        1 3CY     -0.046300
      7 C7         72.3240  -17.7710   93.6760 c3        1 3CY      0.018000
      8 S1         71.3460  -16.3840   94.2020 ss        1 3CY     -0.289200
      9 C8         71.1320  -16.6870   95.9240 c3        1 3CY     -0.145300
     10 C9         72.3510  -16.8560   96.7690 c         1 3CY      0.570100
     11 C10        72.1110  -17.5910   98.0990 c3        1 3CY      0.006700
     12 O1         73.4740  -16.4450   96.4430 o         1 3CY     -0.588100
     13 N1         73.3460  -17.9950   98.7460 n         1 3CY     -0.528900
     14 C11        71.2580  -16.7010   99.0100 c3        1 3CY     -0.205400
     15 C12        69.8270  -16.5490   98.4580 c         1 3CY      0.901600
     16 O2         69.3650  -15.3760   98.3600 o         1 3CY     -0.838300
     17 O3         69.1980  -17.5910   98.1180 o         1 3CY     -0.838300
     18 C13        74.0760  -19.0860   98.2880 c         1 3CY      0.650100
     19 O4         73.5530  -20.0130   97.6470 o         1 3CY     -0.580100
     20 C21        77.0990  -20.2020   97.2840 ca        1 3CY      0.070600
     21 N2         76.2740  -20.3310   98.4280 n         1 3CY     -0.343000
     22 C14        75.5780  -19.0530   98.6580 c3        1 3CY      0.014700
     23 C15        76.2700  -17.9990   97.7380 c3        1 3CY     -0.058100
     24 C16        77.1440  -18.8310   96.8590 ca        1 3CY     -0.115300
     25 C17        77.8800  -18.4410   95.7620 ca        1 3CY     -0.101000
     26 C18        78.5900  -19.4190   95.0490 ca        1 3CY     -0.158000
     27 C19        78.5230  -20.7480   95.4300 ca        1 3CY     -0.117000
     28 C20        77.7680  -21.1810   96.5430 ca        1 3CY     -0.088300
     29 C22        77.7370  -22.6470   96.7890 c3        1 3CY     -0.027100
     30 C23        77.0340  -23.1160   98.0400 c3        1 3CY     -0.092400
     31 C24        77.5360  -22.3350   99.2710 c3        1 3CY      0.050700
     32 C25        76.5450  -21.1780   99.5140 c         1 3CY      0.683500
     33 O5         75.9680  -20.9820  100.5960 o         1 3CY     -0.606500
     34 N3         77.7340  -23.1560  100.4310 n         1 3CY     -0.563900
     35 C26        78.9870  -23.3590  100.9800 c         1 3CY      0.656100
     36 C27        79.0650  -24.3120  102.2040 c3        1 3CY      0.057700
     37 O6         79.9960  -22.8060  100.5000 o         1 3CY     -0.635100
     38 N4         78.7240  -25.6650  101.8140 n         1 3CY     -0.533900
     39 C30        77.4260  -26.1250  101.8960 c         1 3CY      0.646100
     40 C31        77.2240  -27.6230  101.8440 c3        1 3CY     -0.173100
     41 O9         76.4400  -25.3540  101.9470 o         1 3CY     -0.654100
     42 C28        80.4650  -24.2080  102.8170 c3        1 3CY     -0.205400
     43 C29        80.7300  -25.2590  103.9090 c         1 3CY      0.907600
     44 O8         80.7510  -26.4850  103.5720 o         1 3CY     -0.846300
     45 O7         80.9470  -24.8580  105.0840 o         1 3CY     -0.846300
     46 H1         74.4460  -16.4700   92.6080 ha        1 3CY      0.141500
     47 H2         74.9890  -16.2120   90.1870 ha        1 3CY      0.120000
     48 H3         73.4860  -17.1950   88.4550 ha        1 3CY      0.116000
     49 H4         71.4360  -18.4370   89.1500 ha        1 3CY      0.120000
     50 H5         70.8910  -18.6980   91.5670 ha        1 3CY      0.141500
     51 H71        73.2610  -17.8110   94.2890 h1        1 3CY      0.078700
     52 H72        71.7610  -18.7210   93.8540 h1        1 3CY      0.078700
     53 H81        70.4420  -17.5590   96.0910 h1        1 3CY      0.148200
     54 H82        70.5680  -15.7810   96.3070 h1        1 3CY      0.148200
     55 H10        71.5130  -18.5300   97.8710 h1        1 3CY      0.129700
     56 HN1        73.8730  -17.2390   99.1230 hn        1 3CY      0.287500
     57 H111       71.7260  -15.6920   99.1210 hc        1 3CY      0.044700
     58 H112       71.1760  -17.1690  100.0230 hc        1 3CY      0.044700
     59 H14        75.6780  -18.7810   99.7480 h1        1 3CY      0.096700
     60 H151       76.8700  -17.2830   98.3510 hc        1 3CY      0.080200
     61 H152       75.5220  -17.4160   97.1400 hc        1 3CY      0.080200
     62 H17        77.9050  -17.3890   95.4460 ha        1 3CY      0.132000
     63 H18        79.1900  -19.1240   94.1760 ha        1 3CY      0.121000
     64 H19        79.0690  -21.5080   94.8500 ha        1 3CY      0.123000
     65 H221       78.8000  -23.0180   96.8150 hc        1 3CY      0.049700
     66 H222       77.2400  -23.1340   95.9030 hc        1 3CY      0.049700
     67 H231       77.2390  -24.2130   98.1650 hc        1 3CY      0.065200
     68 H232       75.9240  -23.0050   97.9340 hc        1 3CY      0.065200
     69 H24        78.5370  -21.8580   99.0180 h1        1 3CY      0.106700
     70 HN3        76.9280  -23.5380  100.8790 hn        1 3CY      0.352500
     71 H27        78.3090  -23.9370  102.9620 h1        1 3CY      0.074700
     72 HN4        79.4570  -26.3330  102.0070 hn        1 3CY      0.359500
     73 H311       77.7240  -28.1030  102.7200 hc        1 3CY      0.058700
     74 H312       76.1310  -27.8430  101.8750 hc        1 3CY      0.058700
     75 H313       77.6560  -28.0440  100.9050 hc        1 3CY      0.058700
     76 H281       80.5730  -23.1820  103.2500 hc        1 3CY      0.055200
     77 H282       81.2380  -24.3330  102.0170 hc        1 3CY      0.055200
@<TRIPOS>BOND
     1    1    2 ar  
     2    1    6 ar  
     3    1   46 1   
     4    2    3 ar  
     5    2   47 1   
     6    3    4 ar  
     7    3   48 1   
     8    4    5 ar  
     9    4   49 1   
    10    5    6 ar  
    11    5   50 1   
    12    6    7 1   
    13    7    8 1   
    14    7   51 1   
    15    7   52 1   
    16    8    9 1   
    17    9   10 1   
    18    9   53 1   
    19    9   54 1   
    20   10   11 1   
    21   10   12 2   
    22   11   13 1   
    23   11   14 1   
    24   11   55 1   
    25   13   18 1   
    26   13   56 1   
    27   14   15 1   
    28   14   57 1   
    29   14   58 1   
    30   15   16 1   
    31   15   17 1   
    32   18   19 2   
    33   18   22 1   
    34   20   21 1   
    35   20   24 ar  
    36   20   28 ar  
    37   21   22 1   
    38   21   32 1   
    39   22   23 1   
    40   22   59 1   
    41   23   24 1   
    42   23   60 1   
    43   23   61 1   
    44   24   25 ar  
    45   25   26 ar  
    46   25   62 1   
    47   26   27 ar  
    48   26   63 1   
    49   27   28 ar  
    50   27   64 1   
    51   28   29 1   
    52   29   30 1   
    53   29   65 1   
    54   29   66 1   
    55   30   31 1   
    56   30   67 1   
    57   30   68 1   
    58   31   32 1   
    59   31   34 1   
    60   31   69 1   
    61   32   33 2   
    62   34   35 1   
    63   34   70 1   
    64   35   36 1   
    65   35   37 2   
    66   36   38 1   
    67   36   42 1   
    68   36   71 1   
    69   38   39 1   
    70   38   72 1   
    71   39   40 1   
    72   39   41 2   
    73   40   73 1   
    74   40   74 1   
    75   40   75 1   
    76   42   43 1   
    77   42   76 1   
    78   42   77 1   
    79   43   44 1   
    80   43   45 1   
@<TRIPOS>SUBSTRUCTURE
     1 3CY         1 TEMP              0 ****  ****    0 ROOT
