@<TRIPOS>MOLECULE
3CZ
   56    58     1     0     0
SMALL
bcc


@<TRIPOS>ATOM
      1 O3         -0.1850   -0.5720   -0.2110 o         1 3CZ     -0.217000
      2 N2          1.0110   -0.5030   -0.1020 no        1 3CZ      0.320200
      3 O4          1.5590   -0.6160    0.9640 o         1 3CZ     -0.217000
      4 C5          1.8320   -0.2720   -1.3110 ca        1 3CZ     -0.224200
      5 C12         1.2130   -0.1460   -2.5660 ca        1 3CZ     -0.032000
      6 C14         1.9820    0.0680   -3.6980 ca        1 3CZ     -0.200500
      7 C13         3.2280   -0.1760   -1.2050 ca        1 3CZ     -0.032000
      8 C15         3.9950    0.0420   -2.3390 ca        1 3CZ     -0.200500
      9 C6          3.3970    0.1610   -3.6210 ca        1 3CZ      0.205600
     10 N3          4.1650    0.2800   -4.7900 nh        1 3CZ     -0.644000
     11 C4          5.6080    0.2210   -4.6510 c3        1 3CZ      0.182800
     12 C1          6.3560    0.0780   -6.0080 c3        1 3CZ      0.234500
     13 C22         6.2920   -1.3780   -6.4690 c3        1 3CZ     -0.112100
     14 C7          3.7010    1.2170   -5.7990 c3        1 3CZ      0.184800
     15 C2          4.4540    1.0700   -7.1410 c3        1 3CZ      0.219800
     16 N1          5.8830    1.0260   -6.9940 n3        1 3CZ     -0.810500
     17 S1          6.8890    1.9700   -7.8700 sy        1 3CZ      1.512200
     18 O1          6.2100    3.1540   -8.2360 o         1 3CZ     -0.651300
     19 O2          8.1070    2.1220   -7.1710 o         1 3CZ     -0.651300
     20 C3          7.1720    1.0650   -9.2600 ca        1 3CZ     -0.392500
     21 C10         6.4450    1.3040  -10.4340 ca        1 3CZ     -0.014000
     22 C17         6.6990    0.5820  -11.5930 ca        1 3CZ     -0.158000
     23 C11         8.1670    0.0830   -9.2920 ca        1 3CZ     -0.014000
     24 C16         8.4290   -0.6450  -10.4500 ca        1 3CZ     -0.158000
     25 C9          7.6950   -0.4080  -11.6190 ca        1 3CZ      0.006700
     26 C8          7.9420   -1.1700  -12.8940 c3        1 3CZ     -0.021700
     27 C21         8.3450   -0.1910  -13.9950 c3        1 3CZ     -0.087767
     28 C20         9.0510   -2.2050  -12.7480 c3        1 3CZ     -0.087767
     29 C19         6.6630   -1.8940  -13.3050 c3        1 3CZ     -0.087767
     30 H12         0.1150   -0.2220   -2.6500 ha        1 3CZ      0.169000
     31 H14         1.4660    0.1430   -4.6670 ha        1 3CZ      0.147000
     32 H13         3.7160   -0.2670   -0.2180 ha        1 3CZ      0.169000
     33 H15         5.0850    0.1310   -2.2140 ha        1 3CZ      0.147000
     34 H4          5.8690   -0.6820   -4.0310 h1        1 3CZ      0.053200
     35 H4A         6.0000    1.1410   -4.1270 h1        1 3CZ      0.053200
     36 H1          7.4420    0.3280   -5.7900 h1        1 3CZ      0.081700
     37 H22         6.8570   -1.5140   -7.4240 hc        1 3CZ      0.047033
     38 H22A        5.2370   -1.7040   -6.6290 hc        1 3CZ      0.047033
     39 H22B        6.7530   -2.0290   -5.6880 hc        1 3CZ      0.047033
     40 H7          3.8110    2.2790   -5.4320 h1        1 3CZ      0.053700
     41 H7A         2.6120    1.0310   -6.0130 h1        1 3CZ      0.053700
     42 H2          4.1720    1.9550   -7.7830 h1        1 3CZ      0.062700
     43 H2A         4.0980    0.1280   -7.6500 h1        1 3CZ      0.062700
     44 H10         5.6710    2.0920  -10.4360 ha        1 3CZ      0.150500
     45 H17         6.1140    0.7940  -12.5010 ha        1 3CZ      0.144000
     46 H11         8.7680   -0.1040   -8.3840 ha        1 3CZ      0.150500
     47 H16         9.2250   -1.4040  -10.4280 ha        1 3CZ      0.144000
     48 H21         8.5350   -0.7470  -14.9440 hc        1 3CZ      0.040811
     49 H21A        7.5340    0.5550  -14.1760 hc        1 3CZ      0.040811
     50 H21B        9.2750    0.3550  -13.7070 hc        1 3CZ      0.040811
     51 H20         8.7880   -2.9560  -11.9650 hc        1 3CZ      0.040811
     52 H20A       10.0160   -1.7140  -12.4770 hc        1 3CZ      0.040811
     53 H20B        9.1910   -2.7430  -13.7170 hc        1 3CZ      0.040811
     54 H19         6.3500   -2.6100  -12.5090 hc        1 3CZ      0.040811
     55 H19A        6.8370   -2.4620  -14.2500 hc        1 3CZ      0.040811
     56 H19B        5.8350   -1.1650  -13.4770 hc        1 3CZ      0.040811
@<TRIPOS>BOND
     1    1    2 1   
     2    2    3 1   
     3    2    4 1   
     4    4    5 ar  
     5    4    7 ar  
     6    5    6 ar  
     7    5   30 1   
     8    6    9 ar  
     9    6   31 1   
    10    7    8 ar  
    11    7   32 1   
    12    8    9 ar  
    13    8   33 1   
    14    9   10 1   
    15   10   11 1   
    16   10   14 1   
    17   11   12 1   
    18   11   34 1   
    19   11   35 1   
    20   12   13 1   
    21   12   16 1   
    22   12   36 1   
    23   13   37 1   
    24   13   38 1   
    25   13   39 1   
    26   14   15 1   
    27   14   40 1   
    28   14   41 1   
    29   15   16 1   
    30   15   42 1   
    31   15   43 1   
    32   16   17 1   
    33   17   18 2   
    34   17   19 2   
    35   17   20 1   
    36   20   21 ar  
    37   20   23 ar  
    38   21   22 ar  
    39   21   44 1   
    40   22   25 ar  
    41   22   45 1   
    42   23   24 ar  
    43   23   46 1   
    44   24   25 ar  
    45   24   47 1   
    46   25   26 1   
    47   26   27 1   
    48   26   28 1   
    49   26   29 1   
    50   27   48 1   
    51   27   49 1   
    52   27   50 1   
    53   28   51 1   
    54   28   52 1   
    55   28   53 1   
    56   29   54 1   
    57   29   55 1   
    58   29   56 1   
@<TRIPOS>SUBSTRUCTURE
     1 3CZ         1 TEMP              0 ****  ****    0 ROOT
