@<TRIPOS>MOLECULE
3CZ
   56    58     1     0     0
SMALL
bcc


@<TRIPOS>ATOM
      1 O3         -0.1750   -0.5840   -0.2030 o         1 3CZ     -0.217000
      2 N2          1.0210   -0.5050   -0.0950 no        1 3CZ      0.320200
      3 O4          1.5710   -0.6110    0.9700 o         1 3CZ     -0.217000
      4 C5          1.8380   -0.2740   -1.3070 ca        1 3CZ     -0.224200
      5 C12         1.2170   -0.1570   -2.5610 ca        1 3CZ     -0.032000
      6 C14         1.9820    0.0580   -3.6950 ca        1 3CZ     -0.200500
      7 C13         3.2340   -0.1680   -1.2030 ca        1 3CZ     -0.032000
      8 C15         3.9970    0.0510   -2.3400 ca        1 3CZ     -0.200500
      9 C6          3.3970    0.1610   -3.6200 ca        1 3CZ      0.205600
     10 N3          4.1620    0.2810   -4.7910 nh        1 3CZ     -0.644000
     11 C4          5.6060    0.2320   -4.6540 c3        1 3CZ      0.182800
     12 C1          6.3530    0.0900   -6.0120 c3        1 3CZ      0.234500
     13 C22         6.2990   -1.3690   -6.4680 c3        1 3CZ     -0.112100
     14 C7          3.6900    1.2100   -5.8040 c3        1 3CZ      0.184800
     15 C2          4.4420    1.0640   -7.1460 c3        1 3CZ      0.219800
     16 N1          5.8710    1.0310   -7.0000 n3        1 3CZ     -0.810500
     17 S1          6.8700    1.9800   -7.8810 sy        1 3CZ      1.512200
     18 O1          6.1800    3.1560   -8.2520 o         1 3CZ     -0.651300
     19 O2          8.0860    2.1450   -7.1830 o         1 3CZ     -0.651300
     20 C3          7.1600    1.0710   -9.2670 ca        1 3CZ     -0.392500
     21 C10         6.4320    1.2980  -10.4420 ca        1 3CZ     -0.014000
     22 C17         6.6920    0.5720  -11.5980 ca        1 3CZ     -0.158000
     23 C11         8.1630    0.0960   -9.2940 ca        1 3CZ     -0.014000
     24 C16         8.4310   -0.6350  -10.4480 ca        1 3CZ     -0.158000
     25 C9          7.6960   -0.4090  -11.6180 ca        1 3CZ      0.006700
     26 C8          7.9500   -1.1750  -12.8900 c3        1 3CZ     -0.021700
     27 C21         8.3440   -0.1980  -13.9950 c3        1 3CZ     -0.087767
     28 C20         9.0670   -2.2010  -12.7390 c3        1 3CZ     -0.087767
     29 C19         6.6760   -1.9120  -13.2980 c3        1 3CZ     -0.087767
     30 H12         0.1180   -0.2400   -2.6430 ha        1 3CZ      0.169000
     31 H14         1.4640    0.1270   -4.6640 ha        1 3CZ      0.147000
     32 H13         3.7240   -0.2520   -0.2160 ha        1 3CZ      0.169000
     33 H15         5.0870    0.1470   -2.2160 ha        1 3CZ      0.147000
     34 H4          5.9920    1.1570   -4.1340 h1        1 3CZ      0.053200
     35 H4A         5.8740   -0.6670   -4.0310 h1        1 3CZ      0.053200
     36 H1          7.4380    0.3480   -5.7960 h1        1 3CZ      0.080700
     37 H22         5.2460   -1.7020   -6.6240 hc        1 3CZ      0.047033
     38 H22A        6.7660   -2.0130   -5.6850 hc        1 3CZ      0.047033
     39 H22B        6.8630   -1.5030   -7.4220 hc        1 3CZ      0.047033
     40 H7          3.7920    2.2740   -5.4410 h1        1 3CZ      0.053700
     41 H7A         2.6020    1.0160   -6.0150 h1        1 3CZ      0.053700
     42 H2          4.0920    0.1170   -7.6500 h1        1 3CZ      0.062700
     43 H2A         4.1530    1.9440   -7.7900 h1        1 3CZ      0.062700
     44 H10         5.6510    2.0800  -10.4480 ha        1 3CZ      0.150500
     45 H17         6.1050    0.7760  -12.5070 ha        1 3CZ      0.144000
     46 H11         8.7650   -0.0820   -8.3850 ha        1 3CZ      0.150500
     47 H16         9.2330   -1.3880  -10.4220 ha        1 3CZ      0.144000
     48 H21         9.2700    0.3570  -13.7100 hc        1 3CZ      0.040811
     49 H21A        8.5400   -0.7570  -14.9420 hc        1 3CZ      0.040811
     50 H21B        7.5270    0.5390  -14.1810 hc        1 3CZ      0.040811
     51 H20         8.8110   -2.9500  -11.9520 hc        1 3CZ      0.040811
     52 H20A       10.0280   -1.7000  -12.4700 hc        1 3CZ      0.040811
     53 H20B        9.2120   -2.7420  -13.7050 hc        1 3CZ      0.040811
     54 H19         6.3700   -2.6280  -12.4980 hc        1 3CZ      0.040811
     55 H19A        5.8420   -1.1920  -13.4730 hc        1 3CZ      0.040811
     56 H19B        6.8560   -2.4830  -14.2400 hc        1 3CZ      0.040811
@<TRIPOS>BOND
     1    1    2 1   
     2    2    3 1   
     3    2    4 1   
     4    4    5 ar  
     5    4    7 ar  
     6    5    6 ar  
     7    5   30 1   
     8    6    9 ar  
     9    6   31 1   
    10    7    8 ar  
    11    7   32 1   
    12    8    9 ar  
    13    8   33 1   
    14    9   10 1   
    15   10   11 1   
    16   10   14 1   
    17   11   12 1   
    18   11   34 1   
    19   11   35 1   
    20   12   13 1   
    21   12   16 1   
    22   12   36 1   
    23   13   37 1   
    24   13   38 1   
    25   13   39 1   
    26   14   15 1   
    27   14   40 1   
    28   14   41 1   
    29   15   16 1   
    30   15   42 1   
    31   15   43 1   
    32   16   17 1   
    33   17   18 2   
    34   17   19 2   
    35   17   20 1   
    36   20   21 ar  
    37   20   23 ar  
    38   21   22 ar  
    39   21   44 1   
    40   22   25 ar  
    41   22   45 1   
    42   23   24 ar  
    43   23   46 1   
    44   24   25 ar  
    45   24   47 1   
    46   25   26 1   
    47   26   27 1   
    48   26   28 1   
    49   26   29 1   
    50   27   48 1   
    51   27   49 1   
    52   27   50 1   
    53   28   51 1   
    54   28   52 1   
    55   28   53 1   
    56   29   54 1   
    57   29   55 1   
    58   29   56 1   
@<TRIPOS>SUBSTRUCTURE
     1 3CZ         1 TEMP              0 ****  ****    0 ROOT
