@<TRIPOS>MOLECULE
3CZ
   56    58     1     0     0
SMALL
bcc


@<TRIPOS>ATOM
      1 O3         -0.1770   -0.5740   -0.2050 o         1 3CZ     -0.217000
      2 N2          1.0190   -0.5020   -0.0970 no        1 3CZ      0.320200
      3 O4          1.5680   -0.6130    0.9680 o         1 3CZ     -0.217000
      4 C5          1.8380   -0.2710   -1.3070 ca        1 3CZ     -0.224200
      5 C12         1.2170   -0.1480   -2.5620 ca        1 3CZ     -0.032000
      6 C14         1.9840    0.0660   -3.6950 ca        1 3CZ     -0.200500
      7 C13         3.2340   -0.1730   -1.2030 ca        1 3CZ     -0.032000
      8 C15         3.9990    0.0460   -2.3380 ca        1 3CZ     -0.200500
      9 C6          3.3990    0.1620   -3.6190 ca        1 3CZ      0.205600
     10 N3          4.1650    0.2810   -4.7900 nh        1 3CZ     -0.644000
     11 C4          5.6090    0.2250   -4.6520 c3        1 3CZ      0.182800
     12 C1          6.3560    0.0820   -6.0100 c3        1 3CZ      0.234500
     13 C22         6.2940   -1.3750   -6.4690 c3        1 3CZ     -0.112100
     14 C7          3.6980    1.2160   -5.8000 c3        1 3CZ      0.184800
     15 C2          4.4500    1.0690   -7.1420 c3        1 3CZ      0.219800
     16 N1          5.8790    1.0280   -6.9960 n3        1 3CZ     -0.810500
     17 S1          6.8820    1.9730   -7.8750 sy        1 3CZ      1.512200
     18 O1          6.2000    3.1550   -8.2420 o         1 3CZ     -0.651300
     19 O2          8.1000    2.1290   -7.1770 o         1 3CZ     -0.651300
     20 C3          7.1670    1.0670   -9.2630 ca        1 3CZ     -0.392500
     21 C10         6.4390    1.3010  -10.4370 ca        1 3CZ     -0.014000
     22 C17         6.6950    0.5780  -11.5950 ca        1 3CZ     -0.158000
     23 C11         8.1650    0.0860   -9.2940 ca        1 3CZ     -0.014000
     24 C16         8.4280   -0.6420  -10.4500 ca        1 3CZ     -0.158000
     25 C9          7.6940   -0.4090  -11.6200 ca        1 3CZ      0.006700
     26 C8          7.9430   -1.1730  -12.8940 c3        1 3CZ     -0.021700
     27 C21         8.3420   -0.1940  -13.9960 c3        1 3CZ     -0.087767
     28 C20         9.0530   -2.2050  -12.7460 c3        1 3CZ     -0.087767
     29 C19         6.6650   -1.9010  -13.3030 c3        1 3CZ     -0.087767
     30 H12         0.1180   -0.2250   -2.6440 ha        1 3CZ      0.169000
     31 H14         1.4660    0.1400   -4.6630 ha        1 3CZ      0.147000
     32 H13         3.7230   -0.2610   -0.2160 ha        1 3CZ      0.169000
     33 H15         5.0890    0.1360   -2.2140 ha        1 3CZ      0.147000
     34 H4          6.0000    1.1460   -4.1300 h1        1 3CZ      0.053200
     35 H4A         5.8720   -0.6770   -4.0310 h1        1 3CZ      0.053200
     36 H1          7.4410    0.3340   -5.7930 h1        1 3CZ      0.081700
     37 H22         6.8580   -1.5100   -7.4240 hc        1 3CZ      0.047033
     38 H22A        5.2390   -1.7030   -6.6280 hc        1 3CZ      0.047033
     39 H22B        6.7570   -2.0240   -5.6880 hc        1 3CZ      0.047033
     40 H7          3.8060    2.2780   -5.4340 h1        1 3CZ      0.053700
     41 H7A         2.6100    1.0270   -6.0110 h1        1 3CZ      0.053700
     42 H2          4.0950    0.1250   -7.6490 h1        1 3CZ      0.062700
     43 H2A         4.1660    1.9520   -7.7850 h1        1 3CZ      0.062700
     44 H10         5.6630    2.0870  -10.4410 ha        1 3CZ      0.150500
     45 H17         6.1090    0.7870  -12.5040 ha        1 3CZ      0.144000
     46 H11         8.7670   -0.0980   -8.3860 ha        1 3CZ      0.150500
     47 H16         9.2260   -1.4000  -10.4280 ha        1 3CZ      0.144000
     48 H21         9.2710    0.3540  -13.7100 hc        1 3CZ      0.040811
     49 H21A        7.5290    0.5480  -14.1790 hc        1 3CZ      0.040811
     50 H21B        8.5330   -0.7520  -14.9450 hc        1 3CZ      0.040811
     51 H20         9.1950   -2.7440  -13.7150 hc        1 3CZ      0.040811
     52 H20A        8.7930   -2.9550  -11.9620 hc        1 3CZ      0.040811
     53 H20B       10.0180   -1.7110  -12.4760 hc        1 3CZ      0.040811
     54 H19         6.3540   -2.6170  -12.5050 hc        1 3CZ      0.040811
     55 H19A        6.8400   -2.4700  -14.2470 hc        1 3CZ      0.040811
     56 H19B        5.8350   -1.1750  -13.4760 hc        1 3CZ      0.040811
@<TRIPOS>BOND
     1    1    2 1   
     2    2    3 1   
     3    2    4 1   
     4    4    5 ar  
     5    4    7 ar  
     6    5    6 ar  
     7    5   30 1   
     8    6    9 ar  
     9    6   31 1   
    10    7    8 ar  
    11    7   32 1   
    12    8    9 ar  
    13    8   33 1   
    14    9   10 1   
    15   10   11 1   
    16   10   14 1   
    17   11   12 1   
    18   11   34 1   
    19   11   35 1   
    20   12   13 1   
    21   12   16 1   
    22   12   36 1   
    23   13   37 1   
    24   13   38 1   
    25   13   39 1   
    26   14   15 1   
    27   14   40 1   
    28   14   41 1   
    29   15   16 1   
    30   15   42 1   
    31   15   43 1   
    32   16   17 1   
    33   17   18 2   
    34   17   19 2   
    35   17   20 1   
    36   20   21 ar  
    37   20   23 ar  
    38   21   22 ar  
    39   21   44 1   
    40   22   25 ar  
    41   22   45 1   
    42   23   24 ar  
    43   23   46 1   
    44   24   25 ar  
    45   24   47 1   
    46   25   26 1   
    47   26   27 1   
    48   26   28 1   
    49   26   29 1   
    50   27   48 1   
    51   27   49 1   
    52   27   50 1   
    53   28   51 1   
    54   28   52 1   
    55   28   53 1   
    56   29   54 1   
    57   29   55 1   
    58   29   56 1   
@<TRIPOS>SUBSTRUCTURE
     1 3CZ         1 TEMP              0 ****  ****    0 ROOT
