@<TRIPOS>MOLECULE
3CZ
   56    53     1     0     0
SMALL
bcc


@<TRIPOS>ATOM
      1 O3         -5.2440   -3.7930    6.1520 o         1 3CZ     -0.499700
      2 N2         -4.3770   -2.7900    5.8330 no        1 3CZ      0.840400
      3 O4         -4.2470   -1.8230    6.5910 o         1 3CZ     -0.499700
      4 C5         -3.7280   -2.8050    4.6090 c2        1 3CZ     -0.188000
      5 C12        -3.9880   -3.8200    3.7050 c2        1 3CZ     -0.026000
      6 C14        -3.3140   -3.8640    2.5030 c1        1 3CZ     -0.211000
      7 C13        -2.7960   -1.8390    4.3100 c1        1 3CZ     -0.026000
      8 C15        -2.1230   -1.8810    3.1130 c1        1 3CZ     -0.212000
      9 C6         -2.3830   -2.8990    2.2030 c1        1 3CZ      0.132000
     10 N3         -1.6140   -2.9670    0.9070 n3        1 3CZ     -0.239000
     11 C4         -0.2090   -2.9770    1.1720 c3        1 3CZ     -0.053000
     12 C1          0.6160   -2.9030   -0.1010 c3        1 3CZ      0.047000
     13 C22         0.4590   -4.2630   -0.8960 c3        1 3CZ     -0.227000
     14 C7         -2.0060   -1.8860    0.0640 c3        1 3CZ     -0.056000
     15 C2         -1.1860   -1.8140   -1.2030 c3        1 3CZ     -0.016000
     16 N1          0.2210   -1.8230   -0.9430 n3        1 3CZ     -0.829000
     17 S1          1.2810   -1.2390   -2.0860 s4        1 3CZ      2.068800
     18 O1          2.6010   -1.9370   -1.9960 o         1 3CZ     -0.535900
     19 O2          0.8680   -1.5900   -3.3950 o         1 3CZ     -0.535900
     20 C3          1.4800    0.5590   -1.9200 c1        1 3CZ     -0.841000
     21 C10         2.3520    1.0760   -0.9620 c2        1 3CZ     -0.018000
     22 C17         2.5960    2.4530   -0.9050 c1        1 3CZ     -0.158000
     23 C11         0.8440    1.4250   -2.8310 c1        1 3CZ     -0.013000
     24 C16         1.0890    2.8020   -2.7740 c1        1 3CZ     -0.157000
     25 C9          1.9650    3.3170   -1.8100 c1        1 3CZ      0.015000
     26 C8          2.2740    4.8320   -1.7740 c3        1 3CZ     -0.029000
     27 C21         3.5830    5.1090   -2.5070 c3        1 3CZ     -0.206000
     28 C20         1.1250    5.6160   -2.4630 c3        1 3CZ     -0.206000
     29 C19         2.4050    5.3030   -0.3010 c3        1 3CZ     -0.206000
     30 H12        -4.6380   -4.4920    3.9160 ha        1 3CZ      0.168000
     31 H14        -3.4930   -4.5580    1.8860 ha        1 3CZ      0.146000
     32 H13        -2.6130   -1.1270    4.9460 ha        1 3CZ      0.168000
     33 H15        -1.4690   -1.2010    2.9040 ha        1 3CZ      0.145000
     34 H4          0.0110   -2.2130    1.7360 h1        1 3CZ      0.089500
     35 H4A         0.0260   -3.8250    1.6660 h1        1 3CZ      0.089500
     36 H1          1.5980   -2.7820    0.1500 h1        1 3CZ      0.105000
     37 H22         1.3350   -4.6780   -1.0060 hc        1 3CZ      0.090333
     38 H22A        0.0590   -4.0800   -1.7990 hc        1 3CZ      0.090333
     39 H22B       -0.1220   -4.8620   -0.4000 hc        1 3CZ      0.090333
     40 H7         -1.8980   -1.0710    0.5430 h1        1 3CZ      0.089000
     41 H7A        -2.9440   -1.9920   -0.1700 h1        1 3CZ      0.089000
     42 H2         -1.4240   -0.9680   -1.6990 h1        1 3CZ      0.107500
     43 H2A        -1.4060   -2.5800   -1.7600 h1        1 3CZ      0.107500
     44 H10         2.8030    0.4610   -0.3150 ha        1 3CZ      0.150000
     45 H17         3.2080    2.8120   -0.2320 ha        1 3CZ      0.143000
     46 H11         0.2460    1.0730   -3.4900 ha        1 3CZ      0.150000
     47 H16         0.6360    3.4180   -3.4230 ha        1 3CZ      0.146000
     48 H21         3.6290    4.5640   -3.3070 hc        1 3CZ      0.080333
     49 H21A        3.6230    6.0930   -2.7630 hc        1 3CZ      0.080333
     50 H21B        4.3250    4.8970   -1.9300 hc        1 3CZ      0.080333
     51 H20         1.3110    6.5640   -2.4160 hc        1 3CZ      0.080333
     52 H20A        0.2630    5.4230   -1.9990 hc        1 3CZ      0.080333
     53 H20B        1.0610    5.3520   -3.3730 hc        1 3CZ      0.080333
     54 H19         3.2520    4.9190    0.1040 hc        1 3CZ      0.080333
     55 H19A        2.4470    6.2840   -0.2760 hc        1 3CZ      0.080333
     56 H19B        1.6290    4.9950    0.2120 hc        1 3CZ      0.080333
@<TRIPOS>BOND
     1    1    2 2   
     2    2    3 2   
     3    2    4 1   
     4    4    5 1   
     5    4    7 1   
     6    5    6 1   
     7    5   30 1   
     8    6   31 1   
     9    7   32 1   
    10    8    9 1   
    11    8   33 1   
    12    9   10 1   
    13   10   11 1   
    14   10   14 1   
    15   11   12 1   
    16   11   34 1   
    17   11   35 1   
    18   12   13 1   
    19   12   16 1   
    20   12   36 1   
    21   13   37 1   
    22   13   38 1   
    23   13   39 1   
    24   14   15 1   
    25   14   40 1   
    26   14   41 1   
    27   15   16 1   
    28   15   42 1   
    29   15   43 1   
    30   16   17 1   
    31   17   18 1   
    32   17   19 1   
    33   20   21 1   
    34   20   23 1   
    35   21   22 1   
    36   21   44 1   
    37   22   45 1   
    38   23   46 1   
    39   24   25 1   
    40   24   47 1   
    41   25   26 1   
    42   26   27 1   
    43   26   28 1   
    44   26   29 1   
    45   27   48 1   
    46   27   49 1   
    47   27   50 1   
    48   28   51 1   
    49   28   52 1   
    50   28   53 1   
    51   29   54 1   
    52   29   55 1   
    53   29   56 1   
@<TRIPOS>SUBSTRUCTURE
     1 3CZ         1 TEMP              0 ****  ****    0 ROOT
