@<TRIPOS>MOLECULE
3CZ
   56    58     1     0     0
SMALL
bcc


@<TRIPOS>ATOM
      1 O3          8.3470   -1.7560    0.7510 o         1 3CZ     -0.217000
      2 N2          7.8600   -1.0610   -0.1010 no        1 3CZ      0.320200
      3 O4          8.5190   -0.5960   -0.9940 o         1 3CZ     -0.217000
      4 C5          6.4100   -0.7710   -0.0520 ca        1 3CZ     -0.224200
      5 C12         5.6200   -1.3130    0.9760 ca        1 3CZ     -0.032000
      6 C14         4.2620   -1.0430    1.0210 ca        1 3CZ     -0.200500
      7 C13         5.8230    0.0460   -1.0310 ca        1 3CZ     -0.032000
      8 C15         4.4640    0.3180   -0.9810 ca        1 3CZ     -0.200500
      9 C6          3.6410   -0.2260    0.0390 ca        1 3CZ      0.205600
     10 N3          2.2490   -0.0430    0.0460 nh        1 3CZ     -0.644000
     11 C4          1.6640    0.6790   -1.0680 c3        1 3CZ      0.182800
     12 C1          0.1120    0.5870   -1.1200 c3        1 3CZ      0.234500
     13 C22        -0.2940   -0.7600   -1.7180 c3        1 3CZ     -0.112100
     14 C7          1.6180    0.2230    1.3270 c3        1 3CZ      0.184800
     15 C2          0.0760    0.1350    1.2630 c3        1 3CZ      0.219800
     16 N1         -0.4940    0.8650    0.1640 n3        1 3CZ     -0.810500
     17 S1         -1.7270    1.9210    0.3540 sy        1 3CZ      1.512200
     18 O1         -1.6850    2.4500    1.6630 o         1 3CZ     -0.651300
     19 O2         -1.7090    2.8490   -0.7110 o         1 3CZ     -0.651300
     20 C3         -3.0990    0.9590    0.2090 ca        1 3CZ     -0.392500
     21 C10        -3.7630    0.4770    1.3450 ca        1 3CZ     -0.014000
     22 C17        -4.9150   -0.2900    1.2300 ca        1 3CZ     -0.158000
     23 C11        -3.6370    0.6520   -1.0450 ca        1 3CZ     -0.014000
     24 C16        -4.7920   -0.1150   -1.1690 ca        1 3CZ     -0.158000
     25 C9         -5.4480   -0.6010   -0.0310 ca        1 3CZ      0.006700
     26 C8         -6.7000   -1.4340   -0.1160 c3        1 3CZ     -0.021700
     27 C21        -7.8330   -0.7150    0.6130 c3        1 3CZ     -0.087767
     28 C20        -7.1380   -1.6800   -1.5540 c3        1 3CZ     -0.087767
     29 C19        -6.4510   -2.7870    0.5460 c3        1 3CZ     -0.087767
     30 H12         6.0810   -1.9560    1.7460 ha        1 3CZ      0.169000
     31 H14         3.6710   -1.4980    1.8300 ha        1 3CZ      0.147000
     32 H13         6.4440    0.4790   -1.8350 ha        1 3CZ      0.169000
     33 H15         4.0440    0.9780   -1.7550 ha        1 3CZ      0.147000
     34 H4          1.9520    1.7710   -1.0360 h1        1 3CZ      0.053200
     35 H4A         2.0560    0.2340   -2.0260 h1        1 3CZ      0.053200
     36 H1         -0.2220    1.4030   -1.8370 h1        1 3CZ      0.081700
     37 H22         0.0740   -1.6060   -1.0910 hc        1 3CZ      0.047033
     38 H22A       -1.4060   -0.8340   -1.8020 hc        1 3CZ      0.047033
     39 H22B        0.1460   -0.8540   -2.7400 hc        1 3CZ      0.047033
     40 H7          1.9590   -0.5390    2.0800 h1        1 3CZ      0.053700
     41 H7A         1.9100    1.2460    1.7060 h1        1 3CZ      0.053700
     42 H2         -0.2160   -0.9530    1.1860 h1        1 3CZ      0.062700
     43 H2A        -0.3240    0.5480    2.2340 h1        1 3CZ      0.062700
     44 H10        -3.3680    0.7280    2.3460 ha        1 3CZ      0.150500
     45 H17        -5.4170   -0.6520    2.1420 ha        1 3CZ      0.144000
     46 H11        -3.1430    1.0420   -1.9530 ha        1 3CZ      0.150500
     47 H16        -5.1800   -0.3270   -2.1770 ha        1 3CZ      0.144000
     48 H21        -8.0230    0.2810    0.1470 hc        1 3CZ      0.040811
     49 H21A       -8.7670   -1.3230    0.5510 hc        1 3CZ      0.040811
     50 H21B       -7.5770   -0.5650    1.6890 hc        1 3CZ      0.040811
     51 H20        -6.3450   -2.2240   -2.1210 hc        1 3CZ      0.040811
     52 H20A       -8.0650   -2.3040   -1.5610 hc        1 3CZ      0.040811
     53 H20B       -7.3620   -0.7160   -2.0700 hc        1 3CZ      0.040811
     54 H19        -6.1790   -2.6570    1.6210 hc        1 3CZ      0.040811
     55 H19A       -7.3740   -3.4120    0.4870 hc        1 3CZ      0.040811
     56 H19B       -5.6210   -3.3250    0.0290 hc        1 3CZ      0.040811
@<TRIPOS>BOND
     1    1    2 1   
     2    2    3 1   
     3    2    4 1   
     4    4    5 ar  
     5    4    7 ar  
     6    5    6 ar  
     7    5   30 1   
     8    6    9 ar  
     9    6   31 1   
    10    7    8 ar  
    11    7   32 1   
    12    8    9 ar  
    13    8   33 1   
    14    9   10 1   
    15   10   11 1   
    16   10   14 1   
    17   11   12 1   
    18   11   34 1   
    19   11   35 1   
    20   12   13 1   
    21   12   16 1   
    22   12   36 1   
    23   13   37 1   
    24   13   38 1   
    25   13   39 1   
    26   14   15 1   
    27   14   40 1   
    28   14   41 1   
    29   15   16 1   
    30   15   42 1   
    31   15   43 1   
    32   16   17 1   
    33   17   18 2   
    34   17   19 2   
    35   17   20 1   
    36   20   21 ar  
    37   20   23 ar  
    38   21   22 ar  
    39   21   44 1   
    40   22   25 ar  
    41   22   45 1   
    42   23   24 ar  
    43   23   46 1   
    44   24   25 ar  
    45   24   47 1   
    46   25   26 1   
    47   26   27 1   
    48   26   28 1   
    49   26   29 1   
    50   27   48 1   
    51   27   49 1   
    52   27   50 1   
    53   28   51 1   
    54   28   52 1   
    55   28   53 1   
    56   29   54 1   
    57   29   55 1   
    58   29   56 1   
@<TRIPOS>SUBSTRUCTURE
     1 3CZ         1 TEMP              0 ****  ****    0 ROOT
