@<TRIPOS>MOLECULE
3D0
   94    95     1     0     0
SMALL
bcc


@<TRIPOS>ATOM
      1 CBM        -0.2080    1.3760    4.5760 ca        1 3D0     -0.130500
      2 CBN         0.5970    1.2160    5.7050 ca        1 3D0     -0.102500
      3 CBO         0.0790    0.6230    6.8580 ca        1 3D0     -0.050000
      4 CBP        -1.2450    0.1660    6.8740 ca        1 3D0     -0.102500
      5 CBQ        -2.0530    0.3230    5.7520 ca        1 3D0     -0.130500
      6 CBL        -1.5400    0.9360    4.5920 ca        1 3D0     -0.246300
      7 CBK        -2.4630    1.3220    3.4980 c3        1 3D0     -0.044100
      8 CBG        -2.5660    0.2480    2.3790 c3        1 3D0      0.056500
      9 CBH        -3.7790    0.5470    1.4890 c         1 3D0      0.522100
     10 OBJ        -4.6310   -0.2800    1.1940 o         1 3D0     -0.390100
     11 NBI        -3.9360    1.9280    0.9580 nz        1 3D0     -0.733400
     12 NBE        -2.6480   -1.1420    2.9900 ny        1 3D0     -0.670800
     13 CBD        -2.1300   -2.2620    2.1440 c         1 3D0      0.529100
     14 OBF        -1.8040   -2.0340    0.9880 o         1 3D0     -0.392100
     15 CAZ        -2.0660   -3.6600    2.7930 c3        1 3D0      0.037500
     16 CBA        -1.1130   -3.6060    4.0430 c3        1 3D0      0.143100
     17 CBB         0.2270   -2.9730    3.7370 c3        1 3D0     -0.180100
     18 OBC        -0.9510   -4.9610    4.4320 oh        1 3D0     -0.653800
     19 NAY        -1.6180   -4.7320    1.8120 ny        1 3D0     -0.761000
     20 CAX        -2.5570   -5.9020    1.6490 c3        1 3D0      0.090800
     21 CAG        -1.8900   -7.2980    1.8780 c3        1 3D0      0.104500
     22 NAF        -2.3790   -8.3590    0.8990 ny        1 3D0     -0.671800
     23 C          -1.3660   -9.4690    0.6660 c         1 3D0      0.528100
     24 O          -0.1950   -9.1320    0.7100 o         1 3D0     -0.366100
     25 CA         -1.8660  -10.9150    0.4390 c3        1 3D0      0.093500
     26 N          -0.6940  -11.8580    0.4210 ny        1 3D0     -0.728800
     27 CAB         0.3760  -11.6600   -0.7210 c         1 3D0      0.606100
     28 OAQ         0.1610  -10.6810   -1.4060 o         1 3D0     -0.418100
     29 CAA         1.4470  -12.6800   -0.7430 c3        1 3D0     -0.201100
     30 CB         -2.7540  -11.0430   -0.8190 c3        1 3D0     -0.107400
     31 CG         -3.3010  -12.4530   -1.0140 c3        1 3D0     -0.089400
     32 CD         -4.2680  -12.5290   -2.1910 c3        1 3D0     -0.105400
     33 CE         -4.7140  -13.9800   -2.3940 c3        1 3D0      0.100800
     34 NZ         -5.6260  -14.1880   -3.5530 nz        1 3D0     -0.837600
     35 CAH        -2.1850   -7.7670    3.3350 c3        1 3D0      0.106400
     36 OAI        -3.5560   -8.0990    3.3920 os        1 3D0     -0.492600
     37 CAJ        -4.1730   -8.0110    4.7020 c3        1 3D0      0.190700
     38 CAK        -4.9320   -6.7400    4.8430 ca        1 3D0     -0.236600
     39 CAL        -6.2970   -6.7440    5.1780 ca        1 3D0     -0.042000
     40 CAM        -6.9570   -5.5230    5.3240 ca        1 3D0     -0.174300
     41 CAN        -6.2420   -4.3290    5.0850 ca        1 3D0      0.432200
     42 NAO        -4.9330   -4.3060    4.7640 nb        1 3D0     -0.757000
     43 CAP        -4.3000   -5.4950    4.6880 ca        1 3D0      0.322200
     44 H1          0.2000    1.8990    3.6950 ha        1 3D0      0.143500
     45 H2          1.6340    1.6040    5.7010 ha        1 3D0      0.192000
     46 H3          0.7000    0.5500    7.7720 ha        1 3D0      0.202000
     47 H4         -1.6630   -0.2670    7.8010 ha        1 3D0      0.192000
     48 H5         -3.1220    0.0640    5.8190 ha        1 3D0      0.143500
     49 H6         -2.0770    2.2630    3.0100 hc        1 3D0      0.110700
     50 H7         -3.4850    1.5260    3.9200 hc        1 3D0      0.110700
     51 H8         -1.6260    0.2790    1.7400 hx        1 3D0      0.169700
     52 H9         -4.0030    2.6150    1.7300 hn        1 3D0      0.514800
     53 H10        -3.1400    2.1900    0.3520 hn        1 3D0      0.514800
     54 H11        -2.0830   -1.0830    3.8860 hn        1 3D0      0.512800
     55 H12        -3.1120   -3.9260    3.1540 hx        1 3D0      0.192700
     56 H13        -1.6690   -3.0480    4.8540 h1        1 3D0      0.109700
     57 H14         0.8130   -2.8570    4.6910 hc        1 3D0      0.092700
     58 H15         0.1130   -1.9590    3.2850 hc        1 3D0      0.092700
     59 H16         0.8440   -3.6100    3.0570 hc        1 3D0      0.092700
     60 H17        -0.4830   -4.9740    5.2870 ho        1 3D0      0.503000
     61 H18        -1.4570   -4.3010    0.8860 hn        1 3D0      0.487800
     62 H20        -3.0040   -5.8140    0.6150 hx        1 3D0      0.147700
     63 H21        -3.4060   -5.8150    2.4050 hx        1 3D0      0.147700
     64 H22        -0.7640   -7.2310    1.7510 hx        1 3D0      0.139700
     65 H23        -2.5860   -7.9300   -0.0130 hn        1 3D0      0.488300
     66 H24        -2.4940  -11.1940    1.3490 hx        1 3D0      0.148700
     67 H25        -1.0670  -12.8150    0.3350 hn        1 3D0      0.483800
     68 H26         2.4320  -12.1720   -0.5150 hc        1 3D0      0.159033
     69 H27         1.5290  -13.0900   -1.7950 hc        1 3D0      0.159033
     70 H28         1.3110  -13.5340   -0.0330 hc        1 3D0      0.159033
     71 H29        -2.1770  -10.7330   -1.7340 hc        1 3D0      0.097200
     72 H30        -3.6190  -10.3370   -0.6960 hc        1 3D0      0.097200
     73 H31        -2.4600  -13.1710   -1.2160 hc        1 3D0      0.071200
     74 H32        -3.8270  -12.7900   -0.0810 hc        1 3D0      0.071200
     75 H33        -3.7630  -12.1460   -3.1180 hc        1 3D0      0.084200
     76 H34        -5.1600  -11.8770   -1.9900 hc        1 3D0      0.084200
     77 H35        -3.8100  -14.6400   -2.5600 hx        1 3D0      0.124700
     78 H36        -5.2550  -14.3460   -1.4700 hx        1 3D0      0.124700
     79 H37        -5.8740  -15.1910   -3.6180 hn        1 3D0      0.484467
     80 H38        -5.1760  -13.9110   -4.4340 hn        1 3D0      0.484467
     81 H40        -1.5710   -8.6790    3.5720 h1        1 3D0      0.099200
     82 H41        -1.9020   -6.9430    4.0440 h1        1 3D0      0.099200
     83 H42        -4.8620   -8.9030    4.7130 h1        1 3D0      0.106700
     84 H43        -3.3990   -8.1210    5.5070 h1        1 3D0      0.106700
     85 H44        -6.8380   -7.6920    5.3470 ha        1 3D0      0.187000
     86 H45        -8.0200   -5.4820    5.6250 ha        1 3D0      0.211000
     87 H46        -6.7480   -3.3470    5.1780 h4        1 3D0      0.058100
     88 H47        -3.2020   -5.4470    4.5700 h4        1 3D0     -0.028900
     89 HBI3       -4.8090    1.9910    0.3920 hn        1 3D0      0.514800
     90 HBE2       -3.6290   -1.3470    3.2480 hn        1 3D0      0.512800
     91 HAY2       -0.7040   -5.0780    2.1650 hn        1 3D0      0.487800
     92 HAF2       -3.2540   -8.7580    1.2840 hn        1 3D0      0.488300
     93 H2A        -0.1900  -11.7990    1.3170 hn        1 3D0      0.483800
     94 HZ3        -6.4940  -13.6490   -3.4430 hn        1 3D0      0.484467
@<TRIPOS>BOND
     1    1    2 ar  
     2    1    6 ar  
     3    1   44 1   
     4    2    3 ar  
     5    2   45 1   
     6    3    4 ar  
     7    3   46 1   
     8    4    5 ar  
     9    4   47 1   
    10    5    6 ar  
    11    5   48 1   
    12    6    7 1   
    13    7    8 1   
    14    7   49 1   
    15    7   50 1   
    16    8    9 1   
    17    8   12 1   
    18    8   51 1   
    19    9   10 2   
    20    9   11 1   
    21   11   52 1   
    22   11   53 1   
    23   11   89 1   
    24   12   13 1   
    25   12   54 1   
    26   12   90 1   
    27   13   14 2   
    28   13   15 1   
    29   15   16 1   
    30   15   19 1   
    31   15   55 1   
    32   16   17 1   
    33   16   18 1   
    34   16   56 1   
    35   17   57 1   
    36   17   58 1   
    37   17   59 1   
    38   18   60 1   
    39   19   20 1   
    40   19   61 1   
    41   19   91 1   
    42   20   21 1   
    43   20   62 1   
    44   20   63 1   
    45   21   22 1   
    46   21   35 1   
    47   21   64 1   
    48   22   23 1   
    49   22   65 1   
    50   22   92 1   
    51   23   24 2   
    52   23   25 1   
    53   25   26 1   
    54   25   30 1   
    55   25   66 1   
    56   26   27 1   
    57   26   67 1   
    58   26   93 1   
    59   27   28 2   
    60   27   29 1   
    61   29   68 1   
    62   29   69 1   
    63   29   70 1   
    64   30   31 1   
    65   30   71 1   
    66   30   72 1   
    67   31   32 1   
    68   31   73 1   
    69   31   74 1   
    70   32   33 1   
    71   32   75 1   
    72   32   76 1   
    73   33   34 1   
    74   33   77 1   
    75   33   78 1   
    76   34   79 1   
    77   34   80 1   
    78   34   94 1   
    79   35   36 1   
    80   35   81 1   
    81   35   82 1   
    82   36   37 1   
    83   37   38 1   
    84   37   83 1   
    85   37   84 1   
    86   38   39 ar  
    87   38   43 ar  
    88   39   40 ar  
    89   39   85 1   
    90   40   41 ar  
    91   40   86 1   
    92   41   42 ar  
    93   41   87 1   
    94   42   43 ar  
    95   43   88 1   
@<TRIPOS>SUBSTRUCTURE
     1 3D0         1 TEMP              0 ****  ****    0 ROOT
