@<TRIPOS>MOLECULE
3D0
   94    95     1     0     0
SMALL
bcc


@<TRIPOS>ATOM
      1 CBM        -0.1610    1.3850    4.5030 ca        1 3D0     -0.130500
      2 CBN         0.6520    1.2300    5.6270 ca        1 3D0     -0.102500
      3 CBO         0.1390    0.6490    6.7890 ca        1 3D0     -0.050000
      4 CBP        -1.1870    0.1980    6.8170 ca        1 3D0     -0.102500
      5 CBQ        -2.0020    0.3490    5.6990 ca        1 3D0     -0.130500
      6 CBL        -1.4940    0.9510    4.5310 ca        1 3D0     -0.246300
      7 CBK        -2.4230    1.3320    3.4400 c3        1 3D0     -0.044100
      8 CBG        -2.5380    0.2500    2.3310 c3        1 3D0      0.056500
      9 CBH        -3.7560    0.5470    1.4470 c         1 3D0      0.522100
     10 OBJ        -4.6140   -0.2780    1.1650 o         1 3D0     -0.390100
     11 NBI        -3.9110    1.9250    0.9060 n4        1 3D0     -0.733400
     12 NBE        -2.6220   -1.1350    2.9540 n4        1 3D0     -0.670800
     13 CBD        -2.1150   -2.2640    2.1140 c         1 3D0      0.529100
     14 OBF        -1.7950   -2.0470    0.9530 o         1 3D0     -0.392100
     15 CAZ        -2.0520   -3.6570    2.7730 c3        1 3D0      0.037500
     16 CBA        -1.0910   -3.5970    4.0170 c3        1 3D0      0.143100
     17 CBB         0.2490   -2.9720    3.6970 c3        1 3D0     -0.180100
     18 OBC        -0.9330   -4.9500    4.4150 oh        1 3D0     -0.653800
     19 NAY        -1.6150   -4.7390    1.7980 n4        1 3D0     -0.761000
     20 CAX        -2.5610   -5.9050    1.6500 c3        1 3D0      0.090800
     21 CAG        -1.8980   -7.3030    1.8870 c3        1 3D0      0.104500
     22 NAF        -2.3980   -8.3690    0.9190 n4        1 3D0     -0.671800
     23 C          -1.3930   -9.4880    0.6920 c         1 3D0      0.528100
     24 O          -0.2200   -9.1580    0.7280 o         1 3D0     -0.366100
     25 CA         -1.9030  -10.9320    0.4780 c3        1 3D0      0.093500
     26 N          -0.7370  -11.8830    0.4700 n4        1 3D0     -0.728800
     27 CAB         0.3340  -11.7040   -0.6750 c         1 3D0      0.606100
     28 OAQ         0.1260  -10.7310   -1.3690 o         1 3D0     -0.417100
     29 CAA         1.3980  -12.7320   -0.6860 c3        1 3D0     -0.201100
     30 CB         -2.7920  -11.0650   -0.7790 c3        1 3D0     -0.107400
     31 CG         -3.3480  -12.4730   -0.9610 c3        1 3D0     -0.089400
     32 CD         -4.3150  -12.5520   -2.1380 c3        1 3D0     -0.105400
     33 CE         -4.7720  -14.0020   -2.3280 c3        1 3D0      0.100800
     34 NZ         -5.6840  -14.2140   -3.4860 n4        1 3D0     -0.837600
     35 CAH        -2.1860   -7.7590    3.3490 c3        1 3D0      0.106400
     36 OAI        -3.5590   -8.0840    3.4170 os        1 3D0     -0.492600
     37 CAJ        -4.1670   -7.9820    4.7300 c3        1 3D0      0.190700
     38 CAK        -4.9200   -6.7070    4.8650 ca        1 3D0     -0.236600
     39 CAL        -6.2830   -6.7020    5.2080 ca        1 3D0     -0.042000
     40 CAM        -6.9370   -5.4780    5.3480 ca        1 3D0     -0.174300
     41 CAN        -6.2180   -4.2890    5.0960 ca        1 3D0      0.432200
     42 NAO        -4.9110   -4.2740    4.7660 nb        1 3D0     -0.757000
     43 CAP        -4.2830   -5.4670    4.6970 ca        1 3D0      0.322200
     44 H1          0.2430    1.8990    3.6150 ha        1 3D0      0.143500
     45 H2          1.6900    1.6140    5.6130 ha        1 3D0      0.192000
     46 H3          0.7660    0.5810    7.6990 ha        1 3D0      0.202000
     47 H4         -1.6000   -0.2260    7.7500 ha        1 3D0      0.192000
     48 H5         -3.0710    0.0960    5.7760 ha        1 3D0      0.143500
     49 H6         -2.0370    2.2680    2.9420 hc        1 3D0      0.110700
     50 H7         -3.4420    1.5450    3.8680 hc        1 3D0      0.110700
     51 H8         -1.6030    0.2720    1.6850 hx        1 3D0      0.169700
     52 H9         -4.7870    1.9870    0.3460 hn        1 3D0      0.514800
     53 H10        -3.1180    2.1780    0.2930 hn        1 3D0      0.514800
     54 H11        -3.6030   -1.3340    3.2190 hn        1 3D0      0.512800
     55 H12        -3.0980   -3.9150    3.1430 hx        1 3D0      0.192700
     56 H13        -1.6400   -3.0300    4.8260 h1        1 3D0      0.109700
     57 H14         0.8420   -2.8510    4.6460 hc        1 3D0      0.092700
     58 H15         0.8590   -3.6170    3.0180 hc        1 3D0      0.092700
     59 H16         0.1370   -1.9610    3.2380 hc        1 3D0      0.092700
     60 H17        -0.4600   -4.9580    5.2680 ho        1 3D0      0.503000
     61 H18        -1.4580   -4.3150    0.8670 hn        1 3D0      0.487800
     62 H20        -3.0140   -5.8240    0.6190 hx        1 3D0      0.147700
     63 H21        -3.4050   -5.8090    2.4100 hx        1 3D0      0.147700
     64 H22        -0.7730   -7.2420    1.7520 hx        1 3D0      0.139700
     65 H23        -3.2740   -8.7600    1.3120 hn        1 3D0      0.488300
     66 H24        -2.5330  -11.1990    1.3910 hx        1 3D0      0.148700
     67 H25        -0.2330  -11.8200    1.3640 hn        1 3D0      0.483800
     68 H26         2.3860  -12.2270   -0.4630 hc        1 3D0      0.159033
     69 H27         1.2560  -13.5770    0.0330 hc        1 3D0      0.159033
     70 H28         1.4770  -13.1520   -1.7340 hc        1 3D0      0.159033
     71 H29        -2.2120  -10.7670   -1.6970 hc        1 3D0      0.097200
     72 H30        -3.6510  -10.3510   -0.6620 hc        1 3D0      0.097200
     73 H31        -2.5130  -13.1990   -1.1550 hc        1 3D0      0.071200
     74 H32        -3.8780  -12.7970   -0.0250 hc        1 3D0      0.071200
     75 H33        -5.2020  -11.8920   -1.9450 hc        1 3D0      0.084200
     76 H34        -3.8060  -12.1820   -3.0690 hc        1 3D0      0.084200
     77 H35        -3.8730  -14.6700   -2.4870 hx        1 3D0      0.124700
     78 H36        -5.3170  -14.3550   -1.4020 hx        1 3D0      0.124700
     79 H37        -5.2300  -13.9480   -4.3700 hn        1 3D0      0.484467
     80 H38        -5.9390  -15.2150   -3.5420 hn        1 3D0      0.484467
     81 H40        -1.8960   -6.9300    4.0500 h1        1 3D0      0.099200
     82 H41        -1.5750   -8.6710    3.5900 h1        1 3D0      0.099200
     83 H42        -3.3890   -8.0890    5.5320 h1        1 3D0      0.106700
     84 H43        -4.8600   -8.8720    4.7520 h1        1 3D0      0.106700
     85 H44        -6.8270   -7.6470    5.3880 ha        1 3D0      0.187000
     86 H45        -7.9980   -5.4300    5.6550 ha        1 3D0      0.211000
     87 H46        -6.7190   -3.3040    5.1840 h4        1 3D0      0.058100
     88 H47        -3.1850   -5.4250    4.5720 h4        1 3D0     -0.028900
     89 HBI3       -3.9690    2.6180    1.6730 hn        1 3D0      0.514800
     90 HBE2       -2.0510   -1.0710    3.8450 hn        1 3D0      0.512800
     91 HAY2       -0.7010   -5.0850    2.1480 hn        1 3D0      0.487800
     92 HAF2       -2.6070   -7.9470    0.0040 hn        1 3D0      0.488300
     93 H2A        -1.1170  -12.8390    0.3920 hn        1 3D0      0.483800
     94 HZ3        -6.5480  -13.6670   -3.3840 hn        1 3D0      0.484467
@<TRIPOS>BOND
     1    1    2 ar  
     2    1    6 ar  
     3    1   44 1   
     4    2    3 ar  
     5    2   45 1   
     6    3    4 ar  
     7    3   46 1   
     8    4    5 ar  
     9    4   47 1   
    10    5    6 ar  
    11    5   48 1   
    12    6    7 1   
    13    7    8 1   
    14    7   49 1   
    15    7   50 1   
    16    8    9 1   
    17    8   12 1   
    18    8   51 1   
    19    9   10 2   
    20    9   11 1   
    21   11   52 1   
    22   11   53 1   
    23   11   89 1   
    24   12   13 1   
    25   12   54 1   
    26   12   90 1   
    27   13   14 2   
    28   13   15 1   
    29   15   16 1   
    30   15   19 1   
    31   15   55 1   
    32   16   17 1   
    33   16   18 1   
    34   16   56 1   
    35   17   57 1   
    36   17   58 1   
    37   17   59 1   
    38   18   60 1   
    39   19   20 1   
    40   19   61 1   
    41   19   91 1   
    42   20   21 1   
    43   20   62 1   
    44   20   63 1   
    45   21   22 1   
    46   21   35 1   
    47   21   64 1   
    48   22   23 1   
    49   22   65 1   
    50   22   92 1   
    51   23   24 2   
    52   23   25 1   
    53   25   26 1   
    54   25   30 1   
    55   25   66 1   
    56   26   27 1   
    57   26   67 1   
    58   26   93 1   
    59   27   28 2   
    60   27   29 1   
    61   29   68 1   
    62   29   69 1   
    63   29   70 1   
    64   30   31 1   
    65   30   71 1   
    66   30   72 1   
    67   31   32 1   
    68   31   73 1   
    69   31   74 1   
    70   32   33 1   
    71   32   75 1   
    72   32   76 1   
    73   33   34 1   
    74   33   77 1   
    75   33   78 1   
    76   34   79 1   
    77   34   80 1   
    78   34   94 1   
    79   35   36 1   
    80   35   81 1   
    81   35   82 1   
    82   36   37 1   
    83   37   38 1   
    84   37   83 1   
    85   37   84 1   
    86   38   39 ar  
    87   38   43 ar  
    88   39   40 ar  
    89   39   85 1   
    90   40   41 ar  
    91   40   86 1   
    92   41   42 ar  
    93   41   87 1   
    94   42   43 ar  
    95   43   88 1   
@<TRIPOS>SUBSTRUCTURE
     1 3D0         1 TEMP              0 ****  ****    0 ROOT
