@<TRIPOS>MOLECULE
3D1
   31    33     1     0     0
SMALL
bcc


@<TRIPOS>ATOM
      1 O5'         0.8580   -1.5150   -0.0290 oh        1 3D1     -0.588800
      2 C5'         2.1750   -1.0770    0.2520 c3        1 3D1      0.105400
      3 C4'         2.0830   -0.0360    1.3680 c3        1 3D1      0.133100
      4 O4'         1.3780   -0.5580    2.5000 os        1 3D1     -0.389600
      5 C1'         2.2960   -0.9580    3.5250 c3        1 3D1      0.262800
      6 N9          2.4570   -2.3980    3.5000 na        1 3D1     -0.297000
      7 C4          3.2530   -3.1610    4.3660 ca        1 3D1      0.451800
      8 N3          4.1160   -2.7870    5.3600 nb        1 3D1     -0.743000
      9 C2          4.6920   -3.8470    5.9730 ca        1 3D1      0.683900
     10 N1          4.5440   -5.1790    5.7470 nb        1 3D1     -0.795000
     11 C6          3.6880   -5.5630    4.7410 ca        1 3D1      0.755200
     12 N6          3.5290   -6.8870    4.4160 nv        1 3D1     -0.953500
     13 C5          2.9890   -4.5500    4.0040 ca        1 3D1     -0.228200
     14 N7          2.0520   -4.6040    2.9610 nc        1 3D1     -0.555100
     15 C8          1.7540   -3.3250    2.6900 cd        1 3D1      0.418700
     16 C2'         3.6000   -0.1610    3.2870 c3        1 3D1     -0.150400
     17 C3'         3.4950    0.3640    1.8500 c3        1 3D1      0.115100
     18 O3'         3.5670    1.7780    1.7840 oh        1 3D1     -0.588800
     19 H5'         0.9160   -2.0720   -0.8150 ho        1 3D1      0.405000
     20 H5'1        2.8010   -1.9520    0.5760 h1        1 3D1      0.035200
     21 H5'2        2.6370   -0.6020   -0.6550 h1        1 3D1      0.035200
     22 H4'         1.4800    0.8520    1.0350 h1        1 3D1      0.113700
     23 H1'         1.8010   -0.6740    4.5010 h2        1 3D1      0.101700
     24 H2          5.3970   -3.5940    6.7950 h5        1 3D1      0.050100
     25 HN61        3.9200   -7.5900    4.9930 hn        1 3D1      0.444300
     26 HN62        2.8050   -7.1290    3.7850 hn        1 3D1      0.444300
     27 H8          1.0420   -2.9650    1.9290 h5        1 3D1      0.100800
     28 H2'1        3.6370    0.6880    4.0140 hc        1 3D1      0.084700
     29 H2'2        4.5160   -0.7830    3.4300 hc        1 3D1      0.084700
     30 H3'         4.2940   -0.0810    1.1970 h1        1 3D1      0.051700
     31 H1          4.4240    2.0320    2.1490 ho        1 3D1      0.409000
@<TRIPOS>BOND
     1    1    2 1   
     2    1   19 1   
     3    2    3 1   
     4    2   20 1   
     5    2   21 1   
     6    3    4 1   
     7    3   17 1   
     8    3   22 1   
     9    4    5 1   
    10    5    6 1   
    11    5   16 1   
    12    5   23 1   
    13    6    7 1   
    14    6   15 1   
    15    7    8 ar  
    16    7   13 ar  
    17    8    9 ar  
    18    9   10 ar  
    19    9   24 1   
    20   10   11 ar  
    21   11   12 1   
    22   11   13 ar  
    23   12   25 1   
    24   12   26 1   
    25   13   14 1   
    26   14   15 2   
    27   15   27 1   
    28   16   17 1   
    29   16   28 1   
    30   16   29 1   
    31   17   18 1   
    32   17   30 1   
    33   18   31 1   
@<TRIPOS>SUBSTRUCTURE
     1 3D1         1 TEMP              0 ****  ****    0 ROOT
