@<TRIPOS>MOLECULE
3D1
   32    34     1     0     0
SMALL
bcc


@<TRIPOS>ATOM
      1 O5'         0.9670   -1.8590    0.1370 oh        1 3D1     -0.604800
      2 C5'         2.1000   -1.0180    0.0690 c3        1 3D1      0.110400
      3 C4'         2.1480   -0.0480    1.2500 c3        1 3D1      0.083100
      4 O4'         1.5200   -0.6510    2.3960 os        1 3D1     -0.397600
      5 C1'         2.4800   -0.9820    3.3940 c3        1 3D1      0.261800
      6 N9          2.6110   -2.4400    3.4650 na        1 3D1     -0.277000
      7 C4          3.3110   -3.1430    4.4560 ca        1 3D1      0.448800
      8 N3          4.0970   -2.7390    5.4820 nb        1 3D1     -0.624000
      9 C2          4.5980   -3.7590    6.2290 ca        1 3D1      0.666900
     10 N1          4.4140   -5.1010    6.0770 nb        1 3D1     -0.679000
     11 C6          3.6250   -5.4930    5.0450 ca        1 3D1      0.508200
     12 N6          3.3750   -6.9300    4.8250 n4        1 3D1     -0.813300
     13 C5          3.0250   -4.5720    4.1700 ca        1 3D1     -0.128200
     14 N7          2.1880   -4.6810    3.0600 nc        1 3D1     -0.600100
     15 C8          1.9580   -3.4070    2.6730 cd        1 3D1      0.522700
     16 C2'         3.7910   -0.2420    3.0550 c3        1 3D1     -0.152400
     17 C3'         3.5880    0.3320    1.6460 c3        1 3D1      0.127100
     18 O3'         3.6490    1.7440    1.6460 oh        1 3D1     -0.578800
     19 H5'         0.1840   -1.2960    0.1740 ho        1 3D1      0.423000
     20 H5'1        2.9720   -1.7260    0.0750 h1        1 3D1      0.064700
     21 H5'2        2.1010   -0.4320   -0.8890 h1        1 3D1      0.064700
     22 H4'         1.5310    0.8720    1.0410 h1        1 3D1      0.118700
     23 H1'         2.0370   -0.6450    4.3800 h2        1 3D1      0.117700
     24 H2          5.2490   -3.4630    7.0860 h5        1 3D1      0.098100
     25 HN61        3.6430   -7.1630    3.8610 hn        1 3D1      0.477467
     26 HN62        2.3700   -7.1070    4.9460 hn        1 3D1      0.477467
     27 H8          1.3240   -3.1000    1.8120 h5        1 3D1      0.144800
     28 H2'1        3.9330    0.5890    3.7940 hc        1 3D1      0.090200
     29 H2'2        4.6880   -0.9040    3.1000 hc        1 3D1      0.090200
     30 H3'         4.3380   -0.0900    0.9230 h1        1 3D1      0.062700
     31 H1          4.5760    1.9930    1.7510 ho        1 3D1      0.420000
     32 H63         3.9110   -7.5080    5.4860 hn        1 3D1      0.477467
@<TRIPOS>BOND
     1    1    2 1   
     2    1   19 1   
     3    2    3 1   
     4    2   20 1   
     5    2   21 1   
     6    3    4 1   
     7    3   17 1   
     8    3   22 1   
     9    4    5 1   
    10    5    6 1   
    11    5   16 1   
    12    5   23 1   
    13    6    7 1   
    14    6   15 1   
    15    7    8 ar  
    16    7   13 ar  
    17    8    9 ar  
    18    9   10 ar  
    19    9   24 1   
    20   10   11 ar  
    21   11   12 1   
    22   11   13 ar  
    23   12   25 1   
    24   12   26 1   
    25   12   32 1   
    26   13   14 1   
    27   14   15 2   
    28   15   27 1   
    29   16   17 1   
    30   16   28 1   
    31   16   29 1   
    32   17   18 1   
    33   17   30 1   
    34   18   31 1   
@<TRIPOS>SUBSTRUCTURE
     1 3D1         1 TEMP              0 ****  ****    0 ROOT
