@<TRIPOS>MOLECULE
3D1
   31    28     1     0     0
SMALL
bcc


@<TRIPOS>ATOM
      1 O5'        -2.3590    3.2560   -0.7950 oh        1 3D1     -0.606800
      2 C5'        -1.6890    2.0850   -0.3860 c3        1 3D1      0.107400
      3 C4'        -1.2080    2.2510    1.0390 c3        1 3D1      0.094100
      4 O4'        -1.1970    0.8290    1.7870 os        1 3D1     -0.411600
      5 C1'        -0.0940    0.2440    1.4350 c3        1 3D1      0.441300
      6 N9         -0.3120   -0.5750    0.2700 n3        1 3D1     -0.479800
      7 C4          0.6810   -1.3400   -0.2570 c1        1 3D1      0.393100
      8 N3          2.0280   -1.1520   -0.3480 n1        1 3D1     -0.493800
      9 C2          2.8110   -2.0970   -0.9430 c1        1 3D1      0.407300
     10 N1          2.2460   -3.2330   -1.4490 n1        1 3D1     -0.594800
     11 C6          0.9190   -3.4200   -1.3610 c1        1 3D1      0.294800
     12 N6          0.6520   -4.6570   -2.0050 n3        1 3D1     -0.819400
     13 C5          0.1220   -2.4610   -0.7560 c1        1 3D1     -0.240000
     14 N7         -1.2190   -2.3930   -0.5410 n1        1 3D1     -0.493800
     15 C8         -1.4820   -1.2280    0.0930 c1        1 3D1      0.393100
     16 C2'         0.8860    1.3970    1.1060 c3        1 3D1     -0.113400
     17 C3'         0.0140    2.6780    1.0480 c3        1 3D1      0.128100
     18 O3'         0.2560    3.5200    2.2500 oh        1 3D1     -0.589800
     19 H5'        -2.4890    3.2310   -1.6740 ho        1 3D1      0.412000
     20 H5'1       -2.3020    1.3230   -0.4360 h1        1 3D1      0.038200
     21 H5'2       -0.9210    1.9260   -0.9730 h1        1 3D1      0.038200
     22 H4'        -1.7860    2.8780    1.5170 h1        1 3D1      0.094700
     23 H1'         0.2530   -0.2970    2.1720 h2        1 3D1      0.101700
     24 H2          3.7750   -1.9620   -1.0080 ha        1 3D1      0.131500
     25 HN61       -0.2110   -4.9100   -2.1680 hn        1 3D1      0.446800
     26 HN62        1.3430   -5.1990   -2.2580 hn        1 3D1      0.446800
     27 H8         -2.3640   -0.9080    0.3600 DU        1 3D1      0.209000
     28 H2'1        1.3140    1.2390    0.2410 hc        1 3D1      0.093700
     29 H2'2        1.5600    1.4780    1.8090 hc        1 3D1      0.093700
     30 H3'         0.2040    3.1830    0.2330 h1        1 3D1      0.063700
     31 H1          0.5680    4.3140    1.9980 ho        1 3D1      0.415000
@<TRIPOS>BOND
     1    1    2 1   
     2    1   19 1   
     3    2    3 1   
     4    2   20 1   
     5    2   21 1   
     6    3    4 1   
     7    3   17 1   
     8    3   22 1   
     9    4    5 1   
    10    5    6 1   
    11    5   16 1   
    12    5   23 1   
    13    6    7 1   
    14    6   15 1   
    15    7    8 3   
    16    9   10 3   
    17    9   24 1   
    18   11   12 1   
    19   11   13 3   
    20   12   25 1   
    21   12   26 1   
    22   14   15 3   
    23   16   17 1   
    24   16   28 1   
    25   16   29 1   
    26   17   18 1   
    27   17   30 1   
    28   18   31 1   
@<TRIPOS>SUBSTRUCTURE
     1 3D1         1 TEMP              0 ****  ****    0 ROOT
