@<TRIPOS>MOLECULE
3D1
   31    33     1     0     0
SMALL
bcc


@<TRIPOS>ATOM
      1 O5'         3.2400    2.2800    0.0990 oh        1 3D1     -0.588800
      2 C5'         3.0720    1.1420   -0.7290 c3        1 3D1      0.105400
      3 C4'         3.1610   -0.0930    0.1670 c3        1 3D1      0.133100
      4 O4'         2.2320   -0.0080    1.2540 os        1 3D1     -0.389600
      5 C1'         1.0720   -0.8060    0.9880 c3        1 3D1      0.262800
      6 N9         -0.0170    0.0480    0.5530 na        1 3D1     -0.297000
      7 C4         -1.3160   -0.3640    0.2260 ca        1 3D1      0.451800
      8 N3         -1.8710   -1.6120    0.1460 nb        1 3D1     -0.743000
      9 C2         -3.1790   -1.5760   -0.2010 ca        1 3D1      0.683900
     10 N1         -3.9870   -0.5170   -0.4730 nb        1 3D1     -0.795000
     11 C6         -3.4330    0.7400   -0.4070 ca        1 3D1      0.755200
     12 N6         -4.1690    1.8550   -0.7230 nh        1 3D1     -0.953500
     13 C5         -2.0520    0.8680   -0.0370 ca        1 3D1     -0.228200
     14 N7         -1.2110    1.9770    0.1410 nc        1 3D1     -0.555100
     15 C8         -0.0240    1.4640    0.4940 cd        1 3D1      0.418700
     16 C2'         1.4980   -1.8790   -0.0400 c3        1 3D1     -0.150400
     17 C3'         2.8150   -1.3680   -0.6350 c3        1 3D1      0.115100
     18 O3'         3.8840   -2.2770   -0.4440 oh        1 3D1     -0.588800
     19 H5'         3.3080    3.0400   -0.4910 ho        1 3D1      0.405000
     20 H5'1        2.0700    1.1930   -1.2360 h1        1 3D1      0.035200
     21 H5'2        3.8820    1.0930   -1.5040 h1        1 3D1      0.035200
     22 H4'         4.1720   -0.1590    0.6540 h1        1 3D1      0.113700
     23 H1'         0.7860   -1.2630    1.9820 h2        1 3D1      0.101700
     24 H2         -3.6780   -2.5670   -0.2720 h5        1 3D1      0.050100
     25 HN61       -5.1460    1.7790   -0.8660 hn        1 3D1      0.444300
     26 HN62       -3.7780    2.7430   -0.5290 hn        1 3D1      0.444300
     27 H8          0.8920    2.0310    0.7280 h5        1 3D1      0.100800
     28 H2'1        1.6600   -2.8450    0.5000 hc        1 3D1      0.084700
     29 H2'2        0.7280   -2.0460   -0.8320 hc        1 3D1      0.084700
     30 H3'         2.7060   -1.1460   -1.7310 h1        1 3D1      0.051700
     31 H1          3.6380   -3.0970   -0.8880 ho        1 3D1      0.409000
@<TRIPOS>BOND
     1    1    2 1   
     2    1   19 1   
     3    2    3 1   
     4    2   20 1   
     5    2   21 1   
     6    3    4 1   
     7    3   17 1   
     8    3   22 1   
     9    4    5 1   
    10    5    6 1   
    11    5   16 1   
    12    5   23 1   
    13    6    7 1   
    14    6   15 1   
    15    7    8 ar  
    16    7   13 ar  
    17    8    9 ar  
    18    9   10 ar  
    19    9   24 1   
    20   10   11 ar  
    21   11   12 1   
    22   11   13 ar  
    23   12   25 1   
    24   12   26 1   
    25   13   14 1   
    26   14   15 2   
    27   15   27 1   
    28   16   17 1   
    29   16   28 1   
    30   16   29 1   
    31   17   18 1   
    32   17   30 1   
    33   18   31 1   
@<TRIPOS>SUBSTRUCTURE
     1 3D1         1 TEMP              0 ****  ****    0 ROOT
