@<TRIPOS>MOLECULE
3D1
   31    33     1     0     0
SMALL
bcc


@<TRIPOS>ATOM
      1 O5'         0.9030   -1.5460   -0.0710 oh        1 3D1     -0.588800
      2 C5'         2.2130   -1.0990    0.2280 c3        1 3D1      0.105400
      3 C4'         2.0970   -0.0470    1.3310 c3        1 3D1      0.133100
      4 O4'         1.3750   -0.5620    2.4570 os        1 3D1     -0.389600
      5 C1'         2.2790   -0.9470    3.5010 c3        1 3D1      0.262800
      6 N9          2.4470   -2.3870    3.4940 na        1 3D1     -0.297000
      7 C4          3.2320   -3.1360    4.3800 ca        1 3D1      0.451800
      8 N3          4.0750   -2.7480    5.3850 nb        1 3D1     -0.743000
      9 C2          4.6460   -3.7990    6.0180 ca        1 3D1      0.683900
     10 N1          4.5090   -5.1350    5.8030 nb        1 3D1     -0.795000
     11 C6          3.6720   -5.5330    4.7860 ca        1 3D1      0.755200
     12 N6          3.5250   -6.8610    4.4710 nh        1 3D1     -0.953500
     13 C5          2.9800   -4.5300    4.0280 ca        1 3D1     -0.228200
     14 N7          2.0620   -4.5990    2.9690 nc        1 3D1     -0.555100
     15 C8          1.7620   -3.3250    2.6810 cd        1 3D1      0.418700
     16 C2'         3.5820   -0.1460    3.2770 c3        1 3D1     -0.150400
     17 C3'         3.4990    0.3650    1.8340 c3        1 3D1      0.115100
     18 O3'         3.5650    1.7780    1.7550 oh        1 3D1     -0.588800
     19 H5'         0.9780   -2.1110   -0.8500 ho        1 3D1      0.405000
     20 H5'1        2.6880   -0.6310   -0.6760 h1        1 3D1      0.035200
     21 H5'2        2.8370   -1.9680    0.5720 h1        1 3D1      0.035200
     22 H4'         1.4950    0.8340    0.9800 h1        1 3D1      0.113700
     23 H1'         1.7650   -0.6560    4.4660 h2        1 3D1      0.101700
     24 H2          5.3360   -3.5340    6.8490 h5        1 3D1      0.050100
     25 HN61        3.9100   -7.5560    5.0620 hn        1 3D1      0.444300
     26 HN62        2.8130   -7.1120    3.8320 hn        1 3D1      0.444300
     27 H8          1.0610   -2.9760    1.9040 h5        1 3D1      0.100800
     28 H2'1        3.6020    0.7110    3.9960 hc        1 3D1      0.084700
     29 H2'2        4.4980   -0.7620    3.4410 hc        1 3D1      0.084700
     30 H3'         4.3110   -0.0830    1.1980 h1        1 3D1      0.051700
     31 H1          4.4140    2.0400    2.1320 ho        1 3D1      0.409000
@<TRIPOS>BOND
     1    1    2 1   
     2    1   19 1   
     3    2    3 1   
     4    2   20 1   
     5    2   21 1   
     6    3    4 1   
     7    3   17 1   
     8    3   22 1   
     9    4    5 1   
    10    5    6 1   
    11    5   16 1   
    12    5   23 1   
    13    6    7 1   
    14    6   15 1   
    15    7    8 ar  
    16    7   13 ar  
    17    8    9 ar  
    18    9   10 ar  
    19    9   24 1   
    20   10   11 ar  
    21   11   12 1   
    22   11   13 ar  
    23   12   25 1   
    24   12   26 1   
    25   13   14 1   
    26   14   15 2   
    27   15   27 1   
    28   16   17 1   
    29   16   28 1   
    30   16   29 1   
    31   17   18 1   
    32   17   30 1   
    33   18   31 1   
@<TRIPOS>SUBSTRUCTURE
     1 3D1         1 TEMP              0 ****  ****    0 ROOT
