@<TRIPOS>MOLECULE
3D2
   50    51     1     0     0
SMALL
bcc


@<TRIPOS>ATOM
      1 C19        -0.1060    0.4470    0.0640 ca        1 3D2      0.441200
      2 C14         3.2510   -0.7580    3.7120 ca        1 3D2     -0.040000
      3 C15         1.9300   -0.2700    3.6770 cp        1 3D2      0.026000
      4 C16         1.2660   -0.0050    2.4110 cp        1 3D2     -0.225300
      5 C17         1.9680    0.4850    1.2950 ca        1 3D2     -0.063000
      6 C18         1.2790    0.7130    0.1070 ca        1 3D2     -0.227300
      7 C13         3.8810   -1.0220    4.9280 ca        1 3D2     -0.108000
      8 C12         3.2090   -0.8130    6.1310 ca        1 3D2     -0.088000
      9 C11         1.8890   -0.3400    6.1110 ca        1 3D2     -0.229300
     10 C22         1.2570   -0.0620    4.8870 ca        1 3D2     -0.112000
     11 C10         1.1270   -0.2070    7.3680 c3        1 3D2      0.205100
     12 N20        -0.7960   -0.0250    1.1200 nb        1 3D2     -0.647000
     13 C21        -0.1190   -0.2500    2.2580 ca        1 3D2      0.416200
     14 N09         1.0940    1.2640    7.7880 n4        1 3D2     -0.795000
     15 C03         0.2240    1.5370    8.9760 c3        1 3D2      0.067500
     16 C02        -1.2550    1.4560    8.5560 c         1 3D2      0.499100
     17 O23        -1.6990    1.8480    7.4900 o         1 3D2     -0.328100
     18 N01        -2.2380    0.8800    9.5260 n4        1 3D2     -0.744400
     19 C04         0.4510    2.9380    9.5810 c3        1 3D2     -0.114400
     20 C05         1.8080    3.0950   10.2460 c3        1 3D2     -0.085400
     21 C06         1.9030    4.4490   10.9350 c3        1 3D2     -0.109400
     22 C07         3.2850    4.6150   11.5680 c3        1 3D2      0.101800
     23 N08         3.4700    5.9230   12.2600 n4        1 3D2     -0.837600
     24 H1         -0.6920    0.6130   -0.8620 h4        1 3D2      0.057100
     25 H3          3.0480    0.6890    1.3570 ha        1 3D2      0.146000
     26 H4          1.7980    1.0890   -0.7880 ha        1 3D2      0.175000
     27 H5          4.9120   -1.4160    4.9370 ha        1 3D2      0.181000
     28 H6          3.7070   -1.0530    7.0830 ha        1 3D2      0.141000
     29 H7          0.2170    0.2970    4.8700 ha        1 3D2      0.133000
     30 H8          1.6000   -0.7880    8.2100 hx        1 3D2      0.097700
     31 H9          0.0530   -0.5200    7.2320 hx        1 3D2      0.097700
     32 H10        -0.7140   -0.6760    3.0860 h4        1 3D2      0.008100
     33 H11         2.0550    1.5600    8.0100 hn        1 3D2      0.473800
     34 H13         0.4650    0.7450    9.7510 hx        1 3D2      0.139700
     35 H14        -2.1920    1.3620   10.4330 hn        1 3D2      0.499800
     36 H15        -2.0620   -0.1250    9.6730 hn        1 3D2      0.499800
     37 H16        -0.3520    3.1080   10.3510 hc        1 3D2      0.098700
     38 H17         0.3210    3.7240    8.7870 hc        1 3D2      0.098700
     39 H18         1.9640    2.2770   11.0000 hc        1 3D2      0.070700
     40 H19         2.6290    3.0170    9.4840 hc        1 3D2      0.070700
     41 H20         1.1070    4.5250   11.7240 hc        1 3D2      0.084700
     42 H21         1.7200    5.2650   10.1850 hc        1 3D2      0.084700
     43 H22         4.0850    4.5380   10.7720 hx        1 3D2      0.122200
     44 H23         3.4600    3.8000   12.3310 hx        1 3D2      0.122200
     45 H24         3.3530    6.7040   11.6020 hn        1 3D2      0.478800
     46 H25         2.7880    6.0320   13.0210 hn        1 3D2      0.478800
     47 H092        0.7800    1.8210    6.9750 hn        1 3D2      0.473800
     48 H013       -3.2010    0.9850    9.1470 hn        1 3D2      0.499800
     49 H083        4.4180    5.9700   12.6600 hn        1 3D2      0.478800
     50 H2          3.7860   -0.9490    2.7630 ha        1 3D2      0.185000
@<TRIPOS>BOND
     1    1    6 ar  
     2    1   12 ar  
     3    1   24 1   
     4    2    3 ar  
     5    2    7 ar  
     6    2   50 1   
     7    3    4 1   
     8    3   10 ar  
     9    4    5 ar  
    10    4   13 ar  
    11    5    6 ar  
    12    5   25 1   
    13    6   26 1   
    14    7    8 ar  
    15    7   27 1   
    16    8    9 ar  
    17    8   28 1   
    18    9   10 ar  
    19    9   11 1   
    20   10   29 1   
    21   11   14 1   
    22   11   30 1   
    23   11   31 1   
    24   12   13 ar  
    25   13   32 1   
    26   14   15 1   
    27   14   33 1   
    28   14   47 1   
    29   15   16 1   
    30   15   19 1   
    31   15   34 1   
    32   16   17 2   
    33   16   18 1   
    34   18   35 1   
    35   18   36 1   
    36   18   48 1   
    37   19   20 1   
    38   19   37 1   
    39   19   38 1   
    40   20   21 1   
    41   20   39 1   
    42   20   40 1   
    43   21   22 1   
    44   21   41 1   
    45   21   42 1   
    46   22   23 1   
    47   22   43 1   
    48   22   44 1   
    49   23   45 1   
    50   23   46 1   
    51   23   49 1   
@<TRIPOS>SUBSTRUCTURE
     1 3D2         1 TEMP              0 ****  ****    0 ROOT
