@<TRIPOS>MOLECULE
3D2
   50    51     1     0     0
SMALL
bcc


@<TRIPOS>ATOM
      1 C19        -0.1050    0.4530    0.0640 ca        1 3D2      0.441200
      2 C14         3.2520   -0.7550    3.7110 ca        1 3D2     -0.040000
      3 C15         1.9300   -0.2680    3.6770 cp        1 3D2      0.026000
      4 C16         1.2660   -0.0010    2.4100 cp        1 3D2     -0.225300
      5 C17         1.9690    0.4890    1.2950 ca        1 3D2     -0.063000
      6 C18         1.2790    0.7190    0.1070 ca        1 3D2     -0.227300
      7 C13         3.8810   -1.0210    4.9270 ca        1 3D2     -0.108000
      8 C12         3.2090   -0.8140    6.1300 ca        1 3D2     -0.088000
      9 C11         1.8890   -0.3410    6.1100 ca        1 3D2     -0.229300
     10 C22         1.2570   -0.0610    4.8870 ca        1 3D2     -0.112000
     11 C10         1.1270   -0.2090    7.3670 c3        1 3D2      0.205100
     12 N20        -0.7960   -0.0210    1.1200 nb        1 3D2     -0.647000
     13 C21        -0.1180   -0.2470    2.2570 ca        1 3D2      0.416200
     14 N09         1.0940    1.2620    7.7890 ny        1 3D2     -0.795000
     15 C03         0.2240    1.5340    8.9770 c3        1 3D2      0.067500
     16 C02        -1.2550    1.4520    8.5580 c         1 3D2      0.499100
     17 O23        -1.7000    1.8440    7.4930 o         1 3D2     -0.328100
     18 N01        -2.2370    0.8750    9.5290 nz        1 3D2     -0.744400
     19 C04         0.4500    2.9350    9.5830 c3        1 3D2     -0.114400
     20 C05         1.8080    3.0930   10.2450 c3        1 3D2     -0.085400
     21 C06         1.9030    4.4470   10.9360 c3        1 3D2     -0.109400
     22 C07         3.2850    4.6150   11.5660 c3        1 3D2      0.101800
     23 N08         3.4690    5.9220   12.2580 nz        1 3D2     -0.837600
     24 H1         -0.6910    0.6200   -0.8620 h4        1 3D2      0.057100
     25 H3          3.0480    0.6940    1.3570 ha        1 3D2      0.146000
     26 H4          1.7990    1.0960   -0.7870 ha        1 3D2      0.175000
     27 H5          4.9120   -1.4160    4.9350 ha        1 3D2      0.181000
     28 H6          3.7070   -1.0540    7.0820 ha        1 3D2      0.141000
     29 H7          0.2170    0.2980    4.8700 ha        1 3D2      0.133000
     30 H8          1.6010   -0.7900    8.2090 hx        1 3D2      0.098200
     31 H9          0.0540   -0.5220    7.2320 hx        1 3D2      0.098200
     32 H10        -0.7140   -0.6730    3.0840 h4        1 3D2      0.008100
     33 H11         0.7780    1.8190    6.9760 hn        1 3D2      0.473800
     34 H13         0.4670    0.7420    9.7520 hx        1 3D2      0.139700
     35 H14        -2.0600   -0.1300    9.6750 hn        1 3D2      0.499800
     36 H15        -2.1900    1.3570   10.4360 hn        1 3D2      0.499800
     37 H16         0.3190    3.7220    8.7880 hc        1 3D2      0.098700
     38 H17        -0.3520    3.1040   10.3540 hc        1 3D2      0.098700
     39 H18         2.6280    3.0170    9.4830 hc        1 3D2      0.070700
     40 H19         1.9660    2.2760   11.0000 hc        1 3D2      0.070700
     41 H20         1.7170    5.2630   10.1850 hc        1 3D2      0.084700
     42 H21         1.1070    4.5220   11.7250 hc        1 3D2      0.084700
     43 H22         3.4620    3.7990   12.3290 hx        1 3D2      0.122200
     44 H23         4.0840    4.5390   10.7700 hx        1 3D2      0.122200
     45 H24         3.3510    6.7030   11.6010 hn        1 3D2      0.478800
     46 H25         4.4180    5.9710   12.6580 hn        1 3D2      0.478800
     47 H092        2.0550    1.5590    8.0100 hn        1 3D2      0.473800
     48 H013       -3.2000    0.9790    9.1510 hn        1 3D2      0.499800
     49 H083        2.7880    6.0320   13.0200 hn        1 3D2      0.478800
     50 H2          3.7870   -0.9460    2.7620 ha        1 3D2      0.185000
@<TRIPOS>BOND
     1    1    6 ar  
     2    1   12 ar  
     3    1   24 1   
     4    2    3 ar  
     5    2    7 ar  
     6    2   50 1   
     7    3    4 1   
     8    3   10 ar  
     9    4    5 ar  
    10    4   13 ar  
    11    5    6 ar  
    12    5   25 1   
    13    6   26 1   
    14    7    8 ar  
    15    7   27 1   
    16    8    9 ar  
    17    8   28 1   
    18    9   10 ar  
    19    9   11 1   
    20   10   29 1   
    21   11   14 1   
    22   11   30 1   
    23   11   31 1   
    24   12   13 ar  
    25   13   32 1   
    26   14   15 1   
    27   14   33 1   
    28   14   47 1   
    29   15   16 1   
    30   15   19 1   
    31   15   34 1   
    32   16   17 2   
    33   16   18 1   
    34   18   35 1   
    35   18   36 1   
    36   18   48 1   
    37   19   20 1   
    38   19   37 1   
    39   19   38 1   
    40   20   21 1   
    41   20   39 1   
    42   20   40 1   
    43   21   22 1   
    44   21   41 1   
    45   21   42 1   
    46   22   23 1   
    47   22   43 1   
    48   22   44 1   
    49   23   45 1   
    50   23   46 1   
    51   23   49 1   
@<TRIPOS>SUBSTRUCTURE
     1 3D2         1 TEMP              0 ****  ****    0 ROOT
