@<TRIPOS>MOLECULE
3D3
   23    18     1     0     0
SMALL
bcc


@<TRIPOS>ATOM
      1 N1          0.2170    0.0640    0.9530 n2        1 3D3     -0.157000
      2 C3          1.5780    0.0640    0.9530 c1        1 3D3      0.043000
      3 N7          2.4910    0.0640    1.9650 n1        1 3D3     -0.139000
      4 C9          3.8250    0.0640    1.6800 c1        1 3D3     -0.013000
      5 N8          4.2470    0.0640    0.3820 n1        1 3D3     -0.227000
      6 C6          3.3500    0.0640   -0.6170 c1        1 3D3      0.152000
      7 N13         4.2080    0.0630   -1.7460 n2        1 3D3     -0.318000
      8 C2          1.9940    0.0640   -0.3300 c1        1 3D3     -0.187000
      9 N4          0.8920    0.0640   -1.1280 n1        1 3D3     -0.191000
     10 C5         -0.2010    0.0640   -0.3320 c1        1 3D3     -0.154000
     11 S10        -1.8490    0.0540   -0.9860 s         1 3D3      0.382000
     12 C14        -3.0130   -0.0400    0.3480 c3        1 3D3     -0.339000
     13 C11        -4.4140   -0.1460   -0.2130 c2        1 3D3      0.318000
     14 O12        -4.5850   -0.2010   -1.4140 o         1 3D3     -0.360000
     15 N15        -5.5290   -0.1670    0.6640 n         1 3D3     -0.430000
     16 H9          4.4780    0.0640    2.4060 ha        1 3D3      0.193000
     17 H131        4.3710    0.8400   -2.1960 hn        1 3D3      0.201000
     18 H132        4.5890   -0.7160   -2.0290 hn        1 3D3      0.201000
     19 H4          0.8910    0.0640   -2.0400 DU        1 3D3      0.263000
     20 H141       -2.8200   -0.8260    0.8930 h1        1 3D3      0.148500
     21 H142       -2.9430    0.7630    0.8980 h1        1 3D3      0.148500
     22 H151       -6.3320   -0.4860    0.3730 hn        1 3D3      0.232500
     23 H152       -5.4480    0.1600    1.5120 hn        1 3D3      0.232500
@<TRIPOS>BOND
     1    1    2 1   
     2    1   10 1   
     3    2    8 1   
     4    3    4 1   
     5    4   16 1   
     6    5    6 1   
     7    6    8 1   
     8    7   17 1   
     9    7   18 1   
    10    9   10 1   
    11   11   12 1   
    12   12   13 1   
    13   12   20 1   
    14   12   21 1   
    15   13   14 1   
    16   13   15 1   
    17   15   22 1   
    18   15   23 1   
@<TRIPOS>SUBSTRUCTURE
     1 3D3         1 TEMP              0 ****  ****    0 ROOT
