@<TRIPOS>MOLECULE
3D3
   25    26     1     0     0
SMALL
bcc


@<TRIPOS>ATOM
      1 N1         -0.0430   -0.0050    0.1130 nc        1 3D3     -0.640700
      2 C3          1.3690    0.0030    0.0630 ca        1 3D3      0.615300
      3 N7          2.2760    0.0100    1.0660 nb        1 3D3     -0.565000
      4 C9          3.5740    0.0160    0.6630 ca        1 3D3      0.678900
      5 N8          4.0590    0.0150   -0.6080 nb        1 3D3     -0.653000
      6 C6          3.1590    0.0080   -1.6260 ca        1 3D3      0.495200
      7 N13         3.6970    0.0080   -3.0000 n4        1 3D3     -0.824300
      8 C2          1.7770    0.0010   -1.3730 ca        1 3D3     -0.282800
      9 N4          0.6000   -0.0070   -2.1120 na        1 3D3     -0.255300
     10 C5         -0.4610   -0.0100   -1.1730 cd        1 3D3      0.428700
     11 S10        -2.0850   -0.0200   -1.6730 ss        1 3D3      0.053700
     12 C14        -2.9440   -0.0200   -0.1100 c3        1 3D3     -0.150300
     13 C11        -4.4170   -0.0290   -0.3470 c         1 3D3      0.562100
     14 O12        -5.0480   -0.0340   -1.3870 o         1 3D3     -0.350100
     15 N15        -5.2630   -0.0300    0.9120 n4        1 3D3     -0.760400
     16 H9          4.3460    0.0220    1.4730 h5        1 3D3      0.119100
     17 H131        3.3730    0.8460   -3.4950 hn        1 3D3      0.481133
     18 H132        3.3820   -0.8370   -3.4910 hn        1 3D3      0.481133
     19 H4          0.4990   -0.0090   -3.0950 hn        1 3D3      0.334700
     20 H141       -2.6430   -0.9220    0.4940 h1        1 3D3      0.150700
     21 H142       -2.6520    0.8870    0.4900 h1        1 3D3      0.150700
     22 H151       -5.0690    0.8060    1.4740 hn        1 3D3      0.482800
     23 H152       -6.2640   -0.0360    0.6580 hn        1 3D3      0.482800
     24 H133        4.7330    0.0130   -2.9810 hn        1 3D3      0.481133
     25 H153       -5.0610   -0.8630    1.4770 hn        1 3D3      0.482800
@<TRIPOS>BOND
     1    1    2 1   
     2    1   10 2   
     3    2    3 ar  
     4    2    8 ar  
     5    3    4 ar  
     6    4    5 ar  
     7    4   16 1   
     8    5    6 ar  
     9    6    7 1   
    10    6    8 ar  
    11    7   17 1   
    12    7   18 1   
    13    7   24 1   
    14    8    9 1   
    15    9   10 1   
    16    9   19 1   
    17   10   11 1   
    18   11   12 1   
    19   12   13 1   
    20   12   20 1   
    21   12   21 1   
    22   13   14 2   
    23   13   15 1   
    24   15   22 1   
    25   15   23 1   
    26   15   25 1   
@<TRIPOS>SUBSTRUCTURE
     1 3D3         1 TEMP              0 ****  ****    0 ROOT
