@<TRIPOS>MOLECULE
3D3
   24    25     1     0     0
SMALL
bcc


@<TRIPOS>ATOM
      1 N1         -0.7420    0.0080   -0.2300 nc        1 3D3     -0.775700
      2 C3          0.6300   -0.2200   -0.0220 ca        1 3D3      0.596300
      3 N7          1.3100   -0.4380    1.1460 nb        1 3D3     -0.701000
      4 C9          2.6320   -0.6420    0.9630 ca        1 3D3      0.692900
      5 N8          3.3660   -0.6500   -0.1870 nb        1 3D3     -0.746000
      6 C6          2.7140   -0.4400   -1.3710 ca        1 3D3      0.735200
      7 N13         3.3750   -0.5170   -2.5780 nh        1 3D3     -0.938500
      8 C2          1.2950   -0.2080   -1.3220 ca        1 3D3     -0.371800
      9 N4          0.3080    0.0500   -2.2740 na        1 3D3     -0.187300
     10 C5         -0.8970    0.1480   -1.5770 cd        1 3D3      0.368700
     11 S10        -2.4070    0.4230   -2.3120 ss        1 3D3      0.023700
     12 C14        -3.3360    1.1680   -1.0210 c3        1 3D3     -0.140300
     13 C11        -3.9580    0.2000   -0.0620 c         1 3D3      0.554100
     14 O12        -5.0400   -0.3550   -0.1660 o         1 3D3     -0.391100
     15 N15        -3.1930   -0.1260    1.1970 n4        1 3D3     -0.745400
     16 H9          3.2270   -0.8260    1.8880 h5        1 3D3      0.075100
     17 H131        4.3650   -0.6240   -2.5690 hn        1 3D3      0.440300
     18 H132        2.9870   -0.0250   -3.3460 hn        1 3D3      0.440300
     19 H4          0.4150    0.0130   -3.2570 hn        1 3D3      0.330700
     20 H141       -2.7530    1.9580   -0.4800 h1        1 3D3      0.149700
     21 H142       -4.1860    1.6870   -1.5590 h1        1 3D3      0.149700
     22 H151       -3.8410   -0.3880    1.9480 hn        1 3D3      0.480467
     23 H152       -2.6180    0.6700    1.4920 hn        1 3D3      0.480467
     24 H153       -2.5610   -0.9220    1.0180 hn        1 3D3      0.480467
@<TRIPOS>BOND
     1    1    2 1   
     2    1   10 2   
     3    2    3 ar  
     4    2    8 ar  
     5    3    4 ar  
     6    4    5 ar  
     7    4   16 1   
     8    5    6 ar  
     9    6    7 1   
    10    6    8 ar  
    11    7   17 1   
    12    7   18 1   
    13    8    9 1   
    14    9   10 1   
    15    9   19 1   
    16   10   11 1   
    17   11   12 1   
    18   12   13 1   
    19   12   20 1   
    20   12   21 1   
    21   13   14 2   
    22   13   15 1   
    23   15   22 1   
    24   15   23 1   
    25   15   24 1   
@<TRIPOS>SUBSTRUCTURE
     1 3D3         1 TEMP              0 ****  ****    0 ROOT
