@<TRIPOS>MOLECULE
3D3
   24    25     1     0     0
SMALL
bcc


@<TRIPOS>ATOM
      1 N1         -0.7430   -0.0140   -0.2310 nc        1 3D3     -0.775700
      2 C3          0.6290   -0.2470   -0.0310 ca        1 3D3      0.596300
      3 N7          1.3070   -0.5230    1.1260 nb        1 3D3     -0.701000
      4 C9          2.6310   -0.7120    0.9380 ca        1 3D3      0.692900
      5 N8          3.3680   -0.6550   -0.2090 nb        1 3D3     -0.746000
      6 C6          2.7190   -0.3870   -1.3820 ca        1 3D3      0.735200
      7 N13         3.3840   -0.3970   -2.5890 nv        1 3D3     -0.938500
      8 C2          1.2990   -0.1630   -1.3260 ca        1 3D3     -0.371800
      9 N4          0.3140    0.1410   -2.2670 na        1 3D3     -0.187300
     10 C5         -0.8940    0.1960   -1.5690 cd        1 3D3      0.368700
     11 S10        -2.4030    0.5030   -2.2940 ss        1 3D3      0.023700
     12 C14        -3.3390    1.1740   -0.9690 c3        1 3D3     -0.140300
     13 C11        -3.9600    0.1540   -0.0650 c         1 3D3      0.554100
     14 O12        -5.0390   -0.4000   -0.2010 o         1 3D3     -0.391100
     15 N15        -3.1980   -0.2340    1.1780 nz        1 3D3     -0.745400
     16 H9          3.2230   -0.9420    1.8540 h5        1 3D3      0.075100
     17 H131        4.3750   -0.5000   -2.5820 hn        1 3D3      0.440300
     18 H132        2.9970    0.1330   -3.3310 hn        1 3D3      0.440300
     19 H4          0.4240    0.1560   -3.2490 hn        1 3D3      0.330700
     20 H141       -4.1910    1.7170   -1.4810 h1        1 3D3      0.149700
     21 H142       -2.7610    1.9380   -0.3850 h1        1 3D3      0.149700
     22 H151       -3.8470   -0.5370    1.9130 hn        1 3D3      0.480467
     23 H152       -2.5610   -1.0170    0.9610 hn        1 3D3      0.480467
     24 H153       -2.6270    0.5480    1.5170 hn        1 3D3      0.480467
@<TRIPOS>BOND
     1    1    2 1   
     2    1   10 2   
     3    2    3 ar  
     4    2    8 ar  
     5    3    4 ar  
     6    4    5 ar  
     7    4   16 1   
     8    5    6 ar  
     9    6    7 1   
    10    6    8 ar  
    11    7   17 1   
    12    7   18 1   
    13    8    9 1   
    14    9   10 1   
    15    9   19 1   
    16   10   11 1   
    17   11   12 1   
    18   12   13 1   
    19   12   20 1   
    20   12   21 1   
    21   13   14 2   
    22   13   15 1   
    23   15   22 1   
    24   15   23 1   
    25   15   24 1   
@<TRIPOS>SUBSTRUCTURE
     1 3D3         1 TEMP              0 ****  ****    0 ROOT
