@<TRIPOS>MOLECULE
3D3
   23    24     1     0     0
SMALL
bcc


@<TRIPOS>ATOM
      1 N1         -0.1560    0.9920    0.0430 nc        1 3D3     -0.663700
      2 C3         -1.5690    0.9990    0.0270 ca        1 3D3      0.590300
      3 N7         -2.4450    2.0480    0.0150 nb        1 3D3     -0.665000
      4 C9         -3.7420    1.6720    0.0090 ca        1 3D3      0.649900
      5 N8         -4.2940    0.4240   -0.0060 nb        1 3D3     -0.753000
      6 C6         -3.4430   -0.6440    0.0070 ca        1 3D3      0.673200
      7 N13        -3.9150   -1.9610    0.0810 nh        1 3D3     -0.920500
      8 C2         -2.0400   -0.3880    0.0270 ca        1 3D3     -0.362800
      9 N4         -0.9030   -1.1990    0.0040 na        1 3D3     -0.234300
     10 C5          0.2010   -0.3180    0.0620 cd        1 3D3      0.396700
     11 S10         1.7840   -0.9270    0.0970 ss        1 3D3     -0.024300
     12 C14         2.7440    0.5590    0.0220 c3        1 3D3     -0.128300
     13 C11         4.2150    0.2040    0.0180 c         1 3D3      0.674100
     14 O12         4.6310   -0.9680    0.1020 o         1 3D3     -0.599100
     15 N15         5.1010    1.2470   -0.0800 n         1 3D3     -0.670000
     16 H9         -4.4810    2.5020    0.0060 h5        1 3D3      0.056100
     17 H131       -3.3970   -2.6010   -0.4800 hn        1 3D3      0.405800
     18 H132       -4.9040   -2.0660   -0.0090 hn        1 3D3      0.405800
     19 H4         -0.8810   -2.1500    0.2710 hn        1 3D3      0.312700
     20 H141        2.5150    1.2120    0.9030 h1        1 3D3      0.109200
     21 H142        2.4870    1.1400   -0.9010 h1        1 3D3      0.109200
     22 H151        6.0730    1.0600   -0.0820 hn        1 3D3      0.319000
     23 H152        4.7910    2.1810   -0.1430 hn        1 3D3      0.319000
@<TRIPOS>BOND
     1    1    2 1   
     2    1   10 2   
     3    2    3 ar  
     4    2    8 ar  
     5    3    4 ar  
     6    4    5 ar  
     7    4   16 1   
     8    5    6 ar  
     9    6    7 1   
    10    6    8 ar  
    11    7   17 1   
    12    7   18 1   
    13    8    9 1   
    14    9   10 1   
    15    9   19 1   
    16   10   11 1   
    17   11   12 1   
    18   12   13 1   
    19   12   20 1   
    20   12   21 1   
    21   13   14 2   
    22   13   15 1   
    23   15   22 1   
    24   15   23 1   
@<TRIPOS>SUBSTRUCTURE
     1 3D3         1 TEMP              0 ****  ****    0 ROOT
