@<TRIPOS>MOLECULE
3D5
   50    51     1     0     0
SMALL
bcc


@<TRIPOS>ATOM
      1 C18         0.1940   -0.4860    0.1100 ca        1 3D5     -0.052000
      2 C19         1.5770   -0.3400    0.0710 ca        1 3D5     -0.239300
      3 C20         2.1930    0.5190    1.0060 ca        1 3D5      0.461200
      4 N21         1.5040    1.2100    1.9350 nb        1 3D5     -0.643000
      5 C22         0.1710    1.0620    1.9660 ca        1 3D5      0.448200
      6 C17        -0.5480    0.2200    1.0780 cp        1 3D5     -0.248300
      7 C16        -1.9880    0.1130    1.1650 cp        1 3D5      0.122000
      8 C15        -2.7680   -0.1530    0.0180 ca        1 3D5     -0.135500
      9 C14        -4.1480   -0.2230    0.0970 ca        1 3D5     -0.068500
     10 C13        -2.6520    0.2880    2.4000 ca        1 3D5     -0.135500
     11 C12        -4.0320    0.2200    2.4820 ca        1 3D5     -0.068500
     12 C11        -4.8020   -0.0290    1.3290 ca        1 3D5     -0.270300
     13 C10        -6.2670    0.0060    1.3970 c3        1 3D5      0.216100
     14 N09        -6.7980   -1.4180    1.6380 n4        1 3D5     -0.801000
     15 C03        -8.2890   -1.5120    1.7240 c3        1 3D5      0.065500
     16 C02        -8.8970   -1.3190    0.3250 c         1 3D5      0.501100
     17 O23        -8.4170   -1.7460   -0.7110 o         1 3D5     -0.331100
     18 N01       -10.1890   -0.5720    0.2110 n4        1 3D5     -0.745400
     19 C04        -8.7820   -2.8760    2.2520 c3        1 3D5     -0.114400
     20 C05        -8.4400   -3.1140    3.7120 c3        1 3D5     -0.085400
     21 C06        -9.0750   -4.4110    4.1980 c3        1 3D5     -0.109400
     22 C07        -8.6940   -4.6630    5.6560 c3        1 3D5      0.101800
     23 N08        -9.2680   -5.9220    6.2110 n4        1 3D5     -0.837600
     24 H1         -0.3080   -1.1600   -0.6000 ha        1 3D5      0.140000
     25 H2          2.1860   -0.8790   -0.6700 ha        1 3D5      0.174000
     26 H3          3.2920    0.6650    1.0110 h4        1 3D5      0.060100
     27 H4         -0.3530    1.6690    2.7290 h4        1 3D5      0.029100
     28 H5         -2.2700   -0.2770   -0.9600 ha        1 3D5      0.177500
     29 H6         -4.7350   -0.3980   -0.8190 ha        1 3D5      0.134000
     30 H7         -2.0600    0.4870    3.3110 ha        1 3D5      0.177500
     31 H8         -4.5270    0.3910    3.4510 ha        1 3D5      0.134000
     32 H9         -6.6360    0.6380    2.2530 hx        1 3D5      0.094200
     33 H10        -6.7250    0.3470    0.4260 hx        1 3D5      0.094200
     34 H11        -6.3950   -1.7640    2.5210 hn        1 3D5      0.468300
     35 H13        -8.6300   -0.6900    2.4270 hx        1 3D5      0.137700
     36 H14       -10.0630    0.4190    0.4670 hn        1 3D5      0.498800
     37 H15       -10.5260   -0.6090   -0.7720 hn        1 3D5      0.498800
     38 H16        -9.8990   -2.9030    2.1310 hc        1 3D5      0.097200
     39 H17        -8.3580   -3.7060    1.6200 hc        1 3D5      0.097200
     40 H18        -8.8100   -2.2580    4.3390 hc        1 3D5      0.070700
     41 H19        -7.3280   -3.1820    3.8490 hc        1 3D5      0.070700
     42 H20       -10.1920   -4.3420    4.0970 hc        1 3D5      0.084700
     43 H21        -8.7260   -5.2620    3.5520 hc        1 3D5      0.084700
     44 H22        -9.0580   -3.8100    6.3030 hx        1 3D5      0.122200
     45 H23        -7.5710   -4.7320    5.7550 hx        1 3D5      0.122200
     46 H24        -8.9730   -6.0320    7.1930 hn        1 3D5      0.478133
     47 H25        -8.9420   -6.7380    5.6790 hn        1 3D5      0.478133
     48 H092       -6.4440   -2.0250    0.8810 hn        1 3D5      0.468300
     49 H013      -10.9100   -0.9830    0.8180 hn        1 3D5      0.498800
     50 H083      -10.2950   -5.9000    6.1800 hn        1 3D5      0.478133
@<TRIPOS>BOND
     1    1    2 ar  
     2    1    6 ar  
     3    1   24 1   
     4    2    3 ar  
     5    2   25 1   
     6    3    4 ar  
     7    3   26 1   
     8    4    5 ar  
     9    5    6 ar  
    10    5   27 1   
    11    6    7 1   
    12    7    8 ar  
    13    7   10 ar  
    14    8    9 ar  
    15    8   28 1   
    16    9   12 ar  
    17    9   29 1   
    18   10   11 ar  
    19   10   30 1   
    20   11   12 ar  
    21   11   31 1   
    22   12   13 1   
    23   13   14 1   
    24   13   32 1   
    25   13   33 1   
    26   14   15 1   
    27   14   34 1   
    28   14   48 1   
    29   15   16 1   
    30   15   19 1   
    31   15   35 1   
    32   16   17 2   
    33   16   18 1   
    34   18   36 1   
    35   18   37 1   
    36   18   49 1   
    37   19   20 1   
    38   19   38 1   
    39   19   39 1   
    40   20   21 1   
    41   20   40 1   
    42   20   41 1   
    43   21   22 1   
    44   21   42 1   
    45   21   43 1   
    46   22   23 1   
    47   22   44 1   
    48   22   45 1   
    49   23   46 1   
    50   23   47 1   
    51   23   50 1   
@<TRIPOS>SUBSTRUCTURE
     1 3D5         1 TEMP              0 ****  ****    0 ROOT
