@<TRIPOS>MOLECULE
3D5
   50    51     1     0     0
SMALL
bcc


@<TRIPOS>ATOM
      1 C18         0.1860   -0.4750    0.0960 ca        1 3D5     -0.052000
      2 C19         1.5690   -0.3320    0.0520 ca        1 3D5     -0.239300
      3 C20         2.1920    0.5140    0.9940 ca        1 3D5      0.461200
      4 N21         1.5100    1.1950    1.9350 nb        1 3D5     -0.643000
      5 C22         0.1760    1.0500    1.9710 ca        1 3D5      0.448200
      6 C17        -0.5500    0.2210    1.0760 cp        1 3D5     -0.248300
      7 C16        -1.9890    0.1170    1.1680 cp        1 3D5      0.122000
      8 C15        -2.7750   -0.1330    0.0210 ca        1 3D5     -0.135500
      9 C14        -4.1560   -0.2000    0.1070 ca        1 3D5     -0.068500
     10 C13        -2.6470    0.2790    2.4090 ca        1 3D5     -0.135500
     11 C12        -4.0270    0.2130    2.4960 ca        1 3D5     -0.068500
     12 C11        -4.8030   -0.0200    1.3450 ca        1 3D5     -0.270300
     13 C10        -6.2670    0.0180    1.4190 c3        1 3D5      0.216100
     14 N09        -6.8010   -1.4080    1.6450 ny        1 3D5     -0.801000
     15 C03        -8.2910   -1.5000    1.7390 c3        1 3D5      0.065500
     16 C02        -8.9070   -1.2860    0.3450 c         1 3D5      0.501100
     17 O23        -8.4340   -1.7010   -0.6990 o         1 3D5     -0.331100
     18 N01       -10.1970   -0.5340    0.2480 nz        1 3D5     -0.745400
     19 C04        -8.7850   -2.8690    2.2510 c3        1 3D5     -0.114400
     20 C05        -8.4350   -3.1280    3.7060 c3        1 3D5     -0.085400
     21 C06        -9.0720   -4.4280    4.1780 c3        1 3D5     -0.109400
     22 C07        -8.6820   -4.7020    5.6300 c3        1 3D5      0.101800
     23 N08        -9.2570   -5.9660    6.1720 nz        1 3D5     -0.837600
     24 H1         -0.3210   -1.1390   -0.6200 ha        1 3D5      0.140000
     25 H2          2.1730   -0.8640   -0.6980 ha        1 3D5      0.174000
     26 H3          3.2920    0.6570    0.9960 h4        1 3D5      0.060100
     27 H4         -0.3420    1.6490    2.7430 h4        1 3D5      0.029100
     28 H5         -2.2820   -0.2470   -0.9600 ha        1 3D5      0.177500
     29 H6         -4.7470   -0.3630   -0.8080 ha        1 3D5      0.134000
     30 H7         -2.0500    0.4650    3.3190 ha        1 3D5      0.177500
     31 H8         -4.5160    0.3740    3.4700 ha        1 3D5      0.134000
     32 H9         -6.6310    0.6400    2.2850 hx        1 3D5      0.094200
     33 H10        -6.7290    0.3720    0.4560 hx        1 3D5      0.094200
     34 H11        -6.3940   -1.7660    2.5210 hn        1 3D5      0.468300
     35 H13        -8.6270   -0.6860    2.4540 hx        1 3D5      0.137700
     36 H14       -10.0670    0.4520    0.5160 hn        1 3D5      0.498800
     37 H15       -10.5400   -0.5580   -0.7330 hn        1 3D5      0.498800
     38 H16        -9.9030   -2.8910    2.1360 hc        1 3D5      0.097200
     39 H17        -8.3680   -3.6920    1.6060 hc        1 3D5      0.097200
     40 H18        -7.3220   -3.2010    3.8350 hc        1 3D5      0.070200
     41 H19        -8.7980   -2.2790    4.3460 hc        1 3D5      0.070200
     42 H20       -10.1890   -4.3540    4.0850 hc        1 3D5      0.084700
     43 H21        -8.7300   -5.2720    3.5190 hc        1 3D5      0.084700
     44 H22        -9.0390   -3.8570    6.2900 hx        1 3D5      0.122200
     45 H23        -7.5580   -4.7770    5.7200 hx        1 3D5      0.122200
     46 H24        -8.9380   -6.7760    5.6260 hn        1 3D5      0.478133
     47 H25       -10.2840   -5.9410    6.1480 hn        1 3D5      0.478133
     48 H092       -6.4520   -2.0060    0.8790 hn        1 3D5      0.468300
     49 H013      -10.9160   -0.9520    0.8530 hn        1 3D5      0.498800
     50 H083       -8.9560   -6.0910    7.1500 hn        1 3D5      0.478133
@<TRIPOS>BOND
     1    1    2 ar  
     2    1    6 ar  
     3    1   24 1   
     4    2    3 ar  
     5    2   25 1   
     6    3    4 ar  
     7    3   26 1   
     8    4    5 ar  
     9    5    6 ar  
    10    5   27 1   
    11    6    7 1   
    12    7    8 ar  
    13    7   10 ar  
    14    8    9 ar  
    15    8   28 1   
    16    9   12 ar  
    17    9   29 1   
    18   10   11 ar  
    19   10   30 1   
    20   11   12 ar  
    21   11   31 1   
    22   12   13 1   
    23   13   14 1   
    24   13   32 1   
    25   13   33 1   
    26   14   15 1   
    27   14   34 1   
    28   14   48 1   
    29   15   16 1   
    30   15   19 1   
    31   15   35 1   
    32   16   17 2   
    33   16   18 1   
    34   18   36 1   
    35   18   37 1   
    36   18   49 1   
    37   19   20 1   
    38   19   38 1   
    39   19   39 1   
    40   20   21 1   
    41   20   40 1   
    42   20   41 1   
    43   21   22 1   
    44   21   42 1   
    45   21   43 1   
    46   22   23 1   
    47   22   44 1   
    48   22   45 1   
    49   23   46 1   
    50   23   47 1   
    51   23   50 1   
@<TRIPOS>SUBSTRUCTURE
     1 3D5         1 TEMP              0 ****  ****    0 ROOT
