@<TRIPOS>MOLECULE
3D6
   50    51     1     0     0
SMALL
bcc


@<TRIPOS>ATOM
      1 C10        -0.0320   -0.0970    0.2050 c3        1 3D6      0.215100
      2 C13        -0.9520    0.6640    3.7760 ca        1 3D6     -0.135000
      3 C15        -2.0550    2.6320    4.8230 cp        1 3D6     -0.247300
      4 C17        -3.1310    2.6400    6.9870 ca        1 3D6     -0.236300
      5 C20        -2.0180    4.0480    4.9110 ca        1 3D6      0.442200
      6 C21        -1.5670    2.5570    2.3880 ca        1 3D6     -0.135000
      7 C22        -1.0600    1.9080    1.2750 ca        1 3D6     -0.070000
      8 C02         2.1430   -2.0150   -0.9600 c         1 3D6      0.501100
      9 C03         2.0600   -0.4970   -1.1990 c3        1 3D6      0.065500
     10 C04         3.4880   -0.0080   -1.5230 c3        1 3D6     -0.114400
     11 C05         3.5390    1.4390   -1.9810 c3        1 3D6     -0.085400
     12 C06         4.9520    1.8050   -2.4140 c3        1 3D6     -0.109400
     13 C07         5.0050    3.2740   -2.8310 c3        1 3D6      0.101800
     14 N08         6.3600    3.7230   -3.2600 n4        1 3D6     -0.837600
     15 N09         1.4710    0.1670    0.0060 n4        1 3D6     -0.800000
     16 C11        -0.4910    0.6250    1.3970 ca        1 3D6     -0.269300
     17 C12        -0.4440    0.0130    2.6640 ca        1 3D6     -0.070000
     18 C14        -1.5240    1.9500    3.6630 cp        1 3D6      0.120000
     19 C16        -2.6280    1.9290    5.9020 ca        1 3D6     -0.048000
     20 C18        -3.0450    4.0480    6.9730 ca        1 3D6      0.459200
     21 N19        -2.4940    4.7420    5.9560 nb        1 3D6     -0.646000
     22 H1         -0.1400   -1.2120    0.3190 hx        1 3D6      0.095200
     23 H2         -0.5510    0.2580   -0.7300 hx        1 3D6      0.095200
     24 H3         -0.9110    0.1730    4.7640 ha        1 3D6      0.178000
     25 H4         -3.5940    2.1230    7.8400 ha        1 3D6      0.176000
     26 H5         -1.5670    4.6570    4.1060 h4        1 3D6      0.021100
     27 H6         -2.0390    3.5490    2.2760 ha        1 3D6      0.178000
     28 H7         -1.1360    2.3870    0.2860 ha        1 3D6      0.135000
     29 H8          2.5040   -2.6960   -2.9130 hn        1 3D6      0.498800
     30 H9          2.0820   -3.9100   -1.8350 hn        1 3D6      0.498800
     31 H10         1.3740   -0.2660   -2.0710 hx        1 3D6      0.137700
     32 H11         4.1520   -0.1480   -0.6250 hc        1 3D6      0.097200
     33 H12         3.8930   -0.6630   -2.3420 hc        1 3D6      0.097200
     34 H13         2.8310    1.5960   -2.8400 hc        1 3D6      0.070700
     35 H14         3.2250    2.1250   -1.1500 hc        1 3D6      0.070700
     36 H15         5.6630    1.6180   -1.5640 hc        1 3D6      0.084700
     37 H16         5.2640    1.1490   -3.2710 hc        1 3D6      0.084700
     38 H17         4.2980    3.4550   -3.6950 hx        1 3D6      0.122200
     39 H18         4.6890    3.9320   -1.9670 hx        1 3D6      0.122200
     40 H19         6.3260    4.7190   -3.5260 hn        1 3D6      0.478133
     41 H20         7.0400    3.6110   -2.4980 hn        1 3D6      0.478133
     42 H22         1.6070    1.1840   -0.0810 hn        1 3D6      0.468800
     43 H24        -0.0210   -0.9990    2.7750 ha        1 3D6      0.135000
     44 H25        -2.6990    0.8310    5.8800 ha        1 3D6      0.146000
     45 H26        -3.4360    4.6550    7.8150 h4        1 3D6      0.059100
     46 N01         1.8930   -2.9280   -2.1190 n4        1 3D6     -0.745400
     47 H083        6.6850    3.1800   -4.0700 hn        1 3D6      0.478133
     48 H092        1.9650   -0.1370    0.8590 hn        1 3D6      0.468800
     49 H013        0.9110   -2.8700   -2.4260 hn        1 3D6      0.498800
     50 O23         2.4190   -2.5420    0.1040 o         1 3D6     -0.331100
@<TRIPOS>BOND
     1    1   15 1   
     2    1   16 1   
     3    1   22 1   
     4    1   23 1   
     5    2   17 ar  
     6    2   18 ar  
     7    2   24 1   
     8    3    5 ar  
     9    3   18 1   
    10    3   19 ar  
    11    4   19 ar  
    12    4   20 ar  
    13    4   25 1   
    14    5   21 ar  
    15    5   26 1   
    16    6    7 ar  
    17    6   18 ar  
    18    6   27 1   
    19    7   16 ar  
    20    7   28 1   
    21    8    9 1   
    22    8   46 1   
    23    8   50 2   
    24    9   10 1   
    25    9   15 1   
    26    9   31 1   
    27   10   11 1   
    28   10   32 1   
    29   10   33 1   
    30   11   12 1   
    31   11   34 1   
    32   11   35 1   
    33   12   13 1   
    34   12   36 1   
    35   12   37 1   
    36   13   14 1   
    37   13   38 1   
    38   13   39 1   
    39   14   40 1   
    40   14   41 1   
    41   14   47 1   
    42   15   42 1   
    43   15   48 1   
    44   16   17 ar  
    45   17   43 1   
    46   19   44 1   
    47   20   21 ar  
    48   20   45 1   
    49   29   46 1   
    50   30   46 1   
    51   46   49 1   
@<TRIPOS>SUBSTRUCTURE
     1 3D6         1 TEMP              0 ****  ****    0 ROOT
