@<TRIPOS>MOLECULE
3D7
   25    26     1     0     0
SMALL
bcc


@<TRIPOS>ATOM
      1 O          -0.0980    0.0390   -0.1030 o         1 3D7     -0.624500
      2 C4          1.1460   -0.0100   -0.0420 c         1 3D7      0.694700
      3 C           1.8990    0.1540    1.2110 cc        1 3D7     -0.266200
      4 N           1.0950    0.3860    2.3990 nz        1 3D7     -0.676400
      5 N1          1.9170   -0.2320   -1.1940 ns        1 3D7     -0.383100
      6 C3          3.2760   -0.2850   -1.1510 cc        1 3D7      0.075600
      7 C2          3.9940   -0.1390    0.0390 cd        1 3D7     -0.063200
      8 C1          3.2790    0.0880    1.2410 cd        1 3D7      0.054000
      9 C5          5.4240   -0.2080    0.0510 cd        1 3D7     -0.276100
     10 C7          6.3240    0.4580    0.9730 cd        1 3D7      0.313200
     11 N3          7.6080    0.1520    0.6730 nc        1 3D7     -0.473800
     12 N2          7.5810   -0.6730   -0.3880 na        1 3D7      0.116400
     13 C8          8.7700   -1.2210   -1.0070 c3        1 3D7      0.027600
     14 C6          6.2790   -0.9280   -0.8130 cc        1 3D7     -0.111300
     15 H1          1.4280   -0.3410   -2.0630 hn        1 3D7      0.373500
     16 HN1         1.2640   -0.3530    3.0880 hn        1 3D7      0.467467
     17 HN2         0.0960    0.3780    2.1260 hn        1 3D7      0.467467
     18 HA          3.8540    0.2050    2.1780 ha        1 3D7      0.169000
     19 H3          3.8000   -0.4540   -2.1150 h4        1 3D7      0.193000
     20 H7          6.0720    1.1290    1.7940 h4        1 3D7      0.045100
     21 H6          6.0570   -1.5830   -1.6560 h4        1 3D7      0.183000
     22 H81C        9.4140   -0.3870   -1.3970 h1        1 3D7      0.074700
     23 H82C        8.4590   -1.8880   -1.8520 h1        1 3D7      0.074700
     24 H83C        9.3540   -1.8120   -0.2510 h1        1 3D7      0.074700
     25 HN3         1.3270    1.2970    2.8090 hn        1 3D7      0.467467
@<TRIPOS>BOND
     1    1    2 2   
     2    2    3 1   
     3    2    5 1   
     4    3    4 1   
     5    3    8 2   
     6    4   16 1   
     7    4   17 1   
     8    4   25 1   
     9    5    6 1   
    10    5   15 1   
    11    6    7 2   
    12    6   19 1   
    13    7    8 1   
    14    7    9 1   
    15    8   18 1   
    16    9   10 1   
    17    9   14 2   
    18   10   11 2   
    19   10   20 1   
    20   11   12 1   
    21   12   13 1   
    22   12   14 1   
    23   13   22 1   
    24   13   23 1   
    25   13   24 1   
    26   14   21 1   
@<TRIPOS>SUBSTRUCTURE
     1 3D7         1 TEMP              0 ****  ****    0 ROOT
