@<TRIPOS>MOLECULE
3D7
   25    26     1     0     0
SMALL
bcc


@<TRIPOS>ATOM
      1 O          -0.1000    0.0460   -0.0710 o         1 3D7     -0.624500
      2 C4          1.1450   -0.0050   -0.0180 c         1 3D7      0.694700
      3 C           1.9070    0.1540    1.2300 cc        1 3D7     -0.265200
      4 N           1.1120    0.3820    2.4250 n4        1 3D7     -0.676400
      5 N1          1.9070   -0.2230   -1.1760 n         1 3D7     -0.383100
      6 C3          3.2670   -0.2790   -1.1430 cc        1 3D7      0.075600
      7 C2          3.9940   -0.1380    0.0420 cd        1 3D7     -0.063200
      8 C1          3.2870    0.0850    1.2500 cd        1 3D7      0.054000
      9 C5          5.4230   -0.2090    0.0440 cd        1 3D7     -0.276100
     10 C7          6.3300    0.4520    0.9620 cd        1 3D7      0.313200
     11 N3          7.6120    0.1460    0.6520 nc        1 3D7     -0.473800
     12 N2          7.5760   -0.6750   -0.4120 na        1 3D7      0.116400
     13 C8          8.7600   -1.2210   -1.0420 c3        1 3D7      0.027600
     14 C6          6.2710   -0.9270   -0.8290 cc        1 3D7     -0.111300
     15 H1          1.4120   -0.3290   -2.0430 hn        1 3D7      0.373500
     16 HN1         0.1110    0.3760    2.1590 hn        1 3D7      0.467467
     17 HN2         1.3470    1.2900    2.8360 hn        1 3D7      0.467467
     18 HA          3.8680    0.1980    2.1830 ha        1 3D7      0.169000
     19 H3          3.7840   -0.4450   -2.1120 h4        1 3D7      0.193000
     20 H7          6.0850    1.1210    1.7880 h4        1 3D7      0.045100
     21 H6          6.0420   -1.5790   -1.6720 h4        1 3D7      0.183000
     22 H81C        9.3990   -0.3870   -1.4390 h1        1 3D7      0.075033
     23 H82C        8.4430   -1.8900   -1.8830 h1        1 3D7      0.075033
     24 H83C        9.3520   -1.8110   -0.2910 h1        1 3D7      0.075033
     25 HN3         1.2840   -0.3610    3.1100 hn        1 3D7      0.467467
@<TRIPOS>BOND
     1    1    2 2   
     2    2    3 1   
     3    2    5 1   
     4    3    4 1   
     5    3    8 2   
     6    4   16 1   
     7    4   17 1   
     8    4   25 1   
     9    5    6 1   
    10    5   15 1   
    11    6    7 2   
    12    6   19 1   
    13    7    8 1   
    14    7    9 1   
    15    8   18 1   
    16    9   10 1   
    17    9   14 2   
    18   10   11 2   
    19   10   20 1   
    20   11   12 1   
    21   12   13 1   
    22   12   14 1   
    23   13   22 1   
    24   13   23 1   
    25   13   24 1   
    26   14   21 1   
@<TRIPOS>SUBSTRUCTURE
     1 3D7         1 TEMP              0 ****  ****    0 ROOT
