@<TRIPOS>MOLECULE
3D8
   25    27     1     0     0
SMALL
bcc


@<TRIPOS>ATOM
      1 C4          0.0890   -0.0090   -0.0480 ca        1 3D8      0.360200
      2 C6         -0.3260    0.0030    2.2160 ca        1 3D8      0.378200
      3 C11         4.9190    0.2050   -4.5660 cc        1 3D8     -0.189000
      4 C8          3.5100    0.6170   -1.1340 cd        1 3D8      0.740200
      5 C9          4.1580    0.5340   -2.4430 cd        1 3D8     -0.275600
      6 C10         3.8790   -0.1250   -3.6550 cc        1 3D8     -0.145000
      7 C12         5.8310    1.0620   -3.9120 cd        1 3D8     -0.111100
      8 C3          1.5030   -0.0500    0.1500 ca        1 3D8      0.021300
      9 C1          1.0450   -0.0400    2.5200 ca        1 3D8     -0.229300
     10 C2          1.9730   -0.0720    1.4800 ca        1 3D8     -0.083000
     11 N5         -0.8000    0.0120    0.9550 nb        1 3D8     -0.647000
     12 N7          2.3550   -0.1370   -0.9660 nu        1 3D8     -0.718300
     13 N13         5.3790    1.2710   -2.6130 na        1 3D8      0.209200
     14 N14         5.9160    2.0100   -1.6340 nd        1 3D8     -0.536800
     15 C15         5.2390    2.0150   -0.4800 cc        1 3D8      0.626900
     16 N16         4.0560    1.3680   -0.1530 nc        1 3D8     -0.776000
     17 H1         -0.3450   -0.0010   -1.0640 h4        1 3D8      0.021100
     18 H2         -1.0870    0.0310    3.0160 h4        1 3D8      0.026100
     19 H4          3.0290   -0.7720   -3.8560 ha        1 3D8      0.153000
     20 H5          6.7490    1.5240   -4.2780 h4        1 3D8      0.188000
     21 H6          1.3820   -0.0520    3.5650 ha        1 3D8      0.148000
     22 H7          3.0490   -0.1130    1.7070 ha        1 3D8      0.164000
     23 H8          1.9270   -0.4470   -1.8130 hn        1 3D8      0.445800
     24 H9          5.6750    2.6270    0.3370 h5        1 3D8      0.065100
     25 H3          5.0100   -0.1380   -5.5930 ha        1 3D8      0.162000
@<TRIPOS>BOND
     1    1    8 ar  
     2    1   11 ar  
     3    1   17 1   
     4    2    9 ar  
     5    2   11 ar  
     6    2   18 1   
     7    3    6 1   
     8    3    7 2   
     9    3   25 1   
    10    4    5 1   
    11    4   12 1   
    12    4   16 2   
    13    5    6 2   
    14    5   13 1   
    15    6   19 1   
    16    7   13 1   
    17    7   20 1   
    18    8   10 ar  
    19    8   12 1   
    20    9   10 ar  
    21    9   21 1   
    22   10   22 1   
    23   12   23 1   
    24   13   14 1   
    25   14   15 2   
    26   15   16 1   
    27   15   24 1   
@<TRIPOS>SUBSTRUCTURE
     1 3D8         1 TEMP              0 ****  ****    0 ROOT
