@<TRIPOS>MOLECULE
3D8
   25    27     1     0     0
SMALL
bcc


@<TRIPOS>ATOM
      1 C4          0.0950   -0.0300   -0.0400 ca        1 3D8      0.360200
      2 C6         -0.3150   -0.0180    2.2250 ca        1 3D8      0.378200
      3 C11         4.9120    0.2160   -4.5700 cc        1 3D8     -0.189000
      4 C8          3.5080    0.6210   -1.1350 cd        1 3D8      0.740200
      5 C9          4.1530    0.5410   -2.4460 cd        1 3D8     -0.275600
      6 C10         3.8760   -0.1210   -3.6570 cc        1 3D8     -0.145000
      7 C12         5.8190    1.0790   -3.9200 cd        1 3D8     -0.111100
      8 C3          1.5090   -0.0590    0.1540 ca        1 3D8      0.021300
      9 C1          1.0570   -0.0510    2.5250 ca        1 3D8     -0.229300
     10 C2          1.9820   -0.0760    1.4830 ca        1 3D8     -0.083000
     11 N5         -0.7920   -0.0130    0.9650 nb        1 3D8     -0.647000
     12 N7          2.3590   -0.1410   -0.9640 nh        1 3D8     -0.718300
     13 N13         5.3690    1.2860   -2.6200 na        1 3D8      0.209200
     14 N14         5.9030    2.0300   -1.6430 nd        1 3D8     -0.536800
     15 C15         5.2290    2.0320   -0.4880 cc        1 3D8      0.626900
     16 N16         4.0510    1.3770   -0.1570 nc        1 3D8     -0.776000
     17 H1         -0.3420   -0.0250   -1.0560 h4        1 3D8      0.021100
     18 H2         -1.0740    0.0050    3.0260 h4        1 3D8      0.026100
     19 H4          3.0300   -0.7740   -3.8550 ha        1 3D8      0.153000
     20 H5          6.7330    1.5480   -4.2890 h4        1 3D8      0.188000
     21 H6          1.3970   -0.0590    3.5700 ha        1 3D8      0.148000
     22 H7          3.0590   -0.1090    1.7070 ha        1 3D8      0.164000
     23 H8          1.9310   -0.4550   -1.8100 hn        1 3D8      0.445800
     24 H9          5.6630    2.6470    0.3280 h5        1 3D8      0.065100
     25 H3          5.0020   -0.1270   -5.5970 ha        1 3D8      0.162000
@<TRIPOS>BOND
     1    1    8 ar  
     2    1   11 ar  
     3    1   17 1   
     4    2    9 ar  
     5    2   11 ar  
     6    2   18 1   
     7    3    6 1   
     8    3    7 2   
     9    3   25 1   
    10    4    5 1   
    11    4   12 1   
    12    4   16 2   
    13    5    6 2   
    14    5   13 1   
    15    6   19 1   
    16    7   13 1   
    17    7   20 1   
    18    8   10 ar  
    19    8   12 1   
    20    9   10 ar  
    21    9   21 1   
    22   10   22 1   
    23   12   23 1   
    24   13   14 1   
    25   14   15 2   
    26   15   16 1   
    27   15   24 1   
@<TRIPOS>SUBSTRUCTURE
     1 3D8         1 TEMP              0 ****  ****    0 ROOT
