@<TRIPOS>MOLECULE
3D9
   35    38     1     0     0
SMALL
bcc


@<TRIPOS>ATOM
      1 C4          0.0090   -0.0420   -0.0280 ca        1 3D9     -0.014800
      2 C5          1.3730   -0.3740   -0.0560 ca        1 3D9     -0.123000
      3 C6          2.1240   -0.3680    1.1170 ca        1 3D9     -0.126500
      4 C7         -0.7690   -0.0470   -1.2430 cc        1 3D9     -0.083200
      5 C8         -0.2710    0.0920   -2.5740 cc        1 3D9     -0.131000
      6 C9         -1.3730    0.0320   -3.4440 cd        1 3D9     -0.275600
      7 C10        -1.5540    0.1110   -4.8950 cd        1 3D9      0.746200
      8 C12        -3.8260   -0.1610   -4.5240 cc        1 3D9      0.629900
      9 C3         -0.5830    0.2960    1.1990 ca        1 3D9     -0.123000
     10 C1          1.5270   -0.0310    2.3320 ca        1 3D9     -0.130000
     11 C2          0.1720    0.3000    2.3690 ca        1 3D9     -0.126500
     12 N11        -2.7880    0.0090   -5.4310 nc        1 3D9     -0.773000
     13 N13        -3.7790   -0.2440   -3.1900 nd        1 3D9     -0.535800
     14 N14        -2.5570   -0.1470   -2.6500 na        1 3D9      0.213200
     15 C15        -2.1790   -0.1930   -1.3150 cd        1 3D9     -0.096100
     16 N16        -0.4050    0.3150   -5.6480 nh        1 3D9     -0.730300
     17 C17        -0.3310    0.3050   -7.0510 ca        1 3D9      0.182600
     18 C18        -1.3050    0.9000   -7.8800 ca        1 3D9     -0.267300
     19 C19        -1.1000    0.8820   -9.2700 ca        1 3D9      0.410700
     20 N20        -0.0230    0.3430   -9.8720 nb        1 3D9     -0.673000
     21 C21         0.9070   -0.2110   -9.0710 ca        1 3D9      0.410700
     22 C22         0.8090   -0.2620   -7.6740 ca        1 3D9     -0.267300
     23 H1          1.8470   -0.6470   -1.0100 ha        1 3D9      0.131000
     24 H2          3.1910   -0.6310    1.0840 ha        1 3D9      0.132500
     25 H3          0.7680    0.2350   -2.8560 ha        1 3D9      0.156000
     26 H4         -4.8340   -0.2430   -4.9820 h5        1 3D9      0.067100
     27 H5         -1.6490    0.5660    1.2340 ha        1 3D9      0.131000
     28 H6          2.1210   -0.0270    3.2570 ha        1 3D9      0.132000
     29 H7         -0.3020    0.5680    3.3250 ha        1 3D9      0.132500
     30 H8         -2.9100   -0.3320   -0.5160 h4        1 3D9      0.191000
     31 H9          0.4540    0.1480   -5.1650 hn        1 3D9      0.448800
     32 H10        -2.2090    1.3730   -7.4740 ha        1 3D9      0.156000
     33 H11        -1.8500    1.3350   -9.9440 h4        1 3D9      0.025600
     34 H12         1.7840   -0.6460   -9.5840 h4        1 3D9      0.025600
     35 H13         1.6090   -0.7350   -7.0890 ha        1 3D9      0.156000
@<TRIPOS>BOND
     1    1    2 ar  
     2    1    4 1   
     3    1    9 ar  
     4    2    3 ar  
     5    2   23 1   
     6    3   10 ar  
     7    3   24 1   
     8    4    5 1   
     9    4   15 2   
    10    5    6 2   
    11    5   25 1   
    12    6    7 1   
    13    6   14 1   
    14    7   12 2   
    15    7   16 1   
    16    8   12 1   
    17    8   13 2   
    18    8   26 1   
    19    9   11 ar  
    20    9   27 1   
    21   10   11 ar  
    22   10   28 1   
    23   11   29 1   
    24   13   14 1   
    25   14   15 1   
    26   15   30 1   
    27   16   17 1   
    28   16   31 1   
    29   17   18 ar  
    30   17   22 ar  
    31   18   19 ar  
    32   18   32 1   
    33   19   20 ar  
    34   19   33 1   
    35   20   21 ar  
    36   21   22 ar  
    37   21   34 1   
    38   22   35 1   
@<TRIPOS>SUBSTRUCTURE
     1 3D9         1 TEMP              0 ****  ****    0 ROOT
