@<TRIPOS>MOLECULE
3D9
   35    38     1     0     0
SMALL
bcc


@<TRIPOS>ATOM
      1 C4          0.0050   -0.0460   -0.0280 ca        1 3D9     -0.014800
      2 C5          1.3690   -0.3810   -0.0540 ca        1 3D9     -0.123000
      3 C6          2.1190   -0.3760    1.1190 ca        1 3D9     -0.126500
      4 C7         -0.7720   -0.0490   -1.2430 cc        1 3D9     -0.083200
      5 C8         -0.2720    0.0900   -2.5740 cc        1 3D9     -0.131000
      6 C9         -1.3730    0.0330   -3.4450 cd        1 3D9     -0.275600
      7 C10        -1.5520    0.1140   -4.8960 cd        1 3D9      0.746200
      8 C12        -3.8250   -0.1530   -4.5270 cc        1 3D9      0.629900
      9 C3         -0.5880    0.2910    1.2000 ca        1 3D9     -0.123000
     10 C1          1.5210   -0.0400    2.3340 ca        1 3D9     -0.130000
     11 C2          0.1670    0.2930    2.3700 ca        1 3D9     -0.126500
     12 N11        -2.7860    0.0150   -5.4330 nc        1 3D9     -0.773000
     13 N13        -3.7800   -0.2380   -3.1940 nd        1 3D9     -0.535800
     14 N14        -2.5580   -0.1440   -2.6520 na        1 3D9      0.213200
     15 C15        -2.1820   -0.1920   -1.3170 cd        1 3D9     -0.096100
     16 N16        -0.4020    0.3160   -5.6470 nh        1 3D9     -0.730300
     17 C17        -0.3270    0.3080   -7.0510 ca        1 3D9      0.182600
     18 C18        -1.2980    0.9080   -7.8800 ca        1 3D9     -0.267300
     19 C19        -1.0920    0.8910   -9.2700 ca        1 3D9      0.410700
     20 N20        -0.0170    0.3500   -9.8710 nb        1 3D9     -0.673000
     21 C21         0.9110   -0.2090   -9.0710 ca        1 3D9      0.410700
     22 C22         0.8110   -0.2620   -7.6740 ca        1 3D9     -0.267300
     23 H1          1.8440   -0.6530   -1.0080 ha        1 3D9      0.130500
     24 H2          3.1860   -0.6410    1.0870 ha        1 3D9      0.132500
     25 H3          0.7680    0.2310   -2.8540 ha        1 3D9      0.156000
     26 H4         -4.8330   -0.2320   -4.9870 h5        1 3D9      0.067100
     27 H5         -1.6530    0.5620    1.2340 ha        1 3D9      0.130500
     28 H6          2.1150   -0.0380    3.2590 ha        1 3D9      0.132000
     29 H7         -0.3080    0.5600    3.3260 ha        1 3D9      0.132500
     30 H8         -2.9140   -0.3300   -0.5190 h4        1 3D9      0.191000
     31 H9          0.4560    0.1460   -5.1650 hn        1 3D9      0.448800
     32 H10        -2.2010    1.3830   -7.4740 ha        1 3D9      0.156000
     33 H11        -1.8400    1.3470   -9.9440 h4        1 3D9      0.025600
     34 H12         1.7870   -0.6470   -9.5840 h4        1 3D9      0.025600
     35 H13         1.6090   -0.7390   -7.0890 ha        1 3D9      0.156000
@<TRIPOS>BOND
     1    1    2 ar  
     2    1    4 1   
     3    1    9 ar  
     4    2    3 ar  
     5    2   23 1   
     6    3   10 ar  
     7    3   24 1   
     8    4    5 1   
     9    4   15 2   
    10    5    6 2   
    11    5   25 1   
    12    6    7 1   
    13    6   14 1   
    14    7   12 2   
    15    7   16 1   
    16    8   12 1   
    17    8   13 2   
    18    8   26 1   
    19    9   11 ar  
    20    9   27 1   
    21   10   11 ar  
    22   10   28 1   
    23   11   29 1   
    24   13   14 1   
    25   14   15 1   
    26   15   30 1   
    27   16   17 1   
    28   16   31 1   
    29   17   18 ar  
    30   17   22 ar  
    31   18   19 ar  
    32   18   32 1   
    33   19   20 ar  
    34   19   33 1   
    35   20   21 ar  
    36   21   22 ar  
    37   21   34 1   
    38   22   35 1   
@<TRIPOS>SUBSTRUCTURE
     1 3D9         1 TEMP              0 ****  ****    0 ROOT
