@<TRIPOS>MOLECULE
3DA
   34    30     1     0     0
SMALL
bcc


@<TRIPOS>ATOM
      1 P           1.6170    5.2190   -1.2340 p3        1 3DA      2.534000
      2 O1P         2.9110    5.9210   -1.6860 o         1 3DA     -1.160000
      3 O2P         1.3970    5.4640    0.2600 os        1 3DA     -0.820000
      4 O5'         1.7420    3.6460   -1.5010 os        1 3DA     -0.742000
      5 C5'         0.7650    2.7790   -0.9400 c3        1 3DA      0.035000
      6 C4'         0.5170    1.6120   -1.8960 c3        1 3DA      0.000000
      7 O4'         1.0700    0.2810   -1.2830 os        1 3DA     -0.291000
      8 C1'        -0.1550   -0.5130   -0.8680 c3        1 3DA      0.154000
      9 N9         -0.0100   -0.9810    0.4750 n3        1 3DA     -0.217000
     10 C4         -0.3640   -2.2730    0.8050 c1        1 3DA     -0.005000
     11 N3         -1.1150   -3.2260    0.1440 n1        1 3DA     -0.192000
     12 C2         -1.2930   -4.4600    0.6980 c1        1 3DA     -0.086000
     13 N1         -0.7310   -4.7540    1.9010 n1        1 3DA     -0.255000
     14 C6          0.0160   -3.8070    2.5610 c1        1 3DA      0.052000
     15 N6          0.2820   -4.3190    3.8720 n2        1 3DA     -0.296000
     16 C5          0.1960   -2.5670    2.0060 c1        1 3DA     -0.131000
     17 N7          0.8940   -1.4700    2.4240 n1        1 3DA     -0.320000
     18 C8          0.7620   -0.4920    1.4700 c1        1 3DA     -0.145000
     19 C2'        -1.1580    0.3400   -0.9470 c3        1 3DA      0.005000
     20 O2'        -2.3620   -0.3480   -1.3650 oh        1 3DA     -0.341000
     21 C3'        -0.7370    1.4170   -2.0450 c3        1 3DA     -0.223000
     22 O3P         0.4440    5.7740   -2.0160 o         1 3DA     -1.160000
     23 H5'1       -0.0690    3.2710   -0.8030 h1        1 3DA      0.084000
     24 H5'2        1.0950    2.4240   -0.0550 h1        1 3DA      0.084000
     25 H4'         0.9410    1.7900   -2.7660 h1        1 3DA      0.083000
     26 H1'        -0.2910   -1.2410   -1.4610 h2        1 3DA      0.092000
     27 H2         -1.8330   -5.1420    0.2240 ha        1 3DA      0.143000
     28 HN61       -0.0780   -5.1210    4.1320 hn        1 3DA      0.161500
     29 HN62        0.8450   -3.8490    4.4530 hn        1 3DA      0.161500
     30 H8          1.2360    0.3840    1.4630 DU        1 3DA      0.221000
     31 H2'1       -1.3040    0.7880   -0.0540 h1        1 3DA      0.167000
     32 HO'2       -3.0710    0.1220   -1.1140 ho        1 3DA      0.189000
     33 H3'1       -1.2340    2.2650   -1.9000 hc        1 3DA      0.109000
     34 H3'2       -0.9220    1.0650   -2.9540 hc        1 3DA      0.109000
@<TRIPOS>BOND
     1    1    2 1   
     2    1    4 1   
     3    1   22 1   
     4    4    5 1   
     5    5    6 1   
     6    5   23 1   
     7    5   24 1   
     8    6    7 1   
     9    6   21 1   
    10    6   25 1   
    11    7    8 1   
    12    8    9 1   
    13    8   19 1   
    14    8   26 1   
    15    9   10 1   
    16    9   18 1   
    17   10   16 1   
    18   11   12 1   
    19   12   27 1   
    20   13   14 1   
    21   14   16 1   
    22   15   28 1   
    23   15   29 1   
    24   17   18 1   
    25   19   20 1   
    26   19   21 1   
    27   19   31 1   
    28   20   32 1   
    29   21   33 1   
    30   21   34 1   
@<TRIPOS>SUBSTRUCTURE
     1 3DA         1 TEMP              0 ****  ****    0 ROOT
