@<TRIPOS>MOLECULE
3DA
   34    36     1     0     0
SMALL
bcc


@<TRIPOS>ATOM
      1 P           3.7210   -1.9870    2.2420 p5        1 3DA      1.425800
      2 O1P         4.9240   -1.1920    2.5740 o         1 3DA     -0.841500
      3 O2P         4.1600   -3.5090    2.6590 oh        1 3DA     -0.782400
      4 O5'         3.7140   -2.2030    0.6090 os        1 3DA     -0.585200
      5 C5'         2.5950   -2.8190    0.0450 c3        1 3DA      0.185400
      6 C4'         1.9090   -1.8540   -0.9360 c3        1 3DA      0.121100
      7 O4'         1.4820   -2.6150   -2.0810 os        1 3DA     -0.431600
      8 C1'         0.1640   -2.1680   -2.4880 c3        1 3DA      0.242800
      9 N9         -0.6050   -3.2130   -3.0870 nh        1 3DA     -0.261200
     10 C4         -0.3600   -3.7870   -4.3460 ca        1 3DA      0.389800
     11 N3          0.5820   -3.5640   -5.2960 nb        1 3DA     -0.711000
     12 C2          0.4500   -4.3720   -6.3800 ca        1 3DA      0.577900
     13 N1         -0.4660   -5.3370   -6.6450 nb        1 3DA     -0.782000
     14 C6         -1.4430   -5.5430   -5.7010 ca        1 3DA      0.575200
     15 N6         -2.4940   -6.4630   -5.9570 nh        1 3DA     -0.898500
     16 C5         -1.4380   -4.7930   -4.4970 ca        1 3DA     -0.127200
     17 N7         -2.2550   -4.7810   -3.3650 ne        1 3DA     -0.678800
     18 C8         -1.7610   -3.8460   -2.5270 c1        1 3DA      0.063400
     19 C2'        -0.4890   -1.5580   -1.2060 c3        1 3DA      0.115100
     20 O2'        -1.2650   -0.4210   -1.5470 oh        1 3DA     -0.618800
     21 C3'         0.6980   -1.1270   -0.3480 c3        1 3DA     -0.113400
     22 O3P         2.3390   -1.7270    2.6900 o         1 3DA     -0.841500
     23 H5'1        2.9420   -3.7190   -0.5370 h1        1 3DA      0.040700
     24 H5'2        1.8800   -3.1430    0.8500 h1        1 3DA      0.040700
     25 H4'         2.6700   -1.1150   -1.3110 h1        1 3DA      0.047700
     26 H1'         0.3330   -1.3530   -3.2570 h2        1 3DA      0.042700
     27 H2          1.2130   -4.2260   -7.1690 h5        1 3DA      0.007100
     28 HN61       -2.9460   -6.7200   -5.1020 hn        1 3DA      0.366300
     29 HN62       -2.1820   -7.2720   -6.4530 hn        1 3DA      0.366300
     30 H8          5.1040   -3.6000    2.6900 ho        1 3DA      0.418000
     31 H2'1       -1.1310   -2.3180   -0.6810 h1        1 3DA      0.095700
     32 HO'2       -2.0170   -0.7640   -2.0460 ho        1 3DA      0.406000
     33 H3'1        0.8370   -0.0190   -0.4040 hc        1 3DA      0.073200
     34 H3'2        0.5440   -1.3990    0.7270 hc        1 3DA      0.073200
@<TRIPOS>BOND
     1    1    2 1   
     2    1    3 1   
     3    1    4 1   
     4    1   22 1   
     5    3   30 1   
     6    4    5 1   
     7    5    6 1   
     8    5   23 1   
     9    5   24 1   
    10    6    7 1   
    11    6   21 1   
    12    6   25 1   
    13    7    8 1   
    14    8    9 1   
    15    8   19 1   
    16    8   26 1   
    17    9   10 1   
    18    9   18 2   
    19   10   11 ar  
    20   10   16 ar  
    21   11   12 ar  
    22   12   13 ar  
    23   12   27 1   
    24   13   14 ar  
    25   14   15 1   
    26   14   16 ar  
    27   15   28 1   
    28   15   29 1   
    29   16   17 1   
    30   17   18 2   
    31   19   20 1   
    32   19   21 1   
    33   19   31 1   
    34   20   32 1   
    35   21   33 1   
    36   21   34 1   
@<TRIPOS>SUBSTRUCTURE
     1 3DA         1 TEMP              0 ****  ****    0 ROOT
