@<TRIPOS>MOLECULE
3DB
   29    29     1     0     0
SMALL
bcc


@<TRIPOS>ATOM
      1 C1          0.1620    0.1310    0.2780 ca        1 3DB      0.042000
      2 C2          1.4620    0.3030   -0.1530 ca        1 3DB     -0.148500
      3 C3          2.4830    0.5660    0.7720 ca        1 3DB      0.066000
      4 C4          2.1800    0.6490    2.1390 ca        1 3DB     -0.148500
      5 C5          0.8800    0.4770    2.5740 ca        1 3DB      0.042000
      6 C6         -0.1860    0.2130    1.6610 ca        1 3DB     -0.651500
      7 S1         -1.6340    0.0650    2.1420 s4        1 3DB      1.706300
      8 O1         -1.9150    0.2290    3.4530 o         1 3DB     -0.427900
      9 O2         -2.6080   -0.1400    1.2170 o         1 3DB     -0.427900
     10 N1         -4.2670   -2.6790    1.0640 nh        1 3DB     -0.850500
     11 C7         -3.5390   -3.2200    2.0430 cc        1 3DB      0.668300
     12 S2         -3.7620   -4.7560    2.7660 ss        1 3DB      0.133200
     13 N2         -2.4170   -2.5460    2.6560 nd        1 3DB     -0.508000
     14 N3         -1.8700   -3.2170    3.5580 nd        1 3DB     -0.132000
     15 C8         -2.4260   -4.4760    3.7910 cc        1 3DB     -0.251700
     16 S3         -1.7130   -5.4910    4.8250 sy        1 3DB      1.452800
     17 O3         -2.3680   -6.6970    4.9050 o         1 3DB     -0.547300
     18 O4         -0.3510   -5.3640    4.9210 o         1 3DB     -0.547300
     19 N4         -2.2490   -4.6820    6.4490 n4        1 3DB     -0.791500
     20 H1         -0.6390   -0.0670   -0.4610 ha        1 3DB      0.175500
     21 H2          1.7010    0.2400   -1.2310 ha        1 3DB      0.196000
     22 H3          3.5250    0.7090    0.4240 ha        1 3DB      0.194000
     23 H4          2.9850    0.8590    2.8680 ha        1 3DB      0.196000
     24 H5          0.6490    0.5530    3.6550 ha        1 3DB      0.175500
     25 HN1        -4.0770   -1.7590    0.7120 hn        1 3DB      0.495300
     26 HN4        -2.7890   -3.8320    6.3170 hn        1 3DB      0.465467
     27 HN4A       -1.4310   -4.4420    7.0130 hn        1 3DB      0.465467
     28 H12        -5.0340   -3.1820    0.6670 hn        1 3DB      0.495300
     29 H43        -2.8190   -5.3270    7.0000 hn        1 3DB      0.465467
@<TRIPOS>BOND
     1    1    2 ar  
     2    1    6 ar  
     3    1   20 1   
     4    2    3 ar  
     5    2   21 1   
     6    3    4 ar  
     7    3   22 1   
     8    4    5 ar  
     9    4   23 1   
    10    5    6 ar  
    11    5   24 1   
    12    6    7 1   
    13    7    8 1   
    14    7    9 1   
    15   10   11 1   
    16   10   25 1   
    17   10   28 1   
    18   11   12 1   
    19   11   13 2   
    20   12   15 1   
    21   13   14 1   
    22   14   15 2   
    23   15   16 1   
    24   16   17 2   
    25   16   18 2   
    26   16   19 1   
    27   19   26 1   
    28   19   27 1   
    29   19   29 1   
@<TRIPOS>SUBSTRUCTURE
     1 3DB         1 TEMP              0 ****  ****    0 ROOT
