@<TRIPOS>MOLECULE
3DB
   27    28     1     0     0
SMALL
bcc


@<TRIPOS>ATOM
      1 C1         -0.1020   -0.0870    0.0150 ca        1 3DB      0.004000
      2 C2          1.2780   -0.1190   -0.1440 ca        1 3DB     -0.159500
      3 C3          2.1090    0.0020    0.9730 ca        1 3DB     -0.050000
      4 C4          1.5530    0.1640    2.2410 ca        1 3DB     -0.159500
      5 C5          0.1690    0.1970    2.3940 ca        1 3DB      0.004000
      6 C6         -0.6800    0.0670    1.2860 ca        1 3DB     -0.417500
      7 S1         -2.3310    0.1420    1.4580 sy        1 3DB      1.521200
      8 O1         -2.6830    0.7900    2.6460 o         1 3DB     -0.633300
      9 O2         -2.9200    0.6230    0.2710 o         1 3DB     -0.633300
     10 N1         -2.7970   -1.4670    1.5120 nh        1 3DB     -0.811800
     11 C7         -2.4870   -2.3790    2.4880 cc        1 3DB      0.611300
     12 S2         -3.1090   -3.9740    2.5940 ss        1 3DB      0.053200
     13 N2         -1.6120   -2.1060    3.5450 nd        1 3DB     -0.385000
     14 N3         -1.4740   -3.0990    4.3340 nd        1 3DB     -0.201000
     15 C8         -2.2000   -4.2110    3.9890 cc        1 3DB     -0.041700
     16 S3         -2.0490   -5.6240    4.9430 sy        1 3DB      1.487800
     17 O3         -3.1180   -6.4620    4.5650 o         1 3DB     -0.651800
     18 O4         -0.7530   -6.1280    4.7730 o         1 3DB     -0.651800
     19 N4         -2.2670   -5.0970    6.4260 n3        1 3DB     -1.016700
     20 H1         -0.7600   -0.1640   -0.8690 ha        1 3DB      0.160500
     21 H2          1.7150   -0.2390   -1.1470 ha        1 3DB      0.147000
     22 H3          3.2030   -0.0280    0.8490 ha        1 3DB      0.141000
     23 H4          2.2040    0.2630    3.1230 ha        1 3DB      0.147000
     24 H5         -0.2710    0.3310    3.4010 ha        1 3DB      0.160500
     25 HN1        -3.3720   -1.8250    0.7800 hn        1 3DB      0.462800
     26 HN4        -1.5640   -4.6430    6.9560 hn        1 3DB      0.456300
     27 HN4A       -3.1380   -5.1270    6.8950 hn        1 3DB      0.456300
@<TRIPOS>BOND
     1    1    2 ar  
     2    1    6 ar  
     3    1   20 1   
     4    2    3 ar  
     5    2   21 1   
     6    3    4 ar  
     7    3   22 1   
     8    4    5 ar  
     9    4   23 1   
    10    5    6 ar  
    11    5   24 1   
    12    6    7 1   
    13    7    8 2   
    14    7    9 2   
    15    7   10 1   
    16   10   11 1   
    17   10   25 1   
    18   11   12 1   
    19   11   13 2   
    20   12   15 1   
    21   13   14 1   
    22   14   15 2   
    23   15   16 1   
    24   16   17 2   
    25   16   18 2   
    26   16   19 1   
    27   19   26 1   
    28   19   27 1   
@<TRIPOS>SUBSTRUCTURE
     1 3DB         1 TEMP              0 ****  ****    0 ROOT
