@<TRIPOS>MOLECULE
3DB
   27    28     1     0     0
SMALL
bcc


@<TRIPOS>ATOM
      1 C1         -3.6580   -0.5590    1.0690 ca        1 3DB      0.004000
      2 C2         -4.0510   -1.8310    1.4640 ca        1 3DB     -0.159500
      3 C3         -3.7220   -2.9370    0.6760 ca        1 3DB     -0.050000
      4 C4         -3.0070   -2.7610   -0.5080 ca        1 3DB     -0.159500
      5 C5         -2.6150   -1.4830   -0.9000 ca        1 3DB      0.004000
      6 C6         -2.9300   -0.3630   -0.1160 ca        1 3DB     -0.417500
      7 S1         -2.4970    1.1670   -0.5980 sy        1 3DB      1.521200
      8 O1         -2.2620    1.2140   -1.9740 o         1 3DB     -0.633300
      9 O2         -3.4020    2.1130   -0.0740 o         1 3DB     -0.633300
     10 N1         -1.0790    1.4620    0.2460 nh        1 3DB     -0.811800
     11 C7          0.1160    0.8070    0.0940 cc        1 3DB      0.611300
     12 S2          1.5900    1.2370    0.8600 ss        1 3DB      0.053200
     13 N2          0.2820   -0.3100   -0.7310 nd        1 3DB     -0.385000
     14 N3          1.4790   -0.7530   -0.7200 nd        1 3DB     -0.201000
     15 C8          2.3420   -0.0530    0.0860 cc        1 3DB     -0.041700
     16 S3          3.9610   -0.5910    0.2240 sy        1 3DB      1.487800
     17 O3          4.6690    0.4690    0.8270 o         1 3DB     -0.651800
     18 O4          3.9550   -1.8190    0.8970 o         1 3DB     -0.651800
     19 N4          4.4240   -0.7680   -1.2850 n3        1 3DB     -1.016700
     20 H1         -3.9340    0.3180    1.6810 ha        1 3DB      0.160500
     21 H2         -4.6230   -1.9680    2.3940 ha        1 3DB      0.147000
     22 H3         -4.0290   -3.9470    0.9910 ha        1 3DB      0.141000
     23 H4         -2.7480   -3.6290   -1.1330 ha        1 3DB      0.147000
     24 H5         -2.0530   -1.3440   -1.8420 ha        1 3DB      0.160500
     25 HN1        -1.0670    2.1920    0.9250 hn        1 3DB      0.462800
     26 HN4         4.9190   -0.0760   -1.7910 hn        1 3DB      0.456300
     27 HN4A        4.1920   -1.5540   -1.8420 hn        1 3DB      0.456300
@<TRIPOS>BOND
     1    1    2 ar  
     2    1    6 ar  
     3    1   20 1   
     4    2    3 ar  
     5    2   21 1   
     6    3    4 ar  
     7    3   22 1   
     8    4    5 ar  
     9    4   23 1   
    10    5    6 ar  
    11    5   24 1   
    12    6    7 1   
    13    7    8 2   
    14    7    9 2   
    15    7   10 1   
    16   10   11 1   
    17   10   25 1   
    18   11   12 1   
    19   11   13 2   
    20   12   15 1   
    21   13   14 1   
    22   14   15 2   
    23   15   16 1   
    24   16   17 2   
    25   16   18 2   
    26   16   19 1   
    27   19   26 1   
    28   19   27 1   
@<TRIPOS>SUBSTRUCTURE
     1 3DB         1 TEMP              0 ****  ****    0 ROOT
