@<TRIPOS>MOLECULE
3DB
   27    28     1     0     0
SMALL
bcc


@<TRIPOS>ATOM
      1 C1         -0.1440   -0.1250   -0.0250 ca        1 3DB      0.004000
      2 C2          1.2350   -0.1520   -0.2000 ca        1 3DB     -0.159500
      3 C3          2.0790   -0.0070    0.9040 ca        1 3DB     -0.050000
      4 C4          1.5370    0.1730    2.1760 ca        1 3DB     -0.159500
      5 C5          0.1540    0.2000    2.3460 ca        1 3DB      0.004000
      6 C6         -0.7070    0.0460    1.2490 ca        1 3DB     -0.417500
      7 S1         -2.3560    0.1140    1.4400 sy        1 3DB      1.521200
      8 O1         -2.6990    0.7800    2.6210 o         1 3DB     -0.633300
      9 O2         -2.9620    0.5720    0.2520 o         1 3DB     -0.633300
     10 N1         -2.8120   -1.4960    1.5270 nu        1 3DB     -0.811800
     11 C7         -2.4850   -2.3890    2.5140 cc        1 3DB      0.611300
     12 S2         -3.0960   -3.9860    2.6540 ss        1 3DB      0.053200
     13 N2         -1.5980   -2.0940    3.5560 nd        1 3DB     -0.385000
     14 N3         -1.4450   -3.0730    4.3600 nd        1 3DB     -0.201000
     15 C8         -2.1680   -4.1950    4.0420 cc        1 3DB     -0.041700
     16 S3         -1.9980   -5.5900    5.0190 sy        1 3DB      1.487800
     17 O3         -3.0670   -6.4400    4.6670 o         1 3DB     -0.651800
     18 O4         -0.7020   -6.0890    4.8400 o         1 3DB     -0.651800
     19 N4         -2.2010   -5.0390    6.4950 n8        1 3DB     -1.016700
     20 H1         -0.8110   -0.2210   -0.9000 ha        1 3DB      0.160500
     21 H2          1.6610   -0.2860   -1.2060 ha        1 3DB      0.147000
     22 H3          3.1710   -0.0330    0.7680 ha        1 3DB      0.141000
     23 H4          2.1970    0.2910    3.0480 ha        1 3DB      0.147000
     24 H5         -0.2740    0.3480    3.3550 ha        1 3DB      0.160500
     25 HN1        -3.3930   -1.8710    0.8080 hn        1 3DB      0.462800
     26 HN4        -1.4950   -4.5720    7.0080 hn        1 3DB      0.456300
     27 HN4A       -3.0660   -5.0660    6.9750 hn        1 3DB      0.456300
@<TRIPOS>BOND
     1    1    2 ar  
     2    1    6 ar  
     3    1   20 1   
     4    2    3 ar  
     5    2   21 1   
     6    3    4 ar  
     7    3   22 1   
     8    4    5 ar  
     9    4   23 1   
    10    5    6 ar  
    11    5   24 1   
    12    6    7 1   
    13    7    8 2   
    14    7    9 2   
    15    7   10 1   
    16   10   11 1   
    17   10   25 1   
    18   11   12 1   
    19   11   13 2   
    20   12   15 1   
    21   13   14 1   
    22   14   15 2   
    23   15   16 1   
    24   16   17 2   
    25   16   18 2   
    26   16   19 1   
    27   19   26 1   
    28   19   27 1   
@<TRIPOS>SUBSTRUCTURE
     1 3DB         1 TEMP              0 ****  ****    0 ROOT
