@<TRIPOS>MOLECULE
3DB
   27    19     1     0     0
SMALL
bcc


@<TRIPOS>ATOM
      1 C1          3.2830    0.5470    2.0940 c1        1 3DB     -0.013000
      2 C2          4.6730    0.5810    2.1020 c1        1 3DB     -0.157000
      3 C3          5.3740    0.6300    0.9020 c1        1 3DB     -0.056000
      4 C4          4.6850    0.6440   -0.3060 c1        1 3DB     -0.085000
      5 C5          3.2950    0.6100   -0.3140 c1        1 3DB     -0.085000
      6 C6          2.5940    0.5610    0.8860 c1        1 3DB     -0.858000
      7 S1          0.8100    0.6210    0.8780 s4        1 3DB      2.872000
      8 O1         -0.1250    0.7320    2.4860 os        1 3DB     -0.900000
      9 O2          0.1330    1.8880    0.7950 o         1 3DB     -0.904000
     10 N1         -0.0330   -0.5440    0.1450 n2        1 3DB     -0.754000
     11 C7         -1.3340   -0.3430   -0.1660 c1        1 3DB     -0.174000
     12 S2         -2.2370   -1.3140   -0.9380 ss        1 3DB      0.680000
     13 N2         -2.1280    0.7560    0.2410 n1        1 3DB     -0.104000
     14 N3         -3.6040    0.5210   -0.2680 n1        1 3DB      0.066000
     15 C8         -3.6470   -0.7110   -0.9640 c2        1 3DB     -1.135000
     16 S3         -5.0580   -1.3850   -1.8160 s6        1 3DB      2.899000
     17 O3         -5.1850   -3.2080   -1.4610 o         1 3DB     -0.931000
     18 O4         -4.5810   -1.8170   -3.5630 o         1 3DB     -0.931000
     19 N4         -6.2840   -0.3420   -1.7320 n2        1 3DB     -0.942000
     20 H1          2.7880    0.5130    2.9400 DU        1 3DB      0.187667
     21 H2          5.1590    0.5710    2.9540 DU        1 3DB      0.187667
     22 H3          6.3550    0.6540    0.9080 ha        1 3DB      0.143000
     23 H4          5.1800    0.6780   -1.1520 ha        1 3DB      0.153000
     24 H5          2.8090    0.6200   -1.1660 ha        1 3DB      0.153000
     25 HN1         0.3640   -1.3490   -0.0430 hn        1 3DB      0.254000
     26 HN4        -6.9610   -0.4780   -1.1300 DU        1 3DB      0.187667
     27 HN4A       -6.3240    0.3650   -2.3140 hn        1 3DB      0.249000
@<TRIPOS>BOND
     1    1    6 1   
     2    2    3 1   
     3    3   22 1   
     4    4    5 1   
     5    4   23 1   
     6    5   24 1   
     7    6    7 1   
     8    7    9 1   
     9    7   10 1   
    10   10   25 1   
    11   11   12 1   
    12   11   13 1   
    13   12   15 1   
    14   14   15 1   
    15   15   16 1   
    16   16   17 1   
    17   16   18 1   
    18   16   19 1   
    19   19   27 1   
@<TRIPOS>SUBSTRUCTURE
     1 3DB         1 TEMP              0 ****  ****    0 ROOT
