@<TRIPOS>MOLECULE
3DC
   32    35     1     0     0
SMALL
bcc


@<TRIPOS>ATOM
      1 C4         -0.2710   -0.0260    0.2690 ca        1 3DC      0.410200
      2 C5          1.1100   -0.0070    0.0090 ca        1 3DC     -0.267300
      3 C6          2.0000   -0.0330    1.1030 ca        1 3DC      0.182600
      4 C11         7.8070    0.2060    0.5940 cc        1 3DC     -0.037200
      5 C8          4.1370    0.6480    0.0330 cd        1 3DC      0.744200
      6 C9          5.5940    0.5520    0.1500 cd        1 3DC     -0.271600
      7 C10         6.4790   -0.1060    1.0200 cc        1 3DC     -0.136000
      8 C12         7.7160    1.0550   -0.5400 cd        1 3DC     -0.110100
      9 N3         -0.8100   -0.0800    1.5010 nb        1 3DC     -0.673000
     10 C1          1.4420   -0.0930    2.4050 ca        1 3DC     -0.267300
     11 C2          0.0470   -0.1160    2.5390 ca        1 3DC      0.410200
     12 N7          3.3970   -0.0750    0.9580 nh        1 3DC     -0.729300
     13 N13         6.3730    1.2710   -0.8190 na        1 3DC      0.214200
     14 N14         5.8160    2.0040   -1.7920 nd        1 3DC     -0.535800
     15 C15         4.4790    2.0210   -1.8040 cc        1 3DC      0.627900
     16 N16         3.5840    1.3920   -0.9490 nc        1 3DC     -0.772000
     17 C17         9.0120   -0.2490    1.1920 cc        1 3DC     -0.189100
     18 C18        10.3410    0.0420    0.8230 cd        1 3DC     -0.139300
     19 N19        11.1550   -0.6470    1.7220 na        1 3DC     -0.019600
     20 N21        10.4530   -1.3420    2.6180 nd        1 3DC     -0.511800
     21 C22         9.1430   -1.1330    2.3380 cc        1 3DC      0.306200
     22 H1         -0.9910    0.0000   -0.5700 h4        1 3DC      0.025100
     23 H2          1.4620    0.0250   -1.0310 ha        1 3DC      0.156000
     24 H3          6.2130   -0.7420    1.8600 ha        1 3DC      0.155000
     25 H4          8.5080    1.5020   -1.1430 h4        1 3DC      0.186000
     26 H5          2.0760   -0.1220    3.3010 ha        1 3DC      0.156000
     27 H6         -0.4150   -0.1620    3.5420 h4        1 3DC      0.025100
     28 H7          3.9080   -0.3880    1.7580 hn        1 3DC      0.448800
     29 H8          4.0070    2.6270   -2.6060 h5        1 3DC      0.066100
     30 H9         10.7420    0.6610    0.0230 h4        1 3DC      0.178000
     31 H20        12.1470   -0.6590    1.7420 hn        1 3DC      0.322700
     32 H10         8.3400   -1.5870    2.9190 h4        1 3DC      0.042100
@<TRIPOS>BOND
     1    1    2 ar  
     2    1    9 ar  
     3    1   22 1   
     4    2    3 ar  
     5    2   23 1   
     6    3   10 ar  
     7    3   12 1   
     8    4    7 1   
     9    4    8 2   
    10    4   17 1   
    11    5    6 1   
    12    5   12 1   
    13    5   16 2   
    14    6    7 2   
    15    6   13 1   
    16    7   24 1   
    17    8   13 1   
    18    8   25 1   
    19    9   11 ar  
    20   10   11 ar  
    21   10   26 1   
    22   11   27 1   
    23   12   28 1   
    24   13   14 1   
    25   14   15 2   
    26   15   16 1   
    27   15   29 1   
    28   17   18 2   
    29   17   21 1   
    30   18   19 1   
    31   18   30 1   
    32   19   20 1   
    33   19   31 1   
    34   20   21 2   
    35   21   32 1   
@<TRIPOS>SUBSTRUCTURE
     1 3DC         1 TEMP              0 ****  ****    0 ROOT
