@<TRIPOS>MOLECULE
3DC
   32    35     1     0     0
SMALL
bcc


@<TRIPOS>ATOM
      1 C4         -0.2710   -0.0240    0.2780 ca        1 3DC      0.410200
      2 C5          1.1090   -0.0070    0.0150 ca        1 3DC     -0.267300
      3 C6          2.0000   -0.0290    1.1090 ca        1 3DC      0.182600
      4 C11         7.8070    0.2030    0.5900 cc        1 3DC     -0.037200
      5 C8          4.1370    0.6460    0.0320 cd        1 3DC      0.744200
      6 C9          5.5930    0.5490    0.1480 cd        1 3DC     -0.271600
      7 C10         6.4800   -0.1050    1.0200 cc        1 3DC     -0.136000
      8 C12         7.7150    1.0470   -0.5470 cd        1 3DC     -0.110100
      9 N3         -0.8090   -0.0720    1.5100 nb        1 3DC     -0.673000
     10 C1          1.4440   -0.0830    2.4110 ca        1 3DC     -0.267300
     11 C2          0.0490   -0.1040    2.5480 ca        1 3DC      0.410200
     12 N7          3.3970   -0.0720    0.9620 nh        1 3DC     -0.729300
     13 N13         6.3720    1.2630   -0.8250 na        1 3DC      0.214200
     14 N14         5.8140    1.9910   -1.8010 nd        1 3DC     -0.535800
     15 C15         4.4770    2.0100   -1.8110 cc        1 3DC      0.627900
     16 N16         3.5830    1.3850   -0.9520 nc        1 3DC     -0.772000
     17 C17         9.0120   -0.2500    1.1890 cc        1 3DC     -0.189100
     18 C18        10.3410    0.0350    0.8140 cd        1 3DC     -0.139300
     19 N19        11.1560   -0.6490    1.7160 na        1 3DC     -0.019600
     20 N21        10.4550   -1.3350    2.6200 nd        1 3DC     -0.511800
     21 C22         9.1440   -1.1250    2.3420 cc        1 3DC      0.306200
     22 H1         -0.9920   -0.0010   -0.5600 h4        1 3DC      0.025100
     23 H2          1.4600    0.0200   -1.0250 ha        1 3DC      0.156000
     24 H3          6.2140   -0.7370    1.8630 ha        1 3DC      0.155000
     25 H4          8.5060    1.4900   -1.1540 h4        1 3DC      0.186000
     26 H5          2.0790   -0.1080    3.3070 ha        1 3DC      0.156000
     27 H6         -0.4110   -0.1450    3.5520 h4        1 3DC      0.025100
     28 H7          3.9090   -0.3820    1.7620 hn        1 3DC      0.448800
     29 H8          4.0050    2.6120   -2.6150 h5        1 3DC      0.066100
     30 H9         10.7420    0.6460    0.0070 h4        1 3DC      0.178000
     31 H20        12.1480   -0.6630    1.7340 hn        1 3DC      0.322700
     32 H10         8.3420   -1.5720    2.9280 h4        1 3DC      0.042100
@<TRIPOS>BOND
     1    1    2 ar  
     2    1    9 ar  
     3    1   22 1   
     4    2    3 ar  
     5    2   23 1   
     6    3   10 ar  
     7    3   12 1   
     8    4    7 1   
     9    4    8 2   
    10    4   17 1   
    11    5    6 1   
    12    5   12 1   
    13    5   16 2   
    14    6    7 2   
    15    6   13 1   
    16    7   24 1   
    17    8   13 1   
    18    8   25 1   
    19    9   11 ar  
    20   10   11 ar  
    21   10   26 1   
    22   11   27 1   
    23   12   28 1   
    24   13   14 1   
    25   14   15 2   
    26   15   16 1   
    27   15   29 1   
    28   17   18 2   
    29   17   21 1   
    30   18   19 1   
    31   18   30 1   
    32   19   20 1   
    33   19   31 1   
    34   20   21 2   
    35   21   32 1   
@<TRIPOS>SUBSTRUCTURE
     1 3DC         1 TEMP              0 ****  ****    0 ROOT
