@<TRIPOS>MOLECULE
3DD
   30    31     1     0     0
SMALL
bcc


@<TRIPOS>ATOM
      1 N9         -0.2370    0.1980    0.1890 na        1 3DD     -0.111300
      2 C8          1.0830    0.6730    0.2180 cc        1 3DD      0.522700
      3 N7          1.6540    0.6160    1.4480 nd        1 3DD     -0.644100
      4 C5          0.6560    0.1000    2.2740 ca        1 3DD     -0.015900
      5 C6          0.6080   -0.1820    3.6520 ca        1 3DD      0.437200
      6 N6          1.8200    0.1030    4.4410 n4        1 3DD     -0.801300
      7 N1         -0.4870   -0.6850    4.2730 nb        1 3DD     -0.655000
      8 C2         -1.5790   -0.9160    3.5200 ca        1 3DD      0.396200
      9 C3         -1.6870   -0.6810    2.1350 ca        1 3DD     -0.158300
     10 C4         -0.5610   -0.1680    1.4960 ca        1 3DD     -0.044200
     11 C1'        -1.1150    0.2040   -0.9590 c3        1 3DD      0.011300
     12 C2'        -1.1150    1.5360   -1.7360 c3        1 3DD      0.146100
     13 O2'         0.1780    1.6880   -2.2910 oh        1 3DD     -0.678800
     14 C3'        -2.2060    1.4790   -2.8160 c3        1 3DD     -0.030900
     15 O3'        -3.4170    1.0630   -2.2180 oh        1 3DD     -0.649800
     16 C4'        -2.3280    2.8850   -3.4780 c         1 3DD      0.901600
     17 O4A        -1.2690    3.3920   -3.9390 o         1 3DD     -0.805300
     18 O4B        -3.4740    3.4000   -3.4770 o         1 3DD     -0.805300
     19 H8          1.5600    1.0650   -0.7050 h5        1 3DD      0.137800
     20 HN61        2.5960   -0.4360    4.0440 hn        1 3DD      0.465467
     21 HN62        2.0290    1.1050    4.3530 hn        1 3DD      0.465467
     22 H2         -2.4430   -1.3220    4.0830 h4        1 3DD      0.052100
     23 H3         -2.6250   -0.8880    1.5970 ha        1 3DD      0.185000
     24 H1'1       -0.7810   -0.6200   -1.6520 h1        1 3DD      0.090700
     25 H1'2       -2.1680   -0.0000   -0.6110 h1        1 3DD      0.090700
     26 H2'        -1.3220    2.3970   -1.0410 h1        1 3DD      0.049700
     27 HO2'        0.1070    2.3220   -3.0340 ho        1 3DD      0.484000
     28 H3'        -1.9290    0.7170   -3.5930 h1        1 3DD      0.054700
     29 HO3'       -4.0720    1.7650   -2.3840 ho        1 3DD      0.445000
     30 H63         1.6900   -0.1420    5.4270 hn        1 3DD      0.465467
@<TRIPOS>BOND
     1    1    2 1   
     2    1   10 1   
     3    1   11 1   
     4    2    3 2   
     5    2   19 1   
     6    3    4 1   
     7    4    5 ar  
     8    4   10 ar  
     9    5    6 1   
    10    5    7 ar  
    11    6   20 1   
    12    6   21 1   
    13    6   30 1   
    14    7    8 ar  
    15    8    9 ar  
    16    8   22 1   
    17    9   10 ar  
    18    9   23 1   
    19   11   12 1   
    20   11   24 1   
    21   11   25 1   
    22   12   13 1   
    23   12   14 1   
    24   12   26 1   
    25   13   27 1   
    26   14   15 1   
    27   14   16 1   
    28   14   28 1   
    29   15   29 1   
    30   16   17 1   
    31   16   18 1   
@<TRIPOS>SUBSTRUCTURE
     1 3DD         1 TEMP              0 ****  ****    0 ROOT
