@<TRIPOS>MOLECULE
3DD
   29    30     1     0     0
SMALL
bcc


@<TRIPOS>ATOM
      1 N9          0.6430   -0.3850    0.4650 na        1 3DD     -0.141300
      2 C8          1.0400   -1.6600    0.0070 cc        1 3DD      0.432700
      3 N7          2.3340   -1.7170   -0.3550 nd        1 3DD     -0.595100
      4 C5          2.8320   -0.4210   -0.1330 ca        1 3DD     -0.104900
      5 C6          4.1320    0.1450   -0.3300 ca        1 3DD      0.678200
      6 N6          5.1910   -0.6850   -0.7200 nh        1 3DD     -0.923500
      7 N1          4.3510    1.4670   -0.0720 nb        1 3DD     -0.763000
      8 C2          3.3300    2.2150    0.4050 ca        1 3DD      0.423200
      9 C3          2.0290    1.7800    0.6580 ca        1 3DD     -0.283300
     10 C4          1.7720    0.4290    0.3790 ca        1 3DD     -0.022200
     11 C1'        -0.6530   -0.0150    0.9600 c3        1 3DD      0.032300
     12 C2'        -1.8430   -0.5420    0.1310 c3        1 3DD      0.141100
     13 O2'        -1.8550   -1.9530    0.2740 oh        1 3DD     -0.661800
     14 C3'        -3.1430    0.0880    0.6590 c3        1 3DD     -0.022900
     15 O3'        -2.9850    1.4930    0.7250 oh        1 3DD     -0.642800
     16 C4'        -4.3370   -0.3200   -0.2450 c         1 3DD      0.896600
     17 O4A        -4.5630   -1.5520   -0.4000 o         1 3DD     -0.821800
     18 O4B        -4.9990    0.6200   -0.7640 o         1 3DD     -0.821800
     19 H8          0.3090   -2.4830   -0.0380 h5        1 3DD      0.101800
     20 HN61        5.9710   -0.2250   -1.1320 hn        1 3DD      0.403800
     21 HN62        4.9010   -1.5100   -1.1960 hn        1 3DD      0.403800
     22 H2          3.6020    3.2700    0.5910 h4        1 3DD      0.006100
     23 H3          1.2550    2.4540    1.0410 ha        1 3DD      0.148000
     24 H1'1       -0.7570   -0.4080    2.0120 h1        1 3DD      0.072200
     25 H1'2       -0.7210    1.1110    0.9800 h1        1 3DD      0.072200
     26 H2'        -1.7130   -0.2830   -0.9560 h1        1 3DD      0.046700
     27 HO2'       -2.7470   -2.2620    0.0290 ho        1 3DD      0.464000
     28 H3'        -3.3290   -0.2710    1.7070 h1        1 3DD      0.049700
     29 HO3'       -3.6190    1.8810    0.0970 ho        1 3DD      0.434000
@<TRIPOS>BOND
     1    1    2 1   
     2    1   10 1   
     3    1   11 1   
     4    2    3 2   
     5    2   19 1   
     6    3    4 1   
     7    4    5 ar  
     8    4   10 ar  
     9    5    6 1   
    10    5    7 ar  
    11    6   20 1   
    12    6   21 1   
    13    7    8 ar  
    14    8    9 ar  
    15    8   22 1   
    16    9   10 ar  
    17    9   23 1   
    18   11   12 1   
    19   11   24 1   
    20   11   25 1   
    21   12   13 1   
    22   12   14 1   
    23   12   26 1   
    24   13   27 1   
    25   14   15 1   
    26   14   16 1   
    27   14   28 1   
    28   15   29 1   
    29   16   17 1   
    30   16   18 1   
@<TRIPOS>SUBSTRUCTURE
     1 3DD         1 TEMP              0 ****  ****    0 ROOT
