@<TRIPOS>MOLECULE
3DD
   29    30     1     0     0
SMALL
bcc


@<TRIPOS>ATOM
      1 N9         -0.2390    0.3390    0.2490 na        1 3DD     -0.141300
      2 C8          1.0860    0.8270    0.2800 cc        1 3DD      0.432700
      3 N7          1.6710    0.7040    1.4840 nd        1 3DD     -0.595100
      4 C5          0.6970    0.1070    2.3040 ca        1 3DD     -0.104900
      5 C6          0.7170   -0.2730    3.6830 ca        1 3DD      0.678200
      6 N6          1.9080   -0.1580    4.4100 nv        1 3DD     -0.923500
      7 N1         -0.3970   -0.8060    4.2650 nb        1 3DD     -0.763000
      8 C2         -1.4980   -1.0000    3.5040 ca        1 3DD      0.423200
      9 C3         -1.6390   -0.6940    2.1510 ca        1 3DD     -0.283300
     10 C4         -0.5140   -0.1220    1.5350 ca        1 3DD     -0.022200
     11 C1'        -1.1100    0.2900   -0.8920 c3        1 3DD      0.032300
     12 C2'        -1.1220    1.5660   -1.7590 c3        1 3DD      0.141100
     13 O2'         0.1580    1.6730   -2.3590 oh        1 3DD     -0.661800
     14 C3'        -2.2320    1.4440   -2.8170 c3        1 3DD     -0.022900
     15 O3'        -3.4460    1.0940   -2.1810 oh        1 3DD     -0.642800
     16 C4'        -2.3560    2.7720   -3.6130 c         1 3DD      0.896600
     17 O4A        -1.3270    3.1990   -4.2070 o         1 3DD     -0.821800
     18 O4B        -3.4860    3.3310   -3.6060 o         1 3DD     -0.821800
     19 H8          1.5340    1.2680   -0.6260 h5        1 3DD      0.101800
     20 HN61        2.5390    0.5190    4.0440 hn        1 3DD      0.403800
     21 HN62        1.8110   -0.1360    5.4000 hn        1 3DD      0.403800
     22 H2         -2.3470   -1.4430    4.0580 h4        1 3DD      0.006100
     23 H3         -2.5710   -0.8780    1.6070 ha        1 3DD      0.148000
     24 H1'1       -2.1630    0.1100   -0.5310 h1        1 3DD      0.072200
     25 H1'2       -0.7920   -0.5740   -1.5440 h1        1 3DD      0.072200
     26 H2'        -1.3080    2.4740   -1.1220 h1        1 3DD      0.046700
     27 HO2'        0.0710    2.2700   -3.1250 ho        1 3DD      0.464000
     28 H3'        -1.9790    0.6090   -3.5250 h1        1 3DD      0.049700
     29 HO3'       -4.0630    1.8350   -2.3150 ho        1 3DD      0.434000
@<TRIPOS>BOND
     1    1    2 1   
     2    1   10 1   
     3    1   11 1   
     4    2    3 2   
     5    2   19 1   
     6    3    4 1   
     7    4    5 ar  
     8    4   10 ar  
     9    5    6 1   
    10    5    7 ar  
    11    6   20 1   
    12    6   21 1   
    13    7    8 ar  
    14    8    9 ar  
    15    8   22 1   
    16    9   10 ar  
    17    9   23 1   
    18   11   12 1   
    19   11   24 1   
    20   11   25 1   
    21   12   13 1   
    22   12   14 1   
    23   12   26 1   
    24   13   27 1   
    25   14   15 1   
    26   14   16 1   
    27   14   28 1   
    28   15   29 1   
    29   16   17 1   
    30   16   18 1   
@<TRIPOS>SUBSTRUCTURE
     1 3DD         1 TEMP              0 ****  ****    0 ROOT
