@<TRIPOS>MOLECULE
3DD
   29    30     1     0     0
SMALL
bcc


@<TRIPOS>ATOM
      1 N9         -0.2540    0.3480    0.2460 na        1 3DD     -0.141300
      2 C8          1.0770    0.8190    0.2630 cc        1 3DD      0.432700
      3 N7          1.6730    0.6900    1.4610 nd        1 3DD     -0.595100
      4 C5          0.6990    0.1070    2.2920 ca        1 3DD     -0.104900
      5 C6          0.7290   -0.2720    3.6720 ca        1 3DD      0.678200
      6 N6          1.9280   -0.1710    4.3860 nh        1 3DD     -0.923500
      7 N1         -0.3860   -0.7900    4.2650 nb        1 3DD     -0.763000
      8 C2         -1.4970   -0.9710    3.5160 ca        1 3DD      0.423200
      9 C3         -1.6470   -0.6650    2.1630 ca        1 3DD     -0.283300
     10 C4         -0.5220   -0.1080    1.5360 ca        1 3DD     -0.022200
     11 C1'        -1.1370    0.3080   -0.8860 c3        1 3DD      0.032300
     12 C2'        -1.1390    1.5810   -1.7570 c3        1 3DD      0.141100
     13 O2'         0.1360    1.6680   -2.3700 oh        1 3DD     -0.661800
     14 C3'        -2.2620    1.4720   -2.8030 c3        1 3DD     -0.022900
     15 O3'        -3.4740    1.1430   -2.1540 oh        1 3DD     -0.642800
     16 C4'        -2.3740    2.7990   -3.6030 c         1 3DD      0.896600
     17 O4A        -1.3450    3.2090   -4.2080 o         1 3DD     -0.821800
     18 O4B        -3.4960    3.3750   -3.5860 o         1 3DD     -0.821800
     19 H8          1.5220    1.2520   -0.6480 h5        1 3DD      0.101800
     20 HN61        1.8410   -0.1470    5.3770 hn        1 3DD      0.403800
     21 HN62        2.5640    0.4980    4.0130 hn        1 3DD      0.403800
     22 H2         -2.3460   -1.4030    4.0780 h4        1 3DD      0.006100
     23 H3         -2.5870   -0.8380    1.6290 ha        1 3DD      0.148000
     24 H1'1       -0.8380   -0.5620   -1.5380 h1        1 3DD      0.072200
     25 H1'2       -2.1890    0.1440   -0.5140 h1        1 3DD      0.072200
     26 H2'        -1.3060    2.4940   -1.1210 h1        1 3DD      0.046700
     27 HO2'        0.0500    2.2630   -3.1370 ho        1 3DD      0.464000
     28 H3'        -2.0280    0.6310   -3.5100 h1        1 3DD      0.049700
     29 HO3'       -4.0810    1.8920   -2.2840 ho        1 3DD      0.434000
@<TRIPOS>BOND
     1    1    2 1   
     2    1   10 1   
     3    1   11 1   
     4    2    3 2   
     5    2   19 1   
     6    3    4 1   
     7    4    5 ar  
     8    4   10 ar  
     9    5    6 1   
    10    5    7 ar  
    11    6   20 1   
    12    6   21 1   
    13    7    8 ar  
    14    8    9 ar  
    15    8   22 1   
    16    9   10 ar  
    17    9   23 1   
    18   11   12 1   
    19   11   24 1   
    20   11   25 1   
    21   12   13 1   
    22   12   14 1   
    23   12   26 1   
    24   13   27 1   
    25   14   15 1   
    26   14   16 1   
    27   14   28 1   
    28   15   29 1   
    29   16   17 1   
    30   16   18 1   
@<TRIPOS>SUBSTRUCTURE
     1 3DD         1 TEMP              0 ****  ****    0 ROOT
