@<TRIPOS>MOLECULE
3DD
   29    25     1     0     0
SMALL
bcc


@<TRIPOS>ATOM
      1 N9          0.5060   -0.5840    0.1110 n2        1 3DD     -0.167000
      2 C8          1.8630   -0.6160    0.1640 c1        1 3DD     -0.023000
      3 N7          2.2340   -0.5720    1.4670 n2        1 3DD     -0.168000
      4 C5          1.1030   -0.5130    2.2260 c1        1 3DD     -0.180000
      5 C6          0.9020   -0.5090    3.6220 c1        1 3DD      0.159000
      6 N6          1.7800   -0.2560    4.7090 n2        1 3DD     -0.324000
      7 N1         -0.3610   -0.5130    4.1290 n2        1 3DD     -0.238000
      8 C2         -1.4450   -0.5210    3.2810 c1        1 3DD     -0.041000
      9 C3         -1.2520   -0.5250    1.9060 c1        1 3DD     -0.219000
     10 C4          0.0360   -0.5210    1.3870 c1        1 3DD      0.023000
     11 C1'        -0.0390   -0.7770   -1.2180 c2        1 3DD     -0.027000
     12 C2'        -0.4660    0.5780   -1.7940 c3        1 3DD      0.030000
     13 O2'         0.6030    1.4520   -1.7530 oh        1 3DD     -0.389000
     14 C3'        -0.9190    0.3980   -3.2380 c3        1 3DD     -0.084000
     15 O3'        -2.2980    0.6080   -3.3210 oh        1 3DD     -0.370000
     16 C4'        -0.2020    1.3960   -4.1220 c2        1 3DD      0.316000
     17 O4A         0.8120    1.0360   -4.7820 o         1 3DD     -0.556500
     18 O4B        -0.6920    2.5440   -4.3000 o         1 3DD     -0.556500
     19 H8          2.4680   -0.6720   -0.6060 DU        1 3DD      0.231000
     20 HN61        2.6830   -0.3100    4.5880 hn        1 3DD      0.200500
     21 HN62        1.4390   -0.0660    5.5420 hn        1 3DD      0.200500
     22 H2         -2.3590   -0.5240    3.6510 ha        1 3DD      0.143000
     23 H3         -2.0160   -0.6280    1.3090 ha        1 3DD      0.147000
     24 H1'1       -0.8180   -1.3730   -1.1680 ha        1 3DD      0.110500
     25 H1'2        0.6420   -1.1760   -1.7950 ha        1 3DD      0.110500
     26 H2'        -1.2050    0.9410   -1.2630 h1        1 3DD      0.087000
     27 HO2'        0.3660    2.1920   -1.3110 ho        1 3DD      0.263000
     28 H3'        -0.7090   -0.5070   -3.5340 h1        1 3DD      0.088000
     29 HO3'       -2.6560    0.0190   -3.8890 ho        1 3DD      0.233000
@<TRIPOS>BOND
     1    1    2 1   
     2    1   10 1   
     3    2    3 1   
     4    3    4 1   
     5    4    5 1   
     6    5    7 1   
     7    6   20 1   
     8    6   21 1   
     9    7    8 1   
    10    8   22 1   
    11    9   10 1   
    12    9   23 1   
    13   11   12 1   
    14   11   24 1   
    15   11   25 1   
    16   12   13 1   
    17   12   14 1   
    18   12   26 1   
    19   13   27 1   
    20   14   15 1   
    21   14   16 1   
    22   14   28 1   
    23   15   29 1   
    24   16   17 1   
    25   16   18 1   
@<TRIPOS>SUBSTRUCTURE
     1 3DD         1 TEMP              0 ****  ****    0 ROOT
