@<TRIPOS>MOLECULE
3DE
   35    36     1     0     0
SMALL
bcc


@<TRIPOS>ATOM
      1 C14         0.0760   -0.0820   -0.0030 c         1 3DE      0.676700
      2 O15         1.4370   -0.0380   -0.0010 os        1 3DE     -0.443900
      3 C16         2.0730   -0.1150    1.3000 c3        1 3DE      0.142400
      4 C17         3.5560   -0.0450    1.0370 c3        1 3DE     -0.107100
      5 C10        -0.5140   -0.0070   -1.3320 cc        1 3DE     -0.250600
      6 C11         0.1590    0.0720   -2.5900 cc        1 3DE      0.127400
      7 N13        -0.8200    0.1030   -3.5690 na        1 3DE     -0.169400
      8 C12         1.6030    0.1280   -2.8610 c3        1 3DE     -0.081800
      9 C8         -1.9200   -0.0150   -1.6140 cd        1 3DE      0.137400
     10 C9         -3.0410   -0.0680   -0.6630 c3        1 3DE     -0.089800
     11 N1         -2.0580    0.0580   -2.9950 na        1 3DE      0.018500
     12 C2         -3.2650    0.0330   -3.7730 ca        1 3DE     -0.094200
     13 C3         -3.7880    1.2370   -4.2840 ca        1 3DE     -0.095500
     14 C4         -4.9730    1.2030   -5.0150 ca        1 3DE     -0.115000
     15 C5         -5.6310   -0.0070   -5.2430 ca        1 3DE     -0.072000
     16 C6         -5.1040   -1.1970   -4.7390 ca        1 3DE     -0.115000
     17 C7         -3.9190   -1.1920   -4.0050 ca        1 3DE     -0.095500
     18 O1         -0.5320   -0.1800    1.0650 o         1 3DE     -0.514000
     19 H161        1.7090    0.7450    1.9200 h1        1 3DE      0.067200
     20 H162        1.7700   -1.0800    1.7830 h1        1 3DE      0.067200
     21 H171        3.8280    0.9190    0.5450 hc        1 3DE      0.058033
     22 H172        4.0950   -0.1190    2.0130 hc        1 3DE      0.058033
     23 H173        3.8820   -0.8850    0.3780 hc        1 3DE      0.058033
     24 H13        -0.7250    0.1500   -4.5650 hn        1 3DE      0.368700
     25 H121        1.8570   -0.0920   -3.9270 hc        1 3DE      0.105033
     26 H122        1.9860    1.1510   -2.5960 hc        1 3DE      0.105033
     27 H123        2.1270   -0.6100   -2.1930 hc        1 3DE      0.105033
     28 H91        -2.6710   -0.4680    0.3210 hc        1 3DE      0.109367
     29 H92        -3.8750   -0.7140   -1.0380 hc        1 3DE      0.109367
     30 H93        -3.4420    0.9670   -0.4910 hc        1 3DE      0.109367
     31 H3         -3.2820    2.2000   -4.1080 ha        1 3DE      0.158500
     32 H4         -5.3900    2.1420   -5.4140 ha        1 3DE      0.168500
     33 H5         -6.5690   -0.0230   -5.8240 ha        1 3DE      0.168000
     34 H6         -5.6240   -2.1520   -4.9210 ha        1 3DE      0.168500
     35 H7         -3.5150   -2.1400   -3.6150 ha        1 3DE      0.158500
@<TRIPOS>BOND
     1    1    2 1   
     2    1    5 1   
     3    1   18 2   
     4    2    3 1   
     5    3    4 1   
     6    3   19 1   
     7    3   20 1   
     8    4   21 1   
     9    4   22 1   
    10    4   23 1   
    11    5    6 1   
    12    5    9 2   
    13    6    7 2   
    14    6    8 1   
    15    7   11 1   
    16    7   24 1   
    17    8   25 1   
    18    8   26 1   
    19    8   27 1   
    20    9   10 1   
    21    9   11 1   
    22   10   28 1   
    23   10   29 1   
    24   10   30 1   
    25   11   12 1   
    26   12   13 ar  
    27   12   17 ar  
    28   13   14 ar  
    29   13   31 1   
    30   14   15 ar  
    31   14   32 1   
    32   15   16 ar  
    33   15   33 1   
    34   16   17 ar  
    35   16   34 1   
    36   17   35 1   
@<TRIPOS>SUBSTRUCTURE
     1 3DE         1 TEMP              0 ****  ****    0 ROOT
