@<TRIPOS>MOLECULE
3DE
   35    36     1     0     0
SMALL
bcc


@<TRIPOS>ATOM
      1 C14         0.0750   -0.0820   -0.0030 c         1 3DE      0.676700
      2 O15         1.4360   -0.0390   -0.0000 os        1 3DE     -0.443900
      3 C16         2.0720   -0.1150    1.3010 c3        1 3DE      0.142400
      4 C17         3.5550   -0.0480    1.0390 c3        1 3DE     -0.107100
      5 C10        -0.5140   -0.0070   -1.3320 cc        1 3DE     -0.250600
      6 C11         0.1590    0.0710   -2.5890 cc        1 3DE      0.127400
      7 N13        -0.8200    0.1020   -3.5690 na        1 3DE     -0.169400
      8 C12         1.6040    0.1270   -2.8600 c3        1 3DE     -0.081800
      9 C8         -1.9200   -0.0150   -1.6150 cd        1 3DE      0.137400
     10 C9         -3.0420   -0.0670   -0.6640 c3        1 3DE     -0.089800
     11 N1         -2.0570    0.0580   -2.9950 na        1 3DE      0.017500
     12 C2         -3.2650    0.0340   -3.7740 ca        1 3DE     -0.094200
     13 C3         -3.7910    1.2390   -4.2770 ca        1 3DE     -0.095500
     14 C4         -4.9760    1.2050   -5.0090 ca        1 3DE     -0.115000
     15 C5         -5.6290   -0.0060   -5.2450 ca        1 3DE     -0.072000
     16 C6         -5.0980   -1.1970   -4.7480 ca        1 3DE     -0.115000
     17 C7         -3.9140   -1.1920   -4.0140 ca        1 3DE     -0.095500
     18 O1         -0.5330   -0.1790    1.0660 o         1 3DE     -0.514000
     19 H161        1.7080    0.7450    1.9210 h1        1 3DE      0.067200
     20 H162        1.7680   -1.0800    1.7850 h1        1 3DE      0.067200
     21 H171        3.8270    0.9160    0.5460 hc        1 3DE      0.058033
     22 H172        4.0930   -0.1220    2.0150 hc        1 3DE      0.058033
     23 H173        3.8800   -0.8880    0.3800 hc        1 3DE      0.058033
     24 H13        -0.7240    0.1500   -4.5650 hn        1 3DE      0.368700
     25 H121        1.8580   -0.0920   -3.9260 hc        1 3DE      0.105033
     26 H122        1.9870    1.1490   -2.5930 hc        1 3DE      0.105033
     27 H123        2.1270   -0.6120   -2.1920 hc        1 3DE      0.105033
     28 H91        -2.6720   -0.4660    0.3210 hc        1 3DE      0.109367
     29 H92        -3.8750   -0.7140   -1.0390 hc        1 3DE      0.109367
     30 H93        -3.4430    0.9680   -0.4930 hc        1 3DE      0.109367
     31 H3         -3.2890    2.2030   -4.0950 ha        1 3DE      0.158500
     32 H4         -5.3970    2.1460   -5.4020 ha        1 3DE      0.168500
     33 H5         -6.5670   -0.0210   -5.8260 ha        1 3DE      0.168000
     34 H6         -5.6150   -2.1530   -4.9360 ha        1 3DE      0.168500
     35 H7         -3.5060   -2.1410   -3.6300 ha        1 3DE      0.158500
@<TRIPOS>BOND
     1    1    2 1   
     2    1    5 1   
     3    1   18 2   
     4    2    3 1   
     5    3    4 1   
     6    3   19 1   
     7    3   20 1   
     8    4   21 1   
     9    4   22 1   
    10    4   23 1   
    11    5    6 1   
    12    5    9 2   
    13    6    7 2   
    14    6    8 1   
    15    7   11 1   
    16    7   24 1   
    17    8   25 1   
    18    8   26 1   
    19    8   27 1   
    20    9   10 1   
    21    9   11 1   
    22   10   28 1   
    23   10   29 1   
    24   10   30 1   
    25   11   12 1   
    26   12   13 ar  
    27   12   17 ar  
    28   13   14 ar  
    29   13   31 1   
    30   14   15 ar  
    31   14   32 1   
    32   15   16 ar  
    33   15   33 1   
    34   16   17 ar  
    35   16   34 1   
    36   17   35 1   
@<TRIPOS>SUBSTRUCTURE
     1 3DE         1 TEMP              0 ****  ****    0 ROOT
