@<TRIPOS>MOLECULE
3DE
   35    36     1     0     0
SMALL
bcc


@<TRIPOS>ATOM
      1 C14         1.6890    0.3470    7.4380 c         1 3DE      0.676700
      2 O15         1.6470   -0.3710    8.5940 os        1 3DE     -0.443900
      3 C16         1.5950    0.4010    9.8200 c3        1 3DE      0.142400
      4 C17         1.5580   -0.6070   10.9400 c3        1 3DE     -0.107100
      5 C10         1.7350   -0.4730    6.2360 cc        1 3DE     -0.250600
      6 C11         1.7110   -1.8990    6.1430 cc        1 3DE      0.127400
      7 N13         1.7540   -2.2150    4.7950 na        1 3DE     -0.169400
      8 C12         1.6630   -2.8930    7.2250 c3        1 3DE     -0.081800
      9 C8          1.8010    0.0290    4.8940 cd        1 3DE      0.137400
     10 C9          1.8640    1.4290    4.4460 c3        1 3DE     -0.089800
     11 N1          1.8150   -1.0740    4.0480 na        1 3DE      0.018500
     12 C2          1.8270   -1.0950    2.6120 ca        1 3DE     -0.094200
     13 C3          3.0350   -1.3420    1.9310 ca        1 3DE     -0.095500
     14 C4          3.0390   -1.3350    0.5380 ca        1 3DE     -0.115000
     15 C5          1.8630   -1.0910   -0.1730 ca        1 3DE     -0.072000
     16 C6          0.6680   -0.8540    0.5080 ca        1 3DE     -0.115000
     17 C7          0.6350   -0.8560    1.9010 ca        1 3DE     -0.095500
     18 O1          1.6800    1.5790    7.4860 o         1 3DE     -0.514000
     19 H161        2.5050    1.0540    9.8630 h1        1 3DE      0.067200
     20 H162        0.6750    1.0420    9.7930 h1        1 3DE      0.067200
     21 H171        1.4980   -0.0590   11.9120 hc        1 3DE      0.058033
     22 H172        0.6690   -1.2750   10.8440 hc        1 3DE      0.058033
     23 H173        2.4790   -1.2390   10.9360 hc        1 3DE      0.058033
     24 H13         1.7470   -3.1120    4.3490 hn        1 3DE      0.368700
     25 H121        2.6720   -2.9460    7.7180 hc        1 3DE      0.105033
     26 H122        0.9270   -2.5490    8.0030 hc        1 3DE      0.105033
     27 H123        1.3760   -3.9130    6.8700 hc        1 3DE      0.105033
     28 H91         1.2540    1.5970    3.5230 hc        1 3DE      0.109367
     29 H92         1.4910    2.0970    5.2700 hc        1 3DE      0.109367
     30 H93         2.9290    1.7080    4.2250 hc        1 3DE      0.109367
     31 H3          3.9720   -1.5310    2.4780 ha        1 3DE      0.158500
     32 H4          3.9820   -1.5230   -0.0020 ha        1 3DE      0.168500
     33 H5          1.8770   -1.0880   -1.2760 ha        1 3DE      0.168000
     34 H6         -0.2610   -0.6630   -0.0550 ha        1 3DE      0.168500
     35 H7         -0.3160   -0.6680    2.4250 ha        1 3DE      0.158500
@<TRIPOS>BOND
     1    1    2 1   
     2    1    5 1   
     3    1   18 2   
     4    2    3 1   
     5    3    4 1   
     6    3   19 1   
     7    3   20 1   
     8    4   21 1   
     9    4   22 1   
    10    4   23 1   
    11    5    6 1   
    12    5    9 2   
    13    6    7 2   
    14    6    8 1   
    15    7   11 1   
    16    7   24 1   
    17    8   25 1   
    18    8   26 1   
    19    8   27 1   
    20    9   10 1   
    21    9   11 1   
    22   10   28 1   
    23   10   29 1   
    24   10   30 1   
    25   11   12 1   
    26   12   13 ar  
    27   12   17 ar  
    28   13   14 ar  
    29   13   31 1   
    30   14   15 ar  
    31   14   32 1   
    32   15   16 ar  
    33   15   33 1   
    34   16   17 ar  
    35   16   34 1   
    36   17   35 1   
@<TRIPOS>SUBSTRUCTURE
     1 3DE         1 TEMP              0 ****  ****    0 ROOT
