@<TRIPOS>MOLECULE
3DE
   35    29     1     0     0
SMALL
bcc


@<TRIPOS>ATOM
      1 C14         1.3200    0.8880    1.8360 c1        1 3DE      0.379000
      2 O15         0.6230    0.5680    3.0120 o         1 3DE     -0.281000
      3 C16         1.4540    0.1680    4.0770 c3        1 3DE     -0.009000
      4 C17         0.6160   -0.0470    5.3170 c3        1 3DE     -0.249000
      5 C10         0.5980    0.8930    0.5070 c2        1 3DE     -0.231000
      6 C11         0.1170    1.9940   -0.1400 c1        1 3DE      0.159000
      7 N13        -0.4810    1.5810   -1.2770 n2        1 3DE     -0.147000
      8 C12         0.2770    3.4300    0.3090 c2        1 3DE     -0.212500
      9 C8          0.2900   -0.2040   -0.2430 c1        1 3DE      0.168000
     10 C9          0.6730   -1.6330    0.0720 c2        1 3DE     -0.212500
     11 N1         -0.3740    0.2140   -1.3410 n3        1 3DE     -0.049000
     12 C2         -0.8350   -0.5670   -2.3280 c1        1 3DE     -0.051000
     13 C3         -2.0590   -1.2030   -2.1950 c1        1 3DE     -0.099250
     14 C4         -2.5370   -2.0070   -3.2170 c1        1 3DE     -0.099250
     15 C5         -1.7910   -2.1750   -4.3740 c1        1 3DE     -0.099250
     16 C6         -0.5680   -1.5380   -4.5070 c1        1 3DE     -0.099250
     17 C7         -0.0890   -0.7340   -3.4850 c1        1 3DE     -0.094000
     18 O1          2.5000    1.1720    1.8870 o         1 3DE     -0.324000
     19 H161        1.9070   -0.6680    3.8400 h1        1 3DE      0.116500
     20 H162        2.1210    0.8640    4.2500 h1        1 3DE      0.116500
     21 H171       -0.1590   -0.6050    5.0960 hc        1 3DE      0.098667
     22 H172        0.3080    0.8190    5.6570 hc        1 3DE      0.098667
     23 H173        1.1550   -0.4940    6.0020 hc        1 3DE      0.098667
     24 H13        -0.8870    2.1160   -1.8940 DU        1 3DE      0.319000
     25 H121       -0.0430    3.5210    1.2310 ha        1 3DE      0.146667
     26 H122        1.2230    3.6830    0.2640 ha        1 3DE      0.146667
     27 H123       -0.2460    4.0160   -0.2780 ha        1 3DE      0.146667
     28 H91         1.6000   -1.7920   -0.2040 ha        1 3DE      0.146667
     29 H92         0.5890   -1.7890    1.0360 ha        1 3DE      0.146667
     30 H93         0.0790   -2.2460   -0.4110 ha        1 3DE      0.146667
     31 H3         -2.5840   -1.0860   -1.3800 ha        1 3DE      0.165750
     32 H4         -3.3990   -2.4560   -3.1230 ha        1 3DE      0.165750
     33 H5         -2.1280   -2.7410   -5.0940 ha        1 3DE      0.165750
     34 H6         -0.0420   -1.6550   -5.3220 ha        1 3DE      0.165750
     35 H7          0.7720   -0.2850   -3.5790 ha        1 3DE      0.159000
@<TRIPOS>BOND
     1    1    5 1   
     2    1   18 1   
     3    2    3 1   
     4    3    4 1   
     5    3   19 1   
     6    3   20 1   
     7    4   21 1   
     8    4   22 1   
     9    4   23 1   
    10    5    6 1   
    11    5    9 1   
    12    6    7 1   
    13    7   11 1   
    14    8   25 1   
    15    8   26 1   
    16    8   27 1   
    17    9   11 1   
    18   10   28 1   
    19   10   29 1   
    20   10   30 1   
    21   11   12 1   
    22   12   17 1   
    23   13   14 1   
    24   13   31 1   
    25   14   32 1   
    26   15   16 1   
    27   15   33 1   
    28   16   34 1   
    29   17   35 1   
@<TRIPOS>SUBSTRUCTURE
     1 3DE         1 TEMP              0 ****  ****    0 ROOT
