@<TRIPOS>MOLECULE
3DG
   33    35     1     0     0
SMALL
bcc


@<TRIPOS>ATOM
      1 N9         -0.3170   -0.1700   -0.3050 na        1 3DG     -0.177900
      2 C1'        -1.3710   -0.0400   -1.2990 c3        1 3DG      0.246800
      3 C2'        -1.6980    1.4430   -1.6850 c3        1 3DG      0.115100
      4 C3'        -1.5440    1.4980   -3.2070 c3        1 3DG     -0.143400
      5 C4'        -0.8790    0.1840   -3.6030 c3        1 3DG      0.093100
      6 O4'        -0.9990   -0.7260   -2.4900 os        1 3DG     -0.396600
      7 C5'         0.5960    0.3500   -3.9770 c3        1 3DG      0.107400
      8 O5'         1.3610   -0.7790   -3.6160 oh        1 3DG     -0.595800
      9 O2'        -3.0210    1.6650   -1.2370 oh        1 3DG     -0.596800
     10 C8          1.0480   -0.4400   -0.4960 cc        1 3DG      0.479400
     11 N7          1.7430   -0.5420    0.6690 nd        1 3DG     -0.584000
     12 C5          0.8050   -0.3450    1.6640 cd        1 3DG      0.294800
     13 C6          0.9610   -0.3450    3.1120 c         1 3DG      0.646000
     14 O6          1.9750   -0.5070    3.7880 o         1 3DG     -0.509500
     15 N1         -0.2640   -0.1190    3.8250 n         1 3DG     -0.503400
     16 C2         -1.4660    0.0760    3.1390 cd        1 3DG      0.484800
     17 N2         -2.7010    0.2910    3.9620 n4        1 3DG     -0.793600
     18 N3         -1.6560    0.0920    1.8180 nc        1 3DG     -0.509100
     19 C4         -0.5020   -0.1180    1.0850 cc        1 3DG     -0.004200
     20 H1'        -2.2930   -0.5630   -0.8980 h2        1 3DG      0.124700
     21 H2'        -1.0140    2.1790   -1.1820 h1        1 3DG      0.068700
     22 H3'1       -0.9260    2.3760   -3.5170 hc        1 3DG      0.082700
     23 H3'2       -2.5470    1.5890   -3.6980 hc        1 3DG      0.082700
     24 H4'        -1.4320   -0.3350   -4.4350 h1        1 3DG      0.095700
     25 H5'1        1.0730    1.2000   -3.4160 h1        1 3DG      0.063700
     26 H5'2        0.6760    0.5440   -5.0800 h1        1 3DG      0.063700
     27 H5'         0.9390   -1.5580   -4.0010 ho        1 3DG      0.421000
     28 H1         -3.3570    2.4410   -1.7050 ho        1 3DG      0.426000
     29 H8          1.4770   -0.5740   -1.5100 h5        1 3DG      0.130100
     30 HN1        -0.2200   -0.1150    4.8220 hn        1 3DG      0.347500
     31 HN21       -2.5780    1.1220    4.5520 hn        1 3DG      0.480467
     32 HN22       -3.5110    0.4350    3.3390 hn        1 3DG      0.480467
     33 H23        -2.8690   -0.5350    4.5480 hn        1 3DG      0.480467
@<TRIPOS>BOND
     1    1    2 1   
     2    1   10 1   
     3    1   19 1   
     4    2    3 1   
     5    2    6 1   
     6    2   20 1   
     7    3    4 1   
     8    3    9 1   
     9    3   21 1   
    10    4    5 1   
    11    4   22 1   
    12    4   23 1   
    13    5    6 1   
    14    5    7 1   
    15    5   24 1   
    16    7    8 1   
    17    7   25 1   
    18    7   26 1   
    19    8   27 1   
    20    9   28 1   
    21   10   11 2   
    22   10   29 1   
    23   11   12 1   
    24   12   13 1   
    25   12   19 2   
    26   13   14 2   
    27   13   15 1   
    28   15   16 1   
    29   15   30 1   
    30   16   17 1   
    31   16   18 2   
    32   17   31 1   
    33   17   32 1   
    34   17   33 1   
    35   18   19 1   
@<TRIPOS>SUBSTRUCTURE
     1 3DG         1 TEMP              0 ****  ****    0 ROOT
