@<TRIPOS>MOLECULE
3DG
   33    35     1     0     0
SMALL
bcc


@<TRIPOS>ATOM
      1 N9         -0.3060   -0.1600   -0.3060 na        1 3DG     -0.177900
      2 C1'        -1.3560   -0.0490   -1.3060 c3        1 3DG      0.246800
      3 C2'        -1.7160    1.4290   -1.6850 c3        1 3DG      0.115100
      4 C3'        -1.5520    1.4970   -3.2050 c3        1 3DG     -0.143400
      5 C4'        -0.8520    0.2020   -3.6050 c3        1 3DG      0.093100
      6 O4'        -0.9590   -0.7170   -2.5000 os        1 3DG     -0.396600
      7 C5'         0.6210    0.4070   -3.9670 c3        1 3DG      0.107400
      8 O5'         1.4090   -0.7070   -3.6090 oh        1 3DG     -0.595800
      9 O2'        -3.0470    1.6160   -1.2460 oh        1 3DG     -0.596800
     10 C8          1.0660   -0.3970   -0.4890 cc        1 3DG      0.479400
     11 N7          1.7550   -0.4910    0.6810 nd        1 3DG     -0.584000
     12 C5          0.8050   -0.3210    1.6710 cd        1 3DG      0.294800
     13 C6          0.9510   -0.3280    3.1200 c         1 3DG      0.646000
     14 O6          1.9640   -0.4700    3.8020 o         1 3DG     -0.509500
     15 N1         -0.2850   -0.1350    3.8250 ns        1 3DG     -0.503400
     16 C2         -1.4860    0.0360    3.1310 cd        1 3DG      0.484800
     17 N2         -2.7310    0.2170    3.9460 nz        1 3DG     -0.793600
     18 N3         -1.6660    0.0570    1.8090 nc        1 3DG     -0.509100
     19 C4         -0.5030   -0.1210    1.0830 cc        1 3DG     -0.004200
     20 H1'        -2.2680   -0.5970   -0.9160 h2        1 3DG      0.124700
     21 H2'        -1.0520    2.1770   -1.1720 h1        1 3DG      0.068700
     22 H3'1       -0.9530    2.3930   -3.5050 hc        1 3DG      0.082700
     23 H3'2       -2.5530    1.5680   -3.7040 hc        1 3DG      0.082700
     24 H4'        -1.3870   -0.3240   -4.4450 h1        1 3DG      0.095700
     25 H5'1        1.0730    1.2630   -3.3960 h1        1 3DG      0.063700
     26 H5'2        0.7040    0.6100   -5.0680 h1        1 3DG      0.063700
     27 H5'         1.0090   -1.4930   -4.0020 ho        1 3DG      0.421000
     28 H1         -3.3980    2.3870   -1.7110 ho        1 3DG      0.426000
     29 H8          1.5050   -0.5140   -1.5000 h5        1 3DG      0.130100
     30 HN1        -0.2480   -0.1360    4.8220 hn        1 3DG      0.347500
     31 HN21       -2.6320    1.0470    4.5430 hn        1 3DG      0.480467
     32 HN22       -3.5400    0.3460    3.3190 hn        1 3DG      0.480467
     33 H23        -2.8840   -0.6160    4.5260 hn        1 3DG      0.480467
@<TRIPOS>BOND
     1    1    2 1   
     2    1   10 1   
     3    1   19 1   
     4    2    3 1   
     5    2    6 1   
     6    2   20 1   
     7    3    4 1   
     8    3    9 1   
     9    3   21 1   
    10    4    5 1   
    11    4   22 1   
    12    4   23 1   
    13    5    6 1   
    14    5    7 1   
    15    5   24 1   
    16    7    8 1   
    17    7   25 1   
    18    7   26 1   
    19    8   27 1   
    20    9   28 1   
    21   10   11 2   
    22   10   29 1   
    23   11   12 1   
    24   12   13 1   
    25   12   19 2   
    26   13   14 2   
    27   13   15 1   
    28   15   16 1   
    29   15   30 1   
    30   16   17 1   
    31   16   18 2   
    32   17   31 1   
    33   17   32 1   
    34   17   33 1   
    35   18   19 1   
@<TRIPOS>SUBSTRUCTURE
     1 3DG         1 TEMP              0 ****  ****    0 ROOT
