@<TRIPOS>MOLECULE
3DG
   32    34     1     0     0
SMALL
bcc


@<TRIPOS>ATOM
      1 N9          0.4830   -0.2580   -0.5580 na        1 3DG     -0.226900
      2 C1'         1.4940    0.7680   -0.6940 c3        1 3DG      0.222800
      3 C2'         1.6540    1.6600    0.5860 c3        1 3DG      0.121100
      4 C3'         3.0950    1.4350    1.0500 c3        1 3DG     -0.105400
      5 C4'         3.6770    0.3730    0.1240 c3        1 3DG      0.092100
      6 O4'         2.7640    0.1790   -0.9740 os        1 3DG     -0.416600
      7 C5'         3.8950   -0.9690    0.8230 c3        1 3DG      0.109400
      8 O5'         4.5370   -1.8910   -0.0310 oh        1 3DG     -0.590800
      9 O2'         1.5050    3.0200    0.2360 oh        1 3DG     -0.587800
     10 C8          0.6240   -1.6650   -0.6290 cc        1 3DG      0.412400
     11 N7         -0.5430   -2.3200   -0.4890 nd        1 3DG     -0.586000
     12 C5         -1.5010   -1.3180   -0.3180 cd        1 3DG      0.183800
     13 C6         -2.9330   -1.4060   -0.1160 c         1 3DG      0.651000
     14 O6         -3.6440   -2.4170   -0.0470 o         1 3DG     -0.591500
     15 N1         -3.5750   -0.1410    0.0070 n         1 3DG     -0.510400
     16 C2         -2.8740    1.0800   -0.0240 cd        1 3DG      0.687800
     17 N2         -3.6110    2.2560    0.2350 nh        1 3DG     -0.894800
     18 N3         -1.5380    1.1930   -0.2280 nc        1 3DG     -0.694100
     19 C4         -0.8810   -0.0180   -0.3570 cc        1 3DG      0.100800
     20 H1'         1.2400    1.4030   -1.5970 h2        1 3DG      0.104700
     21 H2'         0.9160    1.3830    1.3860 h1        1 3DG      0.071700
     22 H3'1        3.1130    1.1000    2.1150 hc        1 3DG      0.078200
     23 H3'2        3.6750    2.3900    0.9720 hc        1 3DG      0.078200
     24 H4'         4.6330    0.7090   -0.3640 h1        1 3DG      0.092700
     25 H5'1        4.5920   -0.8450    1.6940 h1        1 3DG      0.056200
     26 H5'2        2.9130   -1.3860    1.1730 h1        1 3DG      0.056200
     27 H5'         4.0160   -1.9370   -0.8440 ho        1 3DG      0.409000
     28 H1          0.5630    3.1640    0.0720 ho        1 3DG      0.421000
     29 H8          1.6070   -2.1230   -0.7940 h5        1 3DG      0.073100
     30 HN1        -4.5530   -0.1510    0.2000 hn        1 3DG      0.335500
     31 HN21       -3.1210    3.1080    0.0660 hn        1 3DG      0.422300
     32 HN22       -4.5540    2.2570   -0.0840 hn        1 3DG      0.422300
@<TRIPOS>BOND
     1    1    2 1   
     2    1   10 1   
     3    1   19 1   
     4    2    3 1   
     5    2    6 1   
     6    2   20 1   
     7    3    4 1   
     8    3    9 1   
     9    3   21 1   
    10    4    5 1   
    11    4   22 1   
    12    4   23 1   
    13    5    6 1   
    14    5    7 1   
    15    5   24 1   
    16    7    8 1   
    17    7   25 1   
    18    7   26 1   
    19    8   27 1   
    20    9   28 1   
    21   10   11 2   
    22   10   29 1   
    23   11   12 1   
    24   12   13 1   
    25   12   19 2   
    26   13   14 2   
    27   13   15 1   
    28   15   16 1   
    29   15   30 1   
    30   16   17 1   
    31   16   18 2   
    32   17   31 1   
    33   17   32 1   
    34   18   19 1   
@<TRIPOS>SUBSTRUCTURE
     1 3DG         1 TEMP              0 ****  ****    0 ROOT
