@<TRIPOS>MOLECULE
3DG
   33    35     1     0     0
SMALL
bcc


@<TRIPOS>ATOM
      1 N9         -0.3100   -0.1630   -0.3050 na        1 3DG     -0.177900
      2 C1'        -1.3650   -0.0470   -1.3010 c3        1 3DG      0.246800
      3 C2'        -1.7100    1.4320   -1.6870 c3        1 3DG      0.115100
      4 C3'        -1.5540    1.4890   -3.2090 c3        1 3DG     -0.143400
      5 C4'        -0.8710    0.1840   -3.6040 c3        1 3DG      0.093100
      6 O4'        -0.9810   -0.7270   -2.4920 os        1 3DG     -0.396600
      7 C5'         0.6020    0.3690   -3.9760 c3        1 3DG      0.107400
      8 O5'         1.3810   -0.7500   -3.6130 oh        1 3DG     -0.595800
      9 O2'        -3.0360    1.6370   -1.2420 oh        1 3DG     -0.596800
     10 C8          1.0580   -0.4150   -0.4940 cc        1 3DG      0.479400
     11 N7          1.7520   -0.5090    0.6730 nd        1 3DG     -0.584000
     12 C5          0.8090   -0.3250    1.6660 cd        1 3DG      0.294800
     13 C6          0.9630   -0.3250    3.1150 c         1 3DG      0.646000
     14 O6          1.9780   -0.4740    3.7930 o         1 3DG     -0.509500
     15 N1         -0.2670   -0.1160    3.8260 n         1 3DG     -0.503400
     16 C2         -1.4700    0.0630    3.1360 cd        1 3DG      0.484800
     17 N2         -2.7090    0.2610    3.9580 n4        1 3DG     -0.793600
     18 N3         -1.6570    0.0790    1.8160 nc        1 3DG     -0.509100
     19 C4         -0.4990   -0.1150    1.0840 cc        1 3DG     -0.004200
     20 H1'        -2.2800   -0.5820   -0.9020 h2        1 3DG      0.124700
     21 H2'        -1.0350    2.1760   -1.1830 h1        1 3DG      0.068700
     22 H3'1       -2.5570    1.5670   -3.7020 hc        1 3DG      0.082700
     23 H3'2       -0.9470    2.3750   -3.5180 hc        1 3DG      0.082700
     24 H4'        -1.4160   -0.3420   -4.4370 h1        1 3DG      0.095700
     25 H5'1        0.6810    0.5630   -5.0790 h1        1 3DG      0.063700
     26 H5'2        1.0660    1.2250   -3.4140 h1        1 3DG      0.063700
     27 H5'         0.9700   -1.5350   -3.9980 ho        1 3DG      0.421000
     28 H1         -3.3810    2.4100   -1.7090 ho        1 3DG      0.426000
     29 H8          1.4910   -0.5420   -1.5070 h5        1 3DG      0.130100
     30 HN1        -0.2250   -0.1120    4.8220 hn        1 3DG      0.347500
     31 HN21       -2.8670   -0.5670    4.5420 hn        1 3DG      0.480467
     32 HN22       -3.5200    0.3950    3.3330 hn        1 3DG      0.480467
     33 H23        -2.5990    1.0930    4.5490 hn        1 3DG      0.480467
@<TRIPOS>BOND
     1    1    2 1   
     2    1   10 1   
     3    1   19 1   
     4    2    3 1   
     5    2    6 1   
     6    2   20 1   
     7    3    4 1   
     8    3    9 1   
     9    3   21 1   
    10    4    5 1   
    11    4   22 1   
    12    4   23 1   
    13    5    6 1   
    14    5    7 1   
    15    5   24 1   
    16    7    8 1   
    17    7   25 1   
    18    7   26 1   
    19    8   27 1   
    20    9   28 1   
    21   10   11 2   
    22   10   29 1   
    23   11   12 1   
    24   12   13 1   
    25   12   19 2   
    26   13   14 2   
    27   13   15 1   
    28   15   16 1   
    29   15   30 1   
    30   16   17 1   
    31   16   18 2   
    32   17   31 1   
    33   17   32 1   
    34   17   33 1   
    35   18   19 1   
@<TRIPOS>SUBSTRUCTURE
     1 3DG         1 TEMP              0 ****  ****    0 ROOT
