@<TRIPOS>MOLECULE
3DG
   32    30     1     0     0
SMALL
bcc


@<TRIPOS>ATOM
      1 N9          0.4640    0.3890    0.4150 n2        1 3DG     -0.115500
      2 C1'        -0.3420    0.1550   -0.6870 c2        1 3DG      0.161000
      3 C2'        -0.6010    1.2860   -1.3170 c3        1 3DG      0.002000
      4 C3'        -0.6930    0.8900   -2.8460 c3        1 3DG     -0.221000
      5 C4'        -0.1180   -0.5890   -2.9420 c3        1 3DG     -0.019000
      6 O4'         0.4490   -0.8130   -1.7790 os        1 3DG     -0.272000
      7 C5'         0.9130   -0.6760   -4.0580 c3        1 3DG     -0.034000
      8 O5'         1.2350   -2.0690   -4.3150 oh        1 3DG     -0.318000
      9 O2'        -1.8890    1.8550   -0.8530 oh        1 3DG     -0.311000
     10 C8          1.7510    0.8340    0.3670 c1        1 3DG     -0.101000
     11 N7          2.2800    0.7370    1.6260 n2        1 3DG     -0.115500
     12 C5          1.3130    0.2290    2.4570 c1        1 3DG     -0.081500
     13 C6          1.3010   -0.0530    3.9430 c1        1 3DG      0.399000
     14 O6          2.2630    0.2370    4.6200 o         1 3DG     -0.321000
     15 N1          0.1090   -0.5190    4.5670 n3        1 3DG     -0.349000
     16 C2         -1.0510   -0.7190    3.8030 c2        1 3DG      0.240000
     17 N2         -2.2360   -1.2950    4.4230 n3        1 3DG     -0.331000
     18 N3         -1.0350   -0.4480    2.3560 n1        1 3DG     -0.244000
     19 C4          0.1910    0.0130    1.7120 c1        1 3DG     -0.081500
     20 H1'        -1.1790   -0.2720   -0.4060 h4        1 3DG      0.179000
     21 H2'         0.1490    1.9460   -1.1720 h1        1 3DG      0.103000
     22 H3'1       -0.1620    1.4860   -3.3780 hc        1 3DG      0.107500
     23 H3'2       -1.6170    0.9110   -3.1410 hc        1 3DG      0.107500
     24 H4'        -0.8630   -1.2470   -3.1010 h1        1 3DG      0.128000
     25 H5'1        0.5570   -0.2760   -4.8550 h1        1 3DG      0.090500
     26 H5'2        1.7670   -0.1740   -3.7760 h1        1 3DG      0.090500
     27 H5'         1.8420   -2.1240   -5.0260 ho        1 3DG      0.215000
     28 H1         -1.9080    2.7720   -1.0320 ho        1 3DG      0.211000
     29 H8          2.2040    1.1380   -0.4030 DU        1 3DG      0.198000
     30 HN1         0.0940   -0.6770    5.5070 hn        1 3DG      0.249000
     31 HN21       -2.2140   -1.5560    5.3290 hn        1 3DG      0.218000
     32 HN22       -2.9770   -1.3740    3.9620 hn        1 3DG      0.218000
@<TRIPOS>BOND
     1    1   10 1   
     2    1   19 1   
     3    2    3 1   
     4    2    6 1   
     5    2   20 1   
     6    3    4 1   
     7    3    9 1   
     8    3   21 1   
     9    4    5 1   
    10    4   22 1   
    11    4   23 1   
    12    5    6 1   
    13    5    7 1   
    14    5   24 1   
    15    7    8 1   
    16    7   25 1   
    17    7   26 1   
    18    8   27 1   
    19    9   28 1   
    20   10   11 1   
    21   11   12 1   
    22   12   19 1   
    23   13   14 1   
    24   13   15 1   
    25   15   16 1   
    26   15   30 1   
    27   16   17 1   
    28   16   18 1   
    29   17   31 1   
    30   17   32 1   
@<TRIPOS>SUBSTRUCTURE
     1 3DG         1 TEMP              0 ****  ****    0 ROOT
