@<TRIPOS>MOLECULE
3DH
   39    41     1     0     0
SMALL
bcc


@<TRIPOS>ATOM
      1 CB          0.5740   -1.0110    1.1970 c3        1 3DH     -0.092100
      2 CG          1.9690   -0.4640    1.2400 c3        1 3DH     -0.001300
      3 SD          3.0750   -1.8490    1.1070 ss        1 3DH     -0.299200
      4 C5'         4.6890   -1.1350    1.0950 c3        1 3DH     -0.053300
      5 C4'         5.0050   -0.1170    2.1720 c3        1 3DH      0.128100
      6 O4'         4.4750   -0.4930    3.4570 os        1 3DH     -0.395600
      7 C3'         6.5290    0.0600    2.3430 c3        1 3DH      0.085100
      8 O3'         6.7860    1.4500    2.3410 oh        1 3DH     -0.583800
      9 C2'         6.8710   -0.5430    3.7270 c3        1 3DH      0.089100
     10 O2'         7.4780    0.3930    4.5770 oh        1 3DH     -0.564800
     11 C1'         5.4920   -0.9910    4.3160 c3        1 3DH      0.212800
     12 N9          5.3370   -2.4360    4.4600 na        1 3DH     -0.274000
     13 C8          4.3520   -3.2540    3.8650 cc        1 3DH      0.505700
     14 N7          4.3600   -4.5290    4.3070 nd        1 3DH     -0.600100
     15 C5          5.3840   -4.5750    5.2550 ca        1 3DH     -0.129200
     16 C4          6.0250   -3.2410    5.3790 ca        1 3DH      0.449800
     17 N3          7.0470   -2.9910    6.2310 nb        1 3DH     -0.612000
     18 C2          7.4350   -4.0700    6.9630 ca        1 3DH      0.665900
     19 N1          6.9350   -5.3390    6.9440 nb        1 3DH     -0.679000
     20 C6          5.9100   -5.5760    6.0870 ca        1 3DH      0.506200
     21 N6          5.3170   -6.9240    6.0200 n4        1 3DH     -0.813300
     22 HB          0.3870   -1.7020    2.0550 hc        1 3DH      0.055367
     23 HBA        -0.1630   -0.1710    1.2580 hc        1 3DH      0.055367
     24 HBB         0.3910   -1.5680    0.2450 hc        1 3DH      0.055367
     25 HG          2.1610    0.0820    2.1970 h1        1 3DH      0.072200
     26 HGA         2.1450    0.2440    0.3940 h1        1 3DH      0.072200
     27 H5'         4.8800   -0.6450    0.1060 h1        1 3DH      0.087200
     28 H5'A        5.3700   -2.0210    1.1740 h1        1 3DH      0.087200
     29 H4'         4.5050    0.8710    1.9490 h1        1 3DH      0.120700
     30 H3'         7.1020   -0.4510    1.5260 h1        1 3DH      0.076700
     31 HO3'        7.7470    1.5640    2.3210 ho        1 3DH      0.431000
     32 H2'         7.6070   -1.3860    3.6520 h1        1 3DH      0.108700
     33 HO2'        6.9610    1.2140    4.5460 ho        1 3DH      0.430000
     34 H1'         5.3110   -0.5220    5.3320 h2        1 3DH      0.124700
     35 H8          3.6550   -2.8350    3.0870 h5        1 3DH      0.148800
     36 H2          8.2740   -3.8990    7.6770 h5        1 3DH      0.099100
     37 HN6         5.3580   -7.2500    5.0460 hn        1 3DH      0.476467
     38 HN6A        4.3330   -6.8610    6.3110 hn        1 3DH      0.476467
     39 H63         5.8170   -7.5830    6.6300 hn        1 3DH      0.476467
@<TRIPOS>BOND
     1    1    2 1   
     2    1   22 1   
     3    1   23 1   
     4    1   24 1   
     5    2    3 1   
     6    2   25 1   
     7    2   26 1   
     8    3    4 1   
     9    4    5 1   
    10    4   27 1   
    11    4   28 1   
    12    5    6 1   
    13    5    7 1   
    14    5   29 1   
    15    6   11 1   
    16    7    8 1   
    17    7    9 1   
    18    7   30 1   
    19    8   31 1   
    20    9   10 1   
    21    9   11 1   
    22    9   32 1   
    23   10   33 1   
    24   11   12 1   
    25   11   34 1   
    26   12   13 1   
    27   12   16 1   
    28   13   14 2   
    29   13   35 1   
    30   14   15 1   
    31   15   16 ar  
    32   15   20 ar  
    33   16   17 ar  
    34   17   18 ar  
    35   18   19 ar  
    36   18   36 1   
    37   19   20 ar  
    38   20   21 1   
    39   21   37 1   
    40   21   38 1   
    41   21   39 1   
@<TRIPOS>SUBSTRUCTURE
     1 3DH         1 TEMP              0 ****  ****    0 ROOT
