@<TRIPOS>MOLECULE
3DH
   38    40     1     0     0
SMALL
bcc


@<TRIPOS>ATOM
      1 CB          0.8500    0.4430   -0.4620 c3        1 3DH     -0.086100
      2 CG          2.2090    0.1140    0.0830 c3        1 3DH     -0.014300
      3 SD          1.9890   -1.1250    1.3300 ss        1 3DH     -0.283200
      4 C5'         3.6360   -1.4430    1.8690 c3        1 3DH     -0.046300
      5 C4'         4.1940   -0.3840    2.8030 c3        1 3DH      0.131100
      6 O4'         4.0440   -0.8020    4.1720 os        1 3DH     -0.399600
      7 C3'         5.6950   -0.1030    2.5700 c3        1 3DH      0.128100
      8 O3'         5.8570    1.3000    2.5670 oh        1 3DH     -0.590800
      9 C2'         6.4230   -0.8320    3.7200 c3        1 3DH      0.085100
     10 O2'         7.3250    0.0600    4.3310 oh        1 3DH     -0.598800
     11 C1'         5.2910   -1.2270    4.7250 c3        1 3DH      0.226800
     12 N9          5.2450   -2.6430    5.0180 na        1 3DH     -0.293000
     13 C8          4.1150   -3.4980    5.0270 cc        1 3DH      0.423700
     14 N7          4.3940   -4.7450    5.4330 nd        1 3DH     -0.547100
     15 C5          5.7680   -4.7390    5.7220 ca        1 3DH     -0.228200
     16 C4          6.3240   -3.4160    5.4700 ca        1 3DH      0.449800
     17 N3          7.6380   -3.0910    5.6660 nb        1 3DH     -0.767000
     18 C2          8.3670   -4.1370    6.1240 ca        1 3DH      0.691900
     19 N1          7.9910   -5.4120    6.4020 nb        1 3DH     -0.796000
     20 C6          6.6710   -5.7480    6.2010 ca        1 3DH      0.766200
     21 N6          6.2240   -7.0200    6.4340 nv        1 3DH     -0.957500
     22 HB          0.3700   -0.4620   -0.9090 hc        1 3DH      0.048033
     23 HBA         0.1830    0.8360    0.3430 hc        1 3DH      0.048033
     24 HBB         0.9380    1.2240   -1.2580 hc        1 3DH      0.048033
     25 HG          2.8780   -0.2690   -0.7260 h1        1 3DH      0.060700
     26 HGA         2.6900    1.0220    0.5200 h1        1 3DH      0.060700
     27 H5'         3.5760   -2.4260    2.4070 h1        1 3DH      0.083700
     28 H5'A        4.3040   -1.5720    0.9830 h1        1 3DH      0.083700
     29 H4'         3.5980    0.5710    2.7360 h1        1 3DH      0.114700
     30 H3'         6.0500   -0.5020    1.5810 h1        1 3DH      0.058700
     31 HO3'        6.7500    1.5030    2.8780 ho        1 3DH      0.433000
     32 H2'         6.9670   -1.7310    3.3230 h1        1 3DH      0.077700
     33 HO2'        7.8880   -0.4650    4.9180 ho        1 3DH      0.441000
     34 H1'         5.4080   -0.6600    5.6990 h2        1 3DH      0.104700
     35 H8          3.1280   -3.1200    4.7260 h5        1 3DH      0.090800
     36 H2          9.4430   -3.9240    6.3050 h5        1 3DH      0.051100
     37 HN6         6.8270   -7.7070    6.8100 hn        1 3DH      0.450800
     38 HN6A        5.2580   -7.2120    6.3360 hn        1 3DH      0.450800
@<TRIPOS>BOND
     1    1    2 1   
     2    1   22 1   
     3    1   23 1   
     4    1   24 1   
     5    2    3 1   
     6    2   25 1   
     7    2   26 1   
     8    3    4 1   
     9    4    5 1   
    10    4   27 1   
    11    4   28 1   
    12    5    6 1   
    13    5    7 1   
    14    5   29 1   
    15    6   11 1   
    16    7    8 1   
    17    7    9 1   
    18    7   30 1   
    19    8   31 1   
    20    9   10 1   
    21    9   11 1   
    22    9   32 1   
    23   10   33 1   
    24   11   12 1   
    25   11   34 1   
    26   12   13 1   
    27   12   16 1   
    28   13   14 2   
    29   13   35 1   
    30   14   15 1   
    31   15   16 ar  
    32   15   20 ar  
    33   16   17 ar  
    34   17   18 ar  
    35   18   19 ar  
    36   18   36 1   
    37   19   20 ar  
    38   20   21 1   
    39   21   37 1   
    40   21   38 1   
@<TRIPOS>SUBSTRUCTURE
     1 3DH         1 TEMP              0 ****  ****    0 ROOT
