@<TRIPOS>MOLECULE
3DH
   38    40     1     0     0
SMALL
bcc


@<TRIPOS>ATOM
      1 CB          0.6030    0.3390   -0.1280 c3        1 3DH     -0.086100
      2 CG          2.0420    0.1080    0.2280 c3        1 3DH     -0.012300
      3 SD          2.0850   -1.1910    1.4310 ss        1 3DH     -0.284200
      4 C5'         3.8100   -1.3970    1.7290 c3        1 3DH     -0.042300
      5 C4'         4.4160   -0.3610    2.6580 c3        1 3DH      0.100100
      6 O4'         4.1890   -0.7230    4.0300 os        1 3DH     -0.398600
      7 C3'         5.9420   -0.2060    2.4540 c3        1 3DH      0.126100
      8 O3'         6.2920    1.1330    2.2060 oh        1 3DH     -0.576800
      9 C2'         6.5870   -0.7970    3.7260 c3        1 3DH      0.083100
     10 O2'         7.3320    0.2150    4.3660 oh        1 3DH     -0.593800
     11 C1'         5.3860   -1.2000    4.6450 c3        1 3DH      0.222800
     12 N9          5.2960   -2.6220    4.8940 na        1 3DH     -0.294000
     13 C8          4.1640   -3.4660    4.7790 cc        1 3DH      0.422700
     14 N7          4.3900   -4.7200    5.1970 nd        1 3DH     -0.546100
     15 C5          5.7250   -4.7290    5.6270 ca        1 3DH     -0.228200
     16 C4          6.3150   -3.4080    5.4520 ca        1 3DH      0.449800
     17 N3          7.6030   -3.0960    5.7920 nb        1 3DH     -0.762000
     18 C2          8.2710   -4.1530    6.3120 ca        1 3DH      0.690900
     19 N1          7.8590   -5.4290    6.5320 nb        1 3DH     -0.796000
     20 C6          6.5660   -5.7510    6.1860 ca        1 3DH      0.766200
     21 N6          6.0870   -7.0220    6.3540 nh        1 3DH     -0.957500
     22 HB          0.0140    0.6400    0.7730 hc        1 3DH      0.048367
     23 HBA         0.5240    1.1540   -0.8890 hc        1 3DH      0.048367
     24 HBB         0.1450   -0.5870   -0.5560 hc        1 3DH      0.048367
     25 HG          2.6320   -0.1840   -0.6750 h1        1 3DH      0.059700
     26 HGA         2.5000    1.0380    0.6450 h1        1 3DH      0.059700
     27 H5'         3.9050   -2.4160    2.1860 h1        1 3DH      0.083200
     28 H5'A        4.3610   -1.3920    0.7560 h1        1 3DH      0.083200
     29 H4'         3.8980    0.6320    2.5380 h1        1 3DH      0.097700
     30 H3'         6.2930   -0.7620    1.5420 h1        1 3DH      0.092700
     31 HO3'        6.2690    1.6140    3.0440 ho        1 3DH      0.426000
     32 H2'         7.2410   -1.6700    3.4650 h1        1 3DH      0.085700
     33 HO2'        7.9220   -0.2260    4.9930 ho        1 3DH      0.435000
     34 H1'         5.4490   -0.6630    5.6420 h2        1 3DH      0.103700
     35 H8          3.2150   -3.0750    4.3860 h5        1 3DH      0.090800
     36 H2          9.3230   -3.9500    6.6100 h5        1 3DH      0.051100
     37 HN6         5.1360   -7.2050    6.1510 hn        1 3DH      0.450800
     38 HN6A        6.6430   -7.7200    6.7810 hn        1 3DH      0.450800
@<TRIPOS>BOND
     1    1    2 1   
     2    1   22 1   
     3    1   23 1   
     4    1   24 1   
     5    2    3 1   
     6    2   25 1   
     7    2   26 1   
     8    3    4 1   
     9    4    5 1   
    10    4   27 1   
    11    4   28 1   
    12    5    6 1   
    13    5    7 1   
    14    5   29 1   
    15    6   11 1   
    16    7    8 1   
    17    7    9 1   
    18    7   30 1   
    19    8   31 1   
    20    9   10 1   
    21    9   11 1   
    22    9   32 1   
    23   10   33 1   
    24   11   12 1   
    25   11   34 1   
    26   12   13 1   
    27   12   16 1   
    28   13   14 2   
    29   13   35 1   
    30   14   15 1   
    31   15   16 ar  
    32   15   20 ar  
    33   16   17 ar  
    34   17   18 ar  
    35   18   19 ar  
    36   18   36 1   
    37   19   20 ar  
    38   20   21 1   
    39   21   37 1   
    40   21   38 1   
@<TRIPOS>SUBSTRUCTURE
     1 3DH         1 TEMP              0 ****  ****    0 ROOT
