@<TRIPOS>MOLECULE
3DH
   38    40     1     0     0
SMALL
bcc


@<TRIPOS>ATOM
      1 CB          6.2610   -1.9440   -0.0830 c3        1 3DH     -0.086100
      2 CG          5.1940   -1.0330    0.4490 c3        1 3DH     -0.012300
      3 SD          3.6310   -1.7720    0.0620 ss        1 3DH     -0.284200
      4 C5'         2.4760   -0.6450    0.7700 c3        1 3DH     -0.042300
      5 C4'         2.2230    0.6010   -0.0580 c3        1 3DH      0.100100
      6 O4'         1.2590    0.3320   -1.0890 os        1 3DH     -0.398600
      7 C3'         1.6900    1.7770    0.7940 c3        1 3DH      0.126100
      8 O3'         2.4820    2.9270    0.6330 oh        1 3DH     -0.576800
      9 C2'         0.2190    1.9630    0.3620 c3        1 3DH      0.083100
     10 O2'         0.0650    3.2630   -0.1640 oh        1 3DH     -0.593800
     11 C1'        -0.0050    0.9220   -0.7840 c3        1 3DH      0.222800
     12 N9         -0.9760   -0.1000   -0.4600 na        1 3DH     -0.294000
     13 C8         -0.8550   -1.5050   -0.5970 cc        1 3DH      0.422700
     14 N7         -1.9860   -2.1670   -0.3130 nd        1 3DH     -0.546100
     15 C5         -2.9210   -1.1740    0.0170 ca        1 3DH     -0.228200
     16 C4         -2.3040    0.1430   -0.0780 ca        1 3DH      0.449800
     17 N3         -2.9640    1.3150    0.1710 nb        1 3DH     -0.762000
     18 C2         -4.2580    1.1160    0.5170 ca        1 3DH      0.690900
     19 N1         -4.9630   -0.0370    0.6470 nb        1 3DH     -0.796000
     20 C6         -4.3030   -1.2210    0.4030 ca        1 3DH      0.766200
     21 N6         -4.9400   -2.4250    0.5390 nh        1 3DH     -0.957500
     22 HB          6.1950   -2.9550    0.3910 hc        1 3DH      0.048367
     23 HBA         6.1660   -2.0660   -1.1900 hc        1 3DH      0.048367
     24 HBB         7.2710   -1.5180    0.1380 hc        1 3DH      0.048367
     25 HG          5.2970   -0.9060    1.5540 h1        1 3DH      0.059700
     26 HGA         5.2710   -0.0210   -0.0180 h1        1 3DH      0.059700
     27 H5'         1.5260   -1.2310    0.8720 h1        1 3DH      0.083200
     28 H5'A        2.8200   -0.3490    1.7920 h1        1 3DH      0.083200
     29 H4'         3.1550    0.9050   -0.6130 h1        1 3DH      0.097700
     30 H3'         1.7490    1.5480    1.8940 h1        1 3DH      0.092700
     31 HO3'        2.2620    3.3320   -0.2180 ho        1 3DH      0.426000
     32 H2'        -0.4690    1.8000    1.2320 h1        1 3DH      0.085700
     33 HO2'       -0.8850    3.4450   -0.1840 ho        1 3DH      0.435000
     34 H1'        -0.3340    1.4420   -1.7360 h2        1 3DH      0.103700
     35 H8          0.0960   -1.9540   -0.9150 h5        1 3DH      0.090800
     36 H2         -4.8410    2.0390    0.7260 h5        1 3DH      0.051100
     37 HN6        -4.4540   -3.2520    0.2990 hn        1 3DH      0.450800
     38 HN6A       -5.9040   -2.4650    0.7580 hn        1 3DH      0.450800
@<TRIPOS>BOND
     1    1    2 1   
     2    1   22 1   
     3    1   23 1   
     4    1   24 1   
     5    2    3 1   
     6    2   25 1   
     7    2   26 1   
     8    3    4 1   
     9    4    5 1   
    10    4   27 1   
    11    4   28 1   
    12    5    6 1   
    13    5    7 1   
    14    5   29 1   
    15    6   11 1   
    16    7    8 1   
    17    7    9 1   
    18    7   30 1   
    19    8   31 1   
    20    9   10 1   
    21    9   11 1   
    22    9   32 1   
    23   10   33 1   
    24   11   12 1   
    25   11   34 1   
    26   12   13 1   
    27   12   16 1   
    28   13   14 2   
    29   13   35 1   
    30   14   15 1   
    31   15   16 ar  
    32   15   20 ar  
    33   16   17 ar  
    34   17   18 ar  
    35   18   19 ar  
    36   18   36 1   
    37   19   20 ar  
    38   20   21 1   
    39   21   37 1   
    40   21   38 1   
@<TRIPOS>SUBSTRUCTURE
     1 3DH         1 TEMP              0 ****  ****    0 ROOT
