@<TRIPOS>MOLECULE
3DH
   38    36     1     0     0
SMALL
bcc


@<TRIPOS>ATOM
      1 CB         -3.9110    3.6330   -4.0860 c3        1 3DH     -0.088100
      2 CG         -2.7540    2.7140   -4.0170 c3        1 3DH     -0.003300
      3 SD         -2.4290    2.2890   -2.3100 ss        1 3DH     -0.316200
      4 C5'        -0.8690    1.4410   -2.1930 c3        1 3DH     -0.042300
      5 C4'        -0.3800    1.4520   -0.7060 c3        1 3DH      0.103100
      6 O4'        -0.6030    0.3040   -0.1480 os        1 3DH     -0.403600
      7 C3'         1.1460    1.6350   -0.6500 c3        1 3DH      0.084100
      8 O3'         1.4500    2.8470   -0.1700 oh        1 3DH     -0.598800
      9 C2'         1.6650    0.5240    0.3160 c3        1 3DH      0.125100
     10 O2'         2.5890    1.1110    1.3320 oh        1 3DH     -0.582800
     11 C1'         0.6150    0.0630    0.8850 c3        1 3DH      0.244800
     12 N9          0.7700   -1.3380    1.1460 n3        1 3DH     -0.127400
     13 C8          0.5940   -2.3090    0.2270 c1        1 3DH      0.161400
     14 N7          0.6460   -3.5070    0.8670 ne        1 3DH     -0.381400
     15 C5          0.8560   -3.2700    2.1830 cg        1 3DH     -0.197000
     16 C4          0.9330   -1.9320    2.3590 c1        1 3DH      0.358500
     17 N3          1.1890   -1.4250    3.5890 n1        1 3DH     -0.531800
     18 C2          1.3700   -2.2660    4.6510 c1        1 3DH      0.411300
     19 N1          1.2920   -3.6240    4.4740 n1        1 3DH     -0.595800
     20 C6          1.0400   -4.1250    3.2650 c1        1 3DH      0.300800
     21 N6          0.9240   -5.5650    3.5060 n3        1 3DH     -0.825400
     22 HB         -3.7310    4.4340   -3.5310 hc        1 3DH      0.049700
     23 HBA        -4.0550    3.9050   -5.0140 hc        1 3DH      0.049700
     24 HBB        -4.7110    3.1770   -3.7520 hc        1 3DH      0.049700
     25 HG         -1.9720    3.1480   -4.3970 h1        1 3DH      0.063700
     26 HGA        -2.9560    1.8920   -4.5270 h1        1 3DH      0.063700
     27 H5'        -0.9770    0.5190   -2.4930 h1        1 3DH      0.089700
     28 H5'A       -0.2050    1.8950   -2.7600 h1        1 3DH      0.089700
     29 H4'        -0.8310    2.1710   -0.2020 h1        1 3DH      0.083700
     30 H3'         1.5390    1.5150   -1.5560 h1        1 3DH      0.056700
     31 HO3'        1.9000    3.2980   -0.7760 ho        1 3DH      0.432000
     32 H2'         2.1230   -0.1910   -0.1950 h1        1 3DH      0.069700
     33 HO2'        3.4050    1.1580    0.9960 ho        1 3DH      0.436000
     34 H1'         0.4460    0.5480    1.7270 h2        1 3DH      0.146700
     35 H8          0.5290   -2.1780   -0.7320 DU        1 3DH      0.195000
     36 H2          1.5560   -1.8970    5.5450 ha        1 3DH      0.132500
     37 HN6         1.2080   -5.9240    4.3100 hn        1 3DH      0.449800
     38 HN6A        0.6000   -6.1230    2.8380 hn        1 3DH      0.449800
@<TRIPOS>BOND
     1    1    2 1   
     2    1   22 1   
     3    1   23 1   
     4    1   24 1   
     5    2    3 1   
     6    2   25 1   
     7    2   26 1   
     8    3    4 1   
     9    4    5 1   
    10    4   27 1   
    11    4   28 1   
    12    5    6 1   
    13    5    7 1   
    14    5   29 1   
    15    6   11 1   
    16    7    8 1   
    17    7    9 1   
    18    7   30 1   
    19    8   31 1   
    20    9   10 1   
    21    9   11 1   
    22    9   32 1   
    23   10   33 1   
    24   11   12 1   
    25   11   34 1   
    26   12   13 2   
    27   12   16 1   
    28   13   14 2   
    29   14   15 1   
    30   15   20 3   
    31   16   17 3   
    32   18   19 3   
    33   18   36 1   
    34   20   21 1   
    35   21   37 1   
    36   21   38 1   
@<TRIPOS>SUBSTRUCTURE
     1 3DH         1 TEMP              0 ****  ****    0 ROOT
