@<TRIPOS>MOLECULE
3DJ
   28    27     1     0     0
SMALL
bcc


@<TRIPOS>ATOM
      1 C1         -0.0850    0.2070   -0.2600 c         1 3DJ      0.598300
      2 C           4.3290    0.6820    3.6170 c1        1 3DJ      0.902000
      3 OXT         4.6050    1.7420    3.1480 o         1 3DJ     -0.453000
      4 CA          2.1740   -0.4100    0.7220 c3        1 3DJ      0.168800
      5 N           2.3010    0.6020    1.7360 n8        1 3DJ     -0.925800
      6 CB          1.3730   -0.0510   -0.5330 c3        1 3DJ     -0.216400
      7 O2         -0.4680    0.4570    0.9000 o         1 3DJ     -0.612100
      8 CD2        -0.9930    0.1430   -1.3990 ce        1 3DJ     -0.363400
      9 CE2        -0.3550    0.0890   -2.7660 c3        1 3DJ      0.001000
     10 CZ         -1.3180    0.5330   -3.8290 c2        1 3DJ     -0.112300
     11 CE1        -2.5600    0.1410   -3.5940 c1        1 3DJ     -0.163800
     12 CD1        -3.1330   -0.2910   -2.4680 cf        1 3DJ      0.073000
     13 O3         -4.2440   -1.0540   -2.2930 oh        1 3DJ     -0.482100
     14 CG         -2.3780    0.1060   -1.2310 cf        1 3DJ      0.271000
     15 N1         -3.0630    0.3390   -0.0840 nv        1 3DJ     -0.820600
     16 H2          3.2120   -0.6960    0.3880 h1        1 3DJ      0.053200
     17 H3          1.6990   -1.3150    1.1970 h1        1 3DJ      0.053200
     18 H4          2.6500    1.4580    1.3490 hn        1 3DJ      0.360800
     19 H6          1.8050    0.8670   -1.0140 hc        1 3DJ      0.066200
     20 H7          1.4720   -0.8980   -1.2610 hc        1 3DJ      0.066200
     21 H8          0.0340   -0.9470   -2.9600 hc        1 3DJ      0.064700
     22 H9          0.5190    0.7950   -2.7960 hc        1 3DJ      0.064700
     23 H10        -0.9820    1.1850   -4.6410 ha        1 3DJ      0.153000
     24 H11        -4.4370   -1.4870   -3.1420 ho        1 3DJ      0.443000
     25 H12        -4.0170    0.0680   -0.0400 hn        1 3DJ      0.450800
     26 H13        -2.5630    0.4670    0.7690 hn        1 3DJ      0.450800
     27 HN3         1.4130    0.7820    2.1670 hn        1 3DJ      0.360800
     28 O           4.0900   -0.3700    4.1170 o         1 3DJ     -0.453000
@<TRIPOS>BOND
     1    1    6 1   
     2    1    7 2   
     3    1    8 1   
     4    2    3 2   
     5    2   28 2   
     6    4    5 1   
     7    4    6 1   
     8    4   16 1   
     9    4   17 1   
    10    5   18 1   
    11    5   27 1   
    12    6   19 1   
    13    6   20 1   
    14    8    9 1   
    15    8   14 2   
    16    9   10 1   
    17    9   21 1   
    18    9   22 1   
    19   10   11 2   
    20   10   23 1   
    21   11   12 2   
    22   12   13 1   
    23   12   14 1   
    24   13   24 1   
    25   14   15 1   
    26   15   25 1   
    27   15   26 1   
@<TRIPOS>SUBSTRUCTURE
     1 3DJ         1 TEMP              0 ****  ****    0 ROOT
