@<TRIPOS>MOLECULE
3DJ
   28    28     1     0     0
SMALL
bcc


@<TRIPOS>ATOM
      1 C1         -0.0900    0.5000    0.0250 c         1 3DJ      0.607700
      2 C           3.5450   -0.3600    1.2040 c         1 3DJ      0.934600
      3 OXT         4.2890    0.4890    1.7570 o         1 3DJ     -0.757300
      4 CA          1.9670   -0.0970    1.4020 c3        1 3DJ     -0.066500
      5 N           1.7760    0.9650    2.4330 n4        1 3DJ     -0.831600
      6 CB          1.3950    0.2530    0.0410 c3        1 3DJ     -0.192400
      7 O2         -0.6550    0.9570    1.0390 o         1 3DJ     -0.632100
      8 CD2        -0.7980    0.2110   -1.2290 ca        1 3DJ     -0.249600
      9 CE2        -0.0770    0.2780   -2.4380 ca        1 3DJ     -0.073000
     10 CZ         -0.6810    0.0380   -3.6570 ca        1 3DJ     -0.160000
     11 CE1        -2.0430   -0.2820   -3.7080 ca        1 3DJ     -0.133000
     12 CD1        -2.7780   -0.3570   -2.5350 ca        1 3DJ      0.033100
     13 O3         -4.1340   -0.6360   -2.5350 oh        1 3DJ     -0.513100
     14 CG         -2.1790   -0.1220   -1.2470 ca        1 3DJ      0.236600
     15 N1         -2.9180   -0.3040   -0.1000 nh        1 3DJ     -0.835200
     16 H2          1.4980   -1.0440    1.7850 hx        1 3DJ      0.094700
     17 H3          1.6370    0.5340    3.3430 hn        1 3DJ      0.450467
     18 H4          0.9800    1.5650    2.2100 hn        1 3DJ      0.450467
     19 H6          1.6560   -0.6210   -0.6250 hc        1 3DJ      0.110700
     20 H7          1.9100    1.1590   -0.3810 hc        1 3DJ      0.110700
     21 H8          0.9940    0.5390   -2.4150 ha        1 3DJ      0.141000
     22 H9         -0.1010    0.0960   -4.5890 ha        1 3DJ      0.144000
     23 H10        -2.5280   -0.4700   -4.6780 ha        1 3DJ      0.139000
     24 H11        -4.3830   -0.8820   -3.4380 ho        1 3DJ      0.427000
     25 H12        -2.5990    0.1310    0.7350 hn        1 3DJ      0.434300
     26 H13        -3.9010   -0.3900   -0.2110 hn        1 3DJ      0.434300
     27 HN3         2.6620    1.5120    2.4580 hn        1 3DJ      0.450467
     28 O           3.8220   -1.3620    0.5270 o         1 3DJ     -0.757300
@<TRIPOS>BOND
     1    1    6 1   
     2    1    7 2   
     3    1    8 1   
     4    2    3 1   
     5    2    4 1   
     6    2   28 1   
     7    4    5 1   
     8    4    6 1   
     9    4   16 1   
    10    5   17 1   
    11    5   18 1   
    12    5   27 1   
    13    6   19 1   
    14    6   20 1   
    15    8    9 ar  
    16    8   14 ar  
    17    9   10 ar  
    18    9   21 1   
    19   10   11 ar  
    20   10   22 1   
    21   11   12 ar  
    22   11   23 1   
    23   12   13 1   
    24   12   14 ar  
    25   13   24 1   
    26   14   15 1   
    27   15   25 1   
    28   15   26 1   
@<TRIPOS>SUBSTRUCTURE
     1 3DJ         1 TEMP              0 ****  ****    0 ROOT
