@<TRIPOS>MOLECULE
3DK
   45    49     1     0     0
SMALL
bcc


@<TRIPOS>ATOM
      1 F29        -5.9130    1.6350   -2.0270 f         1 3DK     -0.134900
      2 C24        -5.8370    0.5300   -1.2480 ca        1 3DK      0.113900
      3 C23        -4.8350    0.4340   -0.2680 ca        1 3DK     -0.129000
      4 C25        -6.7620   -0.5170   -1.4250 ca        1 3DK     -0.133000
      5 C26        -6.6820   -1.6450   -0.6230 ca        1 3DK     -0.141000
      6 C27        -5.6780   -1.7460    0.3610 ca        1 3DK      0.129900
      7 F28        -5.6240   -2.8570    1.1340 f         1 3DK     -0.132900
      8 C22        -4.7490   -0.6990    0.5400 ca        1 3DK     -0.120300
      9 C21        -3.6980   -0.7900    1.6110 c3        1 3DK      0.103600
     10 N17        -2.3460   -0.5300    1.1590 na        1 3DK      0.081400
     11 C16        -1.7430    0.7380    1.1720 cc        1 3DK     -0.152300
     12 N18        -1.5780   -1.4380    0.5290 nc        1 3DK     -0.496800
     13 C19        -0.4430   -0.8040    0.1570 cd        1 3DK      0.309200
     14 C10        -0.4920    0.5970    0.5440 cd        1 3DK     -0.175100
     15 C9          0.4990    1.5920    0.3330 cd        1 3DK     -0.036400
     16 C8          0.2730    2.9730    0.2410 cc        1 3DK     -0.101100
     17 N7          1.4690    3.6540    0.0280 na        1 3DK     -0.282100
     18 C4          2.5070    2.7120   -0.0280 ca        1 3DK      0.415800
     19 N3          3.8410    2.9420   -0.2210 nb        1 3DK     -0.668000
     20 C2          4.6070    1.8500   -0.2160 ca        1 3DK      0.416200
     21 C5          1.9230    1.3910    0.1670 ca        1 3DK     -0.177100
     22 C6          2.7800    0.2910    0.1680 ca        1 3DK     -0.044000
     23 C1          4.1460    0.5110   -0.0270 ca        1 3DK     -0.129300
     24 C11         5.0810   -0.5760   -0.0370 cc        1 3DK     -0.201300
     25 C15         6.4030   -0.5890   -0.5250 cd        1 3DK     -0.136300
     26 N14         6.8980   -1.8790   -0.3120 na        1 3DK      0.087400
     27 C20         8.2270   -2.3120   -0.6660 c3        1 3DK      0.040600
     28 N13         5.9860   -2.6730    0.2760 nd        1 3DK     -0.507800
     29 C12         4.8720   -1.9250    0.4580 cc        1 3DK      0.308200
     30 H1         -4.1130    1.2570   -0.1490 ha        1 3DK      0.157000
     31 H2         -7.5400   -0.4320   -2.1980 ha        1 3DK      0.157000
     32 H3         -7.3950   -2.4740   -0.7490 ha        1 3DK      0.158000
     33 H4         -3.9330   -0.0270    2.4090 h1        1 3DK      0.083200
     34 H5         -3.7260   -1.8190    2.0780 h1        1 3DK      0.083200
     35 H6         -2.2150    1.6010    1.6380 h4        1 3DK      0.173000
     36 H7          0.3640   -1.3170   -0.3670 h4        1 3DK      0.047100
     37 H8         -0.6700    3.5180    0.3120 h4        1 3DK      0.167000
     38 H9          1.5750    4.6280   -0.0870 hn        1 3DK      0.310700
     39 H10         5.6860    2.0360   -0.3670 h4        1 3DK      0.018100
     40 H11         2.3870   -0.7250    0.3210 ha        1 3DK      0.144000
     41 H12         6.9970    0.1930   -0.9960 h4        1 3DK      0.176000
     42 H13         8.7970   -2.6010    0.2580 h1        1 3DK      0.058367
     43 H14         8.1740   -3.1990   -1.3530 h1        1 3DK      0.058367
     44 H15         8.7540   -1.4690   -1.1830 h1        1 3DK      0.058367
     45 H16         3.9730   -2.3290    0.9250 h4        1 3DK      0.045100
@<TRIPOS>BOND
     1    1    2 1   
     2    2    3 ar  
     3    2    4 ar  
     4    3    8 ar  
     5    3   30 1   
     6    4    5 ar  
     7    4   31 1   
     8    5    6 ar  
     9    5   32 1   
    10    6    7 1   
    11    6    8 ar  
    12    8    9 1   
    13    9   10 1   
    14    9   33 1   
    15    9   34 1   
    16   10   11 1   
    17   10   12 1   
    18   11   14 2   
    19   11   35 1   
    20   12   13 2   
    21   13   14 1   
    22   13   36 1   
    23   14   15 1   
    24   15   16 2   
    25   15   21 1   
    26   16   17 1   
    27   16   37 1   
    28   17   18 1   
    29   17   38 1   
    30   18   19 ar  
    31   18   21 ar  
    32   19   20 ar  
    33   20   23 ar  
    34   20   39 1   
    35   21   22 ar  
    36   22   23 ar  
    37   22   40 1   
    38   23   24 1   
    39   24   25 2   
    40   24   29 1   
    41   25   26 1   
    42   25   41 1   
    43   26   27 1   
    44   26   28 1   
    45   27   42 1   
    46   27   43 1   
    47   27   44 1   
    48   28   29 2   
    49   29   45 1   
@<TRIPOS>SUBSTRUCTURE
     1 3DK         1 TEMP              0 ****  ****    0 ROOT
