@<TRIPOS>MOLECULE
3DK
   45    49     1     0     0
SMALL
bcc


@<TRIPOS>ATOM
      1 F29        -0.1310    0.5770    0.1690 f         1 3DK     -0.136900
      2 C24         1.2080    0.3900    0.0820 ca        1 3DK      0.106900
      3 C23         1.9680    0.2250    1.2530 ca        1 3DK     -0.127000
      4 C25         1.8320    0.3640   -1.1800 ca        1 3DK     -0.128000
      5 C26         3.2030    0.1690   -1.2660 ca        1 3DK     -0.146000
      6 C27         3.9680   -0.0000   -0.0950 ca        1 3DK      0.146900
      7 F28         5.3010   -0.2000   -0.1980 f         1 3DK     -0.120900
      8 C22         3.3450    0.0280    1.1710 ca        1 3DK     -0.131300
      9 C21         4.1530   -0.1650    2.4220 c3        1 3DK      0.107600
     10 N17         4.7280    1.0590    2.9470 na        1 3DK      0.081400
     11 C16         4.1420    1.8330    3.9590 cc        1 3DK     -0.145300
     12 N18         5.8060    1.6650    2.4170 nc        1 3DK     -0.497800
     13 C19         5.9770    2.8250    3.0930 cd        1 3DK      0.309200
     14 C10         4.9360    2.9860    4.0970 cd        1 3DK     -0.179100
     15 C9          4.7650    4.0650    5.0050 cd        1 3DK     -0.034400
     16 C8          3.5550    4.4700    5.5830 cc        1 3DK     -0.102100
     17 N7          3.7520    5.5640    6.4240 na        1 3DK     -0.283100
     18 C4          5.1150    5.8940    6.4010 ca        1 3DK      0.415800
     19 N3          5.7480    6.9000    7.0790 nb        1 3DK     -0.669000
     20 C2          7.0640    6.9730    6.8750 ca        1 3DK      0.416200
     21 C5          5.7880    4.9560    5.5110 ca        1 3DK     -0.177100
     22 C6          7.1670    5.0850    5.3470 ca        1 3DK     -0.044000
     23 C1          7.8270    6.1060    6.0330 ca        1 3DK     -0.130300
     24 C11         9.2430    6.2940    5.9090 cc        1 3DK     -0.201300
     25 C15        10.0100    7.4240    6.2550 cd        1 3DK     -0.136300
     26 N14        11.3400    7.1180    5.9450 na        1 3DK      0.086400
     27 C20        12.4500    8.0170    6.1380 c3        1 3DK      0.040600
     28 N13        11.4600    5.8810    5.4300 nd        1 3DK     -0.507800
     29 C12        10.2160    5.3480    5.3910 cc        1 3DK      0.308200
     30 H1          1.4670    0.2540    2.2320 ha        1 3DK      0.151000
     31 H2          1.2270    0.4990   -2.0890 ha        1 3DK      0.157000
     32 H3          3.7050    0.1490   -2.2450 ha        1 3DK      0.158000
     33 H4          3.4990   -0.5990    3.2320 h1        1 3DK      0.079200
     34 H5          4.9920   -0.8900    2.2050 h1        1 3DK      0.079200
     35 H6          3.2570    1.5090    4.5020 h4        1 3DK      0.172000
     36 H7          6.7930    3.5120    2.8710 h4        1 3DK      0.046100
     37 H8          2.5560    4.0500    5.4460 h4        1 3DK      0.167000
     38 H9          3.0570    6.0420    6.9330 hn        1 3DK      0.309700
     39 H10         7.5760    7.7840    7.4260 h4        1 3DK      0.017100
     40 H11         7.7190    4.3940    4.6930 ha        1 3DK      0.144000
     41 H12         9.7170    8.3840    6.6770 h4        1 3DK      0.176000
     42 H13        13.2220    7.5400    6.8000 h1        1 3DK      0.058033
     43 H14        12.9220    8.2650    5.1490 h1        1 3DK      0.058033
     44 H15        12.0730    8.9570    6.6190 h1        1 3DK      0.058033
     45 H16        10.0290    4.3400    5.0200 h4        1 3DK      0.045100
@<TRIPOS>BOND
     1    1    2 1   
     2    2    3 ar  
     3    2    4 ar  
     4    3    8 ar  
     5    3   30 1   
     6    4    5 ar  
     7    4   31 1   
     8    5    6 ar  
     9    5   32 1   
    10    6    7 1   
    11    6    8 ar  
    12    8    9 1   
    13    9   10 1   
    14    9   33 1   
    15    9   34 1   
    16   10   11 1   
    17   10   12 1   
    18   11   14 2   
    19   11   35 1   
    20   12   13 2   
    21   13   14 1   
    22   13   36 1   
    23   14   15 1   
    24   15   16 2   
    25   15   21 1   
    26   16   17 1   
    27   16   37 1   
    28   17   18 1   
    29   17   38 1   
    30   18   19 ar  
    31   18   21 ar  
    32   19   20 ar  
    33   20   23 ar  
    34   20   39 1   
    35   21   22 ar  
    36   22   23 ar  
    37   22   40 1   
    38   23   24 1   
    39   24   25 2   
    40   24   29 1   
    41   25   26 1   
    42   25   41 1   
    43   26   27 1   
    44   26   28 1   
    45   27   42 1   
    46   27   43 1   
    47   27   44 1   
    48   28   29 2   
    49   29   45 1   
@<TRIPOS>SUBSTRUCTURE
     1 3DK         1 TEMP              0 ****  ****    0 ROOT
