@<TRIPOS>MOLECULE
3DK
   45    49     1     0     0
SMALL
bcc


@<TRIPOS>ATOM
      1 F29        -0.1280    0.5890    0.1530 f         1 3DK     -0.136900
      2 C24         1.2110    0.3970    0.0710 ca        1 3DK      0.106900
      3 C23         1.9650    0.2320    1.2450 ca        1 3DK     -0.127000
      4 C25         1.8390    0.3660   -1.1880 ca        1 3DK     -0.128000
      5 C26         3.2090    0.1670   -1.2680 ca        1 3DK     -0.146000
      6 C27         3.9700   -0.0030   -0.0940 ca        1 3DK      0.146900
      7 F28         5.3030   -0.2070   -0.1920 f         1 3DK     -0.120900
      8 C22         3.3420    0.0310    1.1690 ca        1 3DK     -0.131300
      9 C21         4.1440   -0.1620    2.4240 c3        1 3DK      0.107600
     10 N17         4.7230    1.0610    2.9480 na        1 3DK      0.081400
     11 C16         4.1350    1.8410    3.9550 cc        1 3DK     -0.145300
     12 N18         5.8050    1.6620    2.4210 nc        1 3DK     -0.497800
     13 C19         5.9770    2.8230    3.0940 cd        1 3DK      0.309200
     14 C10         4.9330    2.9910    4.0930 cd        1 3DK     -0.179100
     15 C9          4.7620    4.0720    4.9980 cd        1 3DK     -0.034400
     16 C8          3.5510    4.4840    5.5700 cc        1 3DK     -0.102100
     17 N7          3.7490    5.5790    6.4090 na        1 3DK     -0.283100
     18 C4          5.1130    5.9040    6.3900 ca        1 3DK      0.415800
     19 N3          5.7470    6.9100    7.0680 nb        1 3DK     -0.669000
     20 C2          7.0640    6.9780    6.8700 ca        1 3DK      0.416200
     21 C5          5.7860    4.9620    5.5050 ca        1 3DK     -0.177100
     22 C6          7.1660    5.0850    5.3470 ca        1 3DK     -0.044000
     23 C1          7.8270    6.1060    6.0330 ca        1 3DK     -0.130300
     24 C11         9.2440    6.2880    5.9140 cc        1 3DK     -0.201300
     25 C15        10.0140    7.4160    6.2590 cd        1 3DK     -0.136300
     26 N14        11.3430    7.1060    5.9530 na        1 3DK      0.086400
     27 C20        12.4580    7.9960    6.1610 c3        1 3DK      0.040600
     28 N13        11.4620    5.8660    5.4450 nd        1 3DK     -0.507800
     29 C12        10.2160    5.3370    5.4030 cc        1 3DK      0.308200
     30 H1          1.4610    0.2650    2.2230 ha        1 3DK      0.151000
     31 H2          1.2380    0.5010   -2.1000 ha        1 3DK      0.157000
     32 H3          3.7150    0.1420   -2.2460 ha        1 3DK      0.158000
     33 H4          3.4860   -0.5910    3.2320 h1        1 3DK      0.079200
     34 H5          4.9820   -0.8910    2.2120 h1        1 3DK      0.079200
     35 H6          3.2460    1.5210    4.4950 h4        1 3DK      0.172000
     36 H7          6.7970    3.5070    2.8730 h4        1 3DK      0.046100
     37 H8          2.5510    4.0670    5.4310 h4        1 3DK      0.167000
     38 H9          3.0530    6.0610    6.9130 hn        1 3DK      0.309700
     39 H10         7.5770    7.7880    7.4200 h4        1 3DK      0.017100
     40 H11         7.7180    4.3900    4.6970 ha        1 3DK      0.144000
     41 H12         9.7220    8.3790    6.6760 h4        1 3DK      0.176000
     42 H13        13.1740    7.5510    6.9040 h1        1 3DK      0.058033
     43 H14        13.0000    8.1690    5.1930 h1        1 3DK      0.058033
     44 H15        12.0710    8.9720    6.5540 h1        1 3DK      0.058033
     45 H16        10.0270    4.3290    5.0330 h4        1 3DK      0.045100
@<TRIPOS>BOND
     1    1    2 1   
     2    2    3 ar  
     3    2    4 ar  
     4    3    8 ar  
     5    3   30 1   
     6    4    5 ar  
     7    4   31 1   
     8    5    6 ar  
     9    5   32 1   
    10    6    7 1   
    11    6    8 ar  
    12    8    9 1   
    13    9   10 1   
    14    9   33 1   
    15    9   34 1   
    16   10   11 1   
    17   10   12 1   
    18   11   14 2   
    19   11   35 1   
    20   12   13 2   
    21   13   14 1   
    22   13   36 1   
    23   14   15 1   
    24   15   16 2   
    25   15   21 1   
    26   16   17 1   
    27   16   37 1   
    28   17   18 1   
    29   17   38 1   
    30   18   19 ar  
    31   18   21 ar  
    32   19   20 ar  
    33   20   23 ar  
    34   20   39 1   
    35   21   22 ar  
    36   22   23 ar  
    37   22   40 1   
    38   23   24 1   
    39   24   25 2   
    40   24   29 1   
    41   25   26 1   
    42   25   41 1   
    43   26   27 1   
    44   26   28 1   
    45   27   42 1   
    46   27   43 1   
    47   27   44 1   
    48   28   29 2   
    49   29   45 1   
@<TRIPOS>SUBSTRUCTURE
     1 3DK         1 TEMP              0 ****  ****    0 ROOT
