@<TRIPOS>MOLECULE
3DK
   45    35     1     0     0
SMALL
bcc


@<TRIPOS>ATOM
      1 F29        -2.6610    6.2600   -2.4780 f         1 3DK     -0.098000
      2 C24        -3.1490    5.7700   -1.3230 c1        1 3DK      0.077000
      3 C23        -3.1130    4.3960   -1.0770 c1        1 3DK     -0.115000
      4 C25        -3.7800    6.6240   -0.4190 c1        1 3DK     -0.133000
      5 C26        -4.3750    6.1040    0.7310 c1        1 3DK     -0.143000
      6 C27        -4.3400    4.7350    0.9780 c1        1 3DK      0.085000
      7 F28        -4.9600    4.2220    2.0910 f         1 3DK     -0.105000
      8 C22        -3.7090    3.8790    0.0730 c2        1 3DK     -0.120000
      9 C21        -3.8230    2.3510    0.2580 c3        1 3DK      0.037000
     10 N17        -2.5790    1.8380    0.7230 n3        1 3DK     -0.132000
     11 C16        -2.2370    0.5390    0.8070 c1        1 3DK     -0.112000
     12 N18        -1.5000    2.5870    1.1100 n2        1 3DK     -0.082000
     13 C19        -0.4980    1.7480    1.4290 c1        1 3DK     -0.152000
     14 C10        -0.9420    0.4720    1.2460 c1        1 3DK     -0.104000
     15 C9         -0.1590   -0.8110    1.5610 c1        1 3DK     -0.079000
     16 C8         -0.5600   -1.1060    2.8570 c1        1 3DK     -0.024500
     17 N7          0.1110   -2.2300    3.2620 n2        1 3DK     -0.197000
     18 C4          0.9490   -2.6480    2.2030 c1        1 3DK     -0.024500
     19 N3          1.7860   -3.7590    2.0570 n1        1 3DK     -0.142000
     20 C2          2.4450   -3.9780    0.8620 c1        1 3DK     -0.049000
     21 C5          0.7810   -1.7800    1.1660 c1        1 3DK     -0.079000
     22 C6          1.4540   -2.0040   -0.0530 c1        1 3DK     -0.044000
     23 C1          2.2770   -3.0980   -0.1930 c1        1 3DK     -0.065000
     24 C11         3.1380   -3.6220   -1.3480 c2        1 3DK     -0.135000
     25 C15         4.4840   -3.4150   -1.5060 c1        1 3DK     -0.134500
     26 N14         4.8770   -4.0590   -2.6250 n2        1 3DK     -0.101000
     27 C20         6.2170   -4.1910   -3.0840 c2        1 3DK     -0.058000
     28 N13         3.7720   -4.6740   -3.1730 n2        1 3DK     -0.101000
     29 C12         2.7070   -4.4030   -2.3870 c1        1 3DK     -0.134500
     30 H1         -2.6670    3.7920   -1.7170 ha        1 3DK      0.174000
     31 H2         -3.8060    7.5830   -0.5910 ha        1 3DK      0.157000
     32 H3         -4.8180    6.7010    1.3650 ha        1 3DK      0.156000
     33 H4         -4.0500    1.9350   -0.5970 h1        1 3DK      0.121000
     34 H5         -4.5150    2.1550    0.9060 h1        1 3DK      0.121000
     35 H6         -2.8090   -0.2180    0.5940 DU        1 3DK      0.191167
     36 H7          0.3790    2.0050    1.7340 DU        1 3DK      0.191167
     37 H8         -1.1970   -0.5560    3.4230 DU        1 3DK      0.191167
     38 H9          0.0310   -2.6350    4.0710 DU        1 3DK      0.191167
     39 H10         3.0440   -4.7730    0.7600 ha        1 3DK      0.154000
     40 H11         1.3370   -1.3930   -0.7870 ha        1 3DK      0.143000
     41 H12         5.1010   -2.9500   -0.8360 DU        1 3DK      0.191167
     42 H13         6.5830   -3.3100   -3.2760 ha        1 3DK      0.097667
     43 H14         6.2290   -4.7260   -3.8870 ha        1 3DK      0.097667
     44 H15         6.7740   -4.6380   -2.3720 ha        1 3DK      0.097667
     45 H16         1.7670   -4.7200   -2.5370 DU        1 3DK      0.191167
@<TRIPOS>BOND
     1    1    2 1   
     2    2    4 1   
     3    3    8 1   
     4    3   30 1   
     5    4   31 1   
     6    5    6 1   
     7    5   32 1   
     8    6    8 1   
     9    8    9 1   
    10    9   10 1   
    11    9   33 1   
    12    9   34 1   
    13   10   11 1   
    14   10   12 1   
    15   11   14 1   
    16   12   13 1   
    17   13   14 1   
    18   15   16 1   
    19   15   21 1   
    20   16   17 1   
    21   17   18 1   
    22   18   21 1   
    23   19   20 1   
    24   20   39 1   
    25   22   23 1   
    26   22   40 1   
    27   23   24 1   
    28   24   25 1   
    29   24   29 1   
    30   25   26 1   
    31   26   28 1   
    32   27   42 1   
    33   27   43 1   
    34   27   44 1   
    35   28   29 1   
@<TRIPOS>SUBSTRUCTURE
     1 3DK         1 TEMP              0 ****  ****    0 ROOT
