@<TRIPOS>MOLECULE
3DL
   33    35     1     0     0
SMALL
bcc


@<TRIPOS>ATOM
      1 O3         -0.0740   -0.1400    0.0150 o         1 3DL     -0.824300
      2 C17         1.0850    0.3620    0.0080 c         1 3DL      0.905200
      3 O2          1.6120    0.9600    0.9870 o         1 3DL     -0.824300
      4 C1          1.9020    0.2390   -1.2730 ca        1 3DL     -0.097600
      5 C6          1.3660   -0.4060   -2.3940 ca        1 3DL     -0.120000
      6 C5          2.1020   -0.5130   -3.5690 ca        1 3DL     -0.122000
      7 C4          3.3970    0.0270   -3.6420 cp        1 3DL     -0.206500
      8 C3          3.9420    0.6590   -2.5160 ca        1 3DL     -0.122000
      9 C2          3.1950    0.7660   -1.3460 ca        1 3DL     -0.120000
     10 C7          4.1510   -0.0720   -4.8950 cp        1 3DL      0.404500
     11 N2          5.4970   -0.2420   -4.8790 nb        1 3DL     -0.632000
     12 C10         6.1230   -0.3270   -6.0820 cp        1 3DL      0.341500
     13 C9          5.3970   -0.2500   -7.3030 ca        1 3DL      0.256900
     14 N1          4.0600   -0.0720   -7.3290 nb        1 3DL     -0.639000
     15 C8          3.4440    0.0210   -6.1410 ca        1 3DL      0.274900
     16 C11         7.5830   -0.5120   -6.1270 cp        1 3DL     -0.092500
     17 C16         8.3280    0.1480   -7.1130 ca        1 3DL     -0.202000
     18 C15         9.7140   -0.0430   -7.1670 ca        1 3DL      0.112100
     19 O1         10.5070    0.5710   -8.1130 oh        1 3DL     -0.505100
     20 C14        10.3670   -0.8830   -6.2510 ca        1 3DL     -0.155000
     21 C13         9.6110   -1.5240   -5.2750 ca        1 3DL     -0.107000
     22 C12         8.2300   -1.3430   -5.2050 ca        1 3DL     -0.123000
     23 H2          0.3490   -0.8250   -2.3160 ha        1 3DL      0.157000
     24 H3          1.6730   -1.0350   -4.4360 ha        1 3DL      0.117000
     25 H4          4.9580    1.0760   -2.5570 ha        1 3DL      0.117000
     26 H5          3.6040    1.2670   -0.4530 ha        1 3DL      0.157000
     27 H6          5.9030   -0.3420   -8.2770 h4        1 3DL      0.021100
     28 H7          2.3530    0.1820   -6.1530 h4        1 3DL      0.040100
     29 H8          7.8330    0.8200   -7.8290 ha        1 3DL      0.136000
     30 H9          9.9400    1.1500   -8.6420 ho        1 3DL      0.416000
     31 H10        11.4560   -1.0170   -6.3160 ha        1 3DL      0.144000
     32 H11        10.1110   -2.1800   -4.5460 ha        1 3DL      0.134000
     33 H12         7.6490   -1.8500   -4.4180 ha        1 3DL      0.159000
@<TRIPOS>BOND
     1    1    2 1   
     2    2    3 1   
     3    2    4 1   
     4    4    5 ar  
     5    4    9 ar  
     6    5    6 ar  
     7    5   23 1   
     8    6    7 ar  
     9    6   24 1   
    10    7    8 ar  
    11    7   10 1   
    12    8    9 ar  
    13    8   25 1   
    14    9   26 1   
    15   10   11 ar  
    16   10   15 ar  
    17   11   12 ar  
    18   12   13 ar  
    19   12   16 1   
    20   13   14 ar  
    21   13   27 1   
    22   14   15 ar  
    23   15   28 1   
    24   16   17 ar  
    25   16   22 ar  
    26   17   18 ar  
    27   17   29 1   
    28   18   19 1   
    29   18   20 ar  
    30   19   30 1   
    31   20   21 ar  
    32   20   31 1   
    33   21   22 ar  
    34   21   32 1   
    35   22   33 1   
@<TRIPOS>SUBSTRUCTURE
     1 3DL         1 TEMP              0 ****  ****    0 ROOT
