@<TRIPOS>MOLECULE
3DM
   21    21     1     0     0
SMALL
bcc


@<TRIPOS>ATOM
      1 O1          0.0690    0.0890    0.1170 oh        1 3DM     -0.475100
      2 C1          1.4400    0.0670    0.0430 ca        1 3DM      0.083100
      3 C2          2.1640    0.0170    1.2570 ca        1 3DM      0.093600
      4 O2          1.3900   -0.0090    2.4000 os        1 3DM     -0.324900
      5 C7          2.1020   -0.0510    3.6320 c3        1 3DM      0.116700
      6 C3          3.5620   -0.0030    1.2390 ca        1 3DM     -0.198000
      7 C4          4.2410    0.0250    0.0220 ca        1 3DM     -0.100000
      8 C5          3.5500    0.0740   -1.1850 ca        1 3DM     -0.198000
      9 C6          2.1520    0.0960   -1.1740 ca        1 3DM      0.093600
     10 O3          1.3520    0.1510   -2.3040 os        1 3DM     -0.324900
     11 C8          2.0320    0.1000   -3.5520 c3        1 3DM      0.116700
     12 HO1        -0.2760    0.0990   -0.7890 ho        1 3DM      0.431000
     13 H7          2.7190   -0.9800    3.7000 h1        1 3DM      0.045033
     14 H7A         2.7430    0.8560    3.7510 h1        1 3DM      0.045033
     15 H7B         1.2860   -0.0620    4.3990 h1        1 3DM      0.045033
     16 H3          4.1320   -0.0420    2.1780 ha        1 3DM      0.139500
     17 H4          5.3410    0.0080    0.0160 ha        1 3DM      0.134000
     18 H5          4.1030    0.0960   -2.1340 ha        1 3DM      0.139500
     19 H8          2.6240   -0.8430   -3.6410 h1        1 3DM      0.045033
     20 H8A         1.2000    0.1180   -4.3010 h1        1 3DM      0.045033
     21 H8B         2.6930    0.9920   -3.6750 h1        1 3DM      0.045033
@<TRIPOS>BOND
     1    1    2 1   
     2    1   12 1   
     3    2    3 ar  
     4    2    9 ar  
     5    3    4 1   
     6    3    6 ar  
     7    4    5 1   
     8    5   13 1   
     9    5   14 1   
    10    5   15 1   
    11    6    7 ar  
    12    6   16 1   
    13    7    8 ar  
    14    7   17 1   
    15    8    9 ar  
    16    8   18 1   
    17    9   10 1   
    18   10   11 1   
    19   11   19 1   
    20   11   20 1   
    21   11   21 1   
@<TRIPOS>SUBSTRUCTURE
     1 3DM         1 TEMP              0 ****  ****    0 ROOT
