@<TRIPOS>MOLECULE
3DM
   21    21     1     0     0
SMALL
bcc


@<TRIPOS>ATOM
      1 O1          0.0720    0.1690    0.1260 oh        1 3DM     -0.475100
      2 C1          1.4420    0.0950    0.0470 ca        1 3DM      0.083100
      3 C2          2.1680    0.0430    1.2590 ca        1 3DM      0.094100
      4 O2          1.4000    0.0700    2.4050 os        1 3DM     -0.324900
      5 C7          2.1160    0.0210    3.6340 c3        1 3DM      0.116700
      6 C3          3.5660   -0.0320    1.2340 ca        1 3DM     -0.198000
      7 C4          4.2390   -0.0540    0.0150 ca        1 3DM     -0.100000
      8 C5          3.5440   -0.0030   -1.1900 ca        1 3DM     -0.198000
      9 C6          2.1480    0.0720   -1.1730 ca        1 3DM      0.094100
     10 O3          1.3440    0.1300   -2.3010 os        1 3DM     -0.324900
     11 C8          2.0200    0.0770   -3.5510 c3        1 3DM      0.116700
     12 HO1        -0.2750    0.1880   -0.7790 ho        1 3DM      0.431000
     13 H7          2.6960   -0.9300    3.7170 h1        1 3DM      0.045033
     14 H7A         2.7930    0.9040    3.7350 h1        1 3DM      0.045033
     15 H7B         1.3040    0.0560    4.4050 h1        1 3DM      0.045033
     16 H3          4.1370   -0.0730    2.1720 ha        1 3DM      0.139500
     17 H4          5.3370   -0.1120    0.0050 ha        1 3DM      0.134000
     18 H5          4.0930   -0.0210   -2.1420 ha        1 3DM      0.139500
     19 H8          2.5890   -0.8790   -3.6520 h1        1 3DM      0.045033
     20 H8A         1.1870    0.1230   -4.2980 h1        1 3DM      0.045033
     21 H8B         2.7030    0.9540   -3.6660 h1        1 3DM      0.045033
@<TRIPOS>BOND
     1    1    2 1   
     2    1   12 1   
     3    2    3 ar  
     4    2    9 ar  
     5    3    4 1   
     6    3    6 ar  
     7    4    5 1   
     8    5   13 1   
     9    5   14 1   
    10    5   15 1   
    11    6    7 ar  
    12    6   16 1   
    13    7    8 ar  
    14    7   17 1   
    15    8    9 ar  
    16    8   18 1   
    17    9   10 1   
    18   10   11 1   
    19   11   19 1   
    20   11   20 1   
    21   11   21 1   
@<TRIPOS>SUBSTRUCTURE
     1 3DM         1 TEMP              0 ****  ****    0 ROOT
