@<TRIPOS>MOLECULE
3DM
   21    19     1     0     0
SMALL
bcc


@<TRIPOS>ATOM
      1 O1         -2.0810    0.4780   -0.0430 oh        1 3DM     -0.261000
      2 C1         -0.6760    0.4440   -0.0290 c2        1 3DM     -0.002000
      3 C2          0.0070    0.4200    1.1880 c2        1 3DM      0.029000
      4 O2         -0.7230    0.4940    2.4210 os        1 3DM     -0.234000
      5 C7         -0.6800   -0.7020    3.1880 c3        1 3DM     -0.067000
      6 C3          1.4120    0.4200    1.2050 c1        1 3DM     -0.195000
      7 C4          2.1190    0.4440    0.0160 c1        1 3DM     -0.130000
      8 C5          1.4280    0.4690   -1.2150 c1        1 3DM     -0.130000
      9 C6          0.0380    0.4690   -1.2320 c1        1 3DM      0.083000
     10 O3         -0.6560    0.5930   -2.4710 os        1 3DM     -0.211000
     11 C8         -0.6800   -0.5940   -3.2340 c3        1 3DM     -0.066000
     12 HO1        -2.3590    1.2650    0.2400 ho        1 3DM      0.236000
     13 H7          0.1680   -0.7320    3.7120 h1        1 3DM      0.085667
     14 H7A        -0.7200   -1.4730    2.5890 h1        1 3DM      0.085667
     15 H7B        -1.4670   -0.7260    3.8190 h1        1 3DM      0.085667
     16 H3          1.9040    0.4020    2.0820 ha        1 3DM      0.139000
     17 H4          3.1010    0.4450    0.0270 ha        1 3DM      0.144500
     18 H5          1.9170    0.4850   -2.0390 ha        1 3DM      0.144500
     19 H8         -1.4380   -0.5770   -3.8350 h1        1 3DM      0.088000
     20 H8A        -0.7540   -1.3600   -2.6390 h1        1 3DM      0.088000
     21 H8B         0.1410   -0.6640   -3.7500 h1        1 3DM      0.088000
@<TRIPOS>BOND
     1    1    2 1   
     2    1   12 1   
     3    2    3 1   
     4    2    9 1   
     5    3    4 1   
     6    3    6 1   
     7    4    5 1   
     8    5   13 1   
     9    5   14 1   
    10    5   15 1   
    11    6   16 1   
    12    7    8 1   
    13    7   17 1   
    14    8   18 1   
    15    9   10 1   
    16   10   11 1   
    17   11   19 1   
    18   11   20 1   
    19   11   21 1   
@<TRIPOS>SUBSTRUCTURE
     1 3DM         1 TEMP              0 ****  ****    0 ROOT
