@<TRIPOS>MOLECULE
3DM
   21    21     1     0     0
SMALL
bcc


@<TRIPOS>ATOM
      1 O1         -0.1240   -2.0180   -0.1510 oh        1 3DM     -0.475100
      2 C1         -0.0460   -0.6480   -0.0900 ca        1 3DM      0.083100
      3 C2          1.1740    0.0590   -0.0720 ca        1 3DM      0.094100
      4 O2          2.3020   -0.7440   -0.1230 os        1 3DM     -0.324900
      5 C7          3.5520   -0.0670   -0.0730 c3        1 3DM      0.116700
      6 C3          1.1900    1.4560   -0.0110 ca        1 3DM     -0.198000
      7 C4         -0.0160    2.1500    0.0330 ca        1 3DM     -0.100000
      8 C5         -1.2350    1.4760    0.0170 ca        1 3DM     -0.198000
      9 C6         -1.2580    0.0780   -0.0440 ca        1 3DM      0.094100
     10 O3         -2.4040   -0.6910   -0.0650 os        1 3DM     -0.324900
     11 C8         -3.6340    0.0240   -0.0230 c3        1 3DM      0.116700
     12 HO1         0.7810   -2.3650   -0.1660 ho        1 3DM      0.431000
     13 H7          4.2990   -0.9000   -0.1100 h1        1 3DM      0.045033
     14 H7A         3.6680    0.6080   -0.9550 h1        1 3DM      0.045033
     15 H7B         3.6490    0.5100    0.8790 h1        1 3DM      0.045033
     16 H3          2.1400    2.0060    0.0030 ha        1 3DM      0.139500
     17 H4         -0.0070    3.2490    0.0820 ha        1 3DM      0.134000
     18 H5         -2.1730    2.0470    0.0520 ha        1 3DM      0.139500
     19 H8         -3.7170    0.6130    0.9220 h1        1 3DM      0.045033
     20 H8A        -3.7340    0.6920   -0.9120 h1        1 3DM      0.045033
     21 H8B        -4.4040   -0.7890   -0.0510 h1        1 3DM      0.045033
@<TRIPOS>BOND
     1    1    2 1   
     2    1   12 1   
     3    2    3 ar  
     4    2    9 ar  
     5    3    4 1   
     6    3    6 ar  
     7    4    5 1   
     8    5   13 1   
     9    5   14 1   
    10    5   15 1   
    11    6    7 ar  
    12    6   16 1   
    13    7    8 ar  
    14    7   17 1   
    15    8    9 ar  
    16    8   18 1   
    17    9   10 1   
    18   10   11 1   
    19   11   19 1   
    20   11   20 1   
    21   11   21 1   
@<TRIPOS>SUBSTRUCTURE
     1 3DM         1 TEMP              0 ****  ****    0 ROOT
