@<TRIPOS>MOLECULE
3DN
   58    57     1     0     0
SMALL
bcc


@<TRIPOS>ATOM
      1 N1         -0.1640    0.0880   -0.7800 nx        1 3DN      0.092000
      2 C1         -8.3380    1.8040   -0.6230 c2        1 3DN     -0.112000
      3 C2         -9.3500    0.7180   -1.0750 c3        1 3DN      0.062000
      4 C3         -8.8890    0.0130   -2.3360 c2        1 3DN      0.317000
      5 C4         -6.5870    0.3900   -1.5940 c2        1 3DN      0.051000
      6 C5         -6.9650    1.3520   -0.6980 c2        1 3DN     -0.139000
      7 C6         -4.6340   -1.0240   -2.4190 ca        1 3DN     -0.118000
      8 C7         -3.0350    0.9150   -1.5710 ca        1 3DN     -0.145000
      9 C8         -0.8230   -0.3690   -2.0590 c3        1 3DN     -0.086000
     10 C9          0.7920   -0.1910    2.6790 c1        1 3DN     -0.333000
     11 C10         1.1550    0.6420   -1.0860 c2        1 3DN     -0.151000
     12 C11         2.5930   -1.7730    5.2520 c3        1 3DN     -0.186500
     13 C12         1.5240    0.4130    5.3960 c3        1 3DN     -0.186500
     14 C13       -10.5710    1.4780   -1.1520 c1        1 3DN     -0.163000
     15 N2         -7.5130   -0.2240   -2.4490 ns        1 3DN     -0.336000
     16 C14        -8.6620    3.0640   -0.2390 c2        1 3DN     -0.135000
     17 C15        -6.7910    5.6830    0.7220 c1        1 3DN     -0.034000
     18 C16       -10.0570    3.6870   -0.2740 c3        1 3DN      0.003000
     19 C17       -10.8590    2.6100   -0.8100 c1        1 3DN     -0.160000
     20 C18        -5.1960   -0.0190   -1.6690 ca        1 3DN      0.006000
     21 C19        -4.1120    0.5090   -0.8140 ca        1 3DN     -0.118000
     22 C20        -2.2960   -0.2970   -1.9680 ca        1 3DN     -0.131000
     23 C21        -3.1740   -1.2370   -2.4420 ca        1 3DN     -0.145000
     24 C22         1.4640    1.9360   -0.9770 c2        1 3DN     -0.171000
     25 C23         0.9370   -1.1530    3.5670 c2        1 3DN     -0.257000
     26 N3          1.3530   -1.0010    4.9890 nx        1 3DN      0.026000
     27 C24        -0.0560   -0.9810    0.2220 c2        1 3DN     -0.493000
     28 H2         -6.2220    1.8230   -0.0370 ha        1 3DN      0.152000
     29 H4         -5.2320   -1.7120   -3.0330 ha        1 3DN      0.147500
     30 H5         -3.0740    1.7370   -2.2990 ha        1 3DN      0.149500
     31 H6         -0.4710    0.2980   -2.9000 hx        1 3DN      0.133000
     32 H7         -0.4760   -1.4210   -2.2650 hx        1 3DN      0.133000
     33 H8          0.3840   -0.5280    1.4360 DU        1 3DN      0.316000
     34 H9          0.9630    0.8760    2.8270 ha        1 3DN      0.103000
     35 H10        -0.7590    0.8260   -0.3760 hn        1 3DN      0.236000
     36 H11         1.8760   -0.1370   -1.3980 hx        1 3DN      0.181000
     37 H12         2.4180   -2.8510    4.9940 hx        1 3DN      0.129667
     38 H13         2.8750   -1.6840    6.3340 hx        1 3DN      0.129667
     39 H14         3.4220   -1.3720    4.6110 hx        1 3DN      0.129667
     40 H15         2.3440    0.8810    4.7900 hx        1 3DN      0.129667
     41 H16         0.5660    0.9680    5.2120 hx        1 3DN      0.129667
     42 H17         1.7870    0.4620    6.4850 hx        1 3DN      0.129667
     43 H18        -9.4190   -0.0730   -0.2690 hc        1 3DN      0.145000
     44 H19        -7.8830    3.7680    0.1180 ha        1 3DN      0.183000
     45 H20        -5.7480    6.0010    0.8730 ha        1 3DN      0.021000
     46 H21        -7.4860    6.5340    0.7920 ha        1 3DN      0.021000
     47 H22       -10.3730    3.9950    0.7570 hc        1 3DN      0.121000
     48 H23       -10.0500    4.5960   -0.9310 hc        1 3DN      0.121000
     49 H24        -3.9800   -0.0220    0.1440 ha        1 3DN      0.147500
     50 H25        -2.8220   -2.1700   -2.9090 ha        1 3DN      0.149500
     51 H26         2.4800    2.2850   -1.2180 ha        1 3DN      0.149500
     52 H27         0.7640    2.7190   -0.6550 ha        1 3DN      0.149500
     53 H28         0.7590   -2.2220    3.3550 hx        1 3DN      0.162000
     54 H30        -1.0620   -1.4210    0.3960 hx        1 3DN      0.092000
     55 H31         0.6690   -1.7560   -0.1060 hx        1 3DN      0.092000
     56 H1         -7.1790   -0.6740   -3.2710 hn        1 3DN      0.242000
     57 H311        0.6020   -1.4020    5.5650 hn        1 3DN      0.224000
     58 O1         -9.6420   -0.4270   -3.2140 o         1 3DN     -0.303000
@<TRIPOS>BOND
     1    1    9 1   
     2    1   11 1   
     3    1   27 1   
     4    1   35 1   
     5    2    3 1   
     6    2    6 1   
     7    2   16 1   
     8    3    4 1   
     9    3   14 1   
    10    3   43 1   
    11    4   15 1   
    12    4   58 1   
    13    5    6 1   
    14    5   15 1   
    15    5   20 1   
    16    6   28 1   
    17    7   20 1   
    18    7   23 1   
    19    7   29 1   
    20    8   21 1   
    21    8   22 1   
    22    8   30 1   
    23    9   22 1   
    24    9   31 1   
    25    9   32 1   
    26   10   25 1   
    27   10   34 1   
    28   11   24 1   
    29   11   36 1   
    30   12   26 1   
    31   12   37 1   
    32   12   38 1   
    33   12   39 1   
    34   13   26 1   
    35   13   40 1   
    36   13   41 1   
    37   13   42 1   
    38   14   19 1   
    39   15   56 1   
    40   16   18 1   
    41   16   44 1   
    42   17   45 1   
    43   17   46 1   
    44   18   19 1   
    45   18   47 1   
    46   18   48 1   
    47   20   21 1   
    48   21   49 1   
    49   22   23 1   
    50   23   50 1   
    51   24   51 1   
    52   24   52 1   
    53   25   26 1   
    54   25   53 1   
    55   26   57 1   
    56   27   54 1   
    57   27   55 1   
@<TRIPOS>SUBSTRUCTURE
     1 3DN         1 TEMP              0 ****  ****    0 ROOT
