@<TRIPOS>MOLECULE
3DN
   58    61     1     0     0
SMALL
bcc


@<TRIPOS>ATOM
      1 N1         -0.0060    0.0590    0.1470 n3        1 3DN     -0.738600
      2 C1         -8.2530    2.6380   -1.2220 ca        1 3DN      0.004200
      3 C2         -9.1150    1.5530   -0.9580 ca        1 3DN     -0.147600
      4 C3         -8.5610    0.2080   -0.7160 c         1 3DN      0.708100
      5 C4         -6.3300    1.1450   -1.0270 cc        1 3DN      0.087400
      6 C5         -6.8330    2.4010   -1.2460 cd        1 3DN     -0.182200
      7 C6         -4.3490   -0.2020   -1.7470 ca        1 3DN     -0.112500
      8 C7         -2.6350    1.5580   -0.4190 ca        1 3DN     -0.116500
      9 C8         -0.6270    0.2400   -1.1630 c3        1 3DN      0.219100
     10 C9          0.0360   -1.1610    2.3040 c3        1 3DN     -0.099900
     11 C10         1.4460    0.0280    0.0680 c3        1 3DN      0.169300
     12 C11         1.7050   -0.4550    4.5850 c3        1 3DN      0.081600
     13 C12         2.1500   -2.7960    4.0540 c3        1 3DN      0.081600
     14 C13       -10.5050    1.7350   -0.9240 ca        1 3DN     -0.069000
     15 N2         -7.1680    0.0670   -0.7680 n         1 3DN     -0.456100
     16 C14        -8.8070    3.9180   -1.4550 ca        1 3DN     -0.084300
     17 C15        -7.9330    5.0790   -1.7400 c3        1 3DN     -0.053800
     18 C16       -10.1910    4.0780   -1.4170 ca        1 3DN     -0.094000
     19 C17       -11.0370    2.9960   -1.1530 ca        1 3DN     -0.140000
     20 C18        -4.8760    0.8980   -1.0580 ca        1 3DN     -0.052800
     21 C19        -4.0100    1.7790   -0.3960 ca        1 3DN     -0.112500
     22 C20        -2.1100    0.4550   -1.1000 ca        1 3DN     -0.103300
     23 C21        -2.9730   -0.4210   -1.7670 ca        1 3DN     -0.116500
     24 C22         2.1020   -0.0300    1.4520 c3        1 3DN     -0.099900
     25 C23         1.5600   -1.2440    2.2150 c3        1 3DN      0.124500
     26 N3          2.2370   -1.3950    3.5670 n4        1 3DN     -0.681400
     27 C24        -0.5390   -1.0730    0.8870 c3        1 3DN      0.169300
     28 H2         -6.1550    3.2390   -1.4570 ha        1 3DN      0.151000
     29 H4         -5.0150   -0.8890   -2.2920 ha        1 3DN      0.150000
     30 H5         -1.9580    2.2550    0.0970 ha        1 3DN      0.140000
     31 H6         -0.4040   -0.6360   -1.8420 h1        1 3DN      0.053200
     32 H7         -0.1590    1.1590   -1.6250 h1        1 3DN      0.053200
     33 H8         -0.3870   -2.0700    2.8030 hc        1 3DN      0.070200
     34 H9         -0.2780   -0.2550    2.8870 hc        1 3DN      0.070200
     35 H10         1.7890    0.9750   -0.4380 h1        1 3DN      0.059950
     36 H11         1.8220   -0.8460   -0.5430 h1        1 3DN      0.059950
     37 H12         1.6930    0.5860    4.1630 hx        1 3DN      0.104867
     38 H13         0.6610   -0.7550    4.8700 hx        1 3DN      0.104867
     39 H14         2.3620   -0.4870    5.4960 hx        1 3DN      0.104867
     40 H15         2.6490   -2.8720    5.0580 hx        1 3DN      0.104867
     41 H16         1.0730   -3.0950    4.1500 hx        1 3DN      0.104867
     42 H17         2.6660   -3.4790    3.3270 hx        1 3DN      0.104867
     43 H18       -11.1550    0.8680   -0.7160 ha        1 3DN      0.162000
     44 H19        -8.5340    6.0080   -1.9000 hc        1 3DN      0.047033
     45 H20        -7.3250    4.8930   -2.6610 hc        1 3DN      0.047033
     46 H21        -7.2320    5.2600   -0.8860 hc        1 3DN      0.047033
     47 H22       -10.6290    5.0730   -1.5980 ha        1 3DN      0.139000
     48 H23       -12.1270    3.1480   -1.1290 ha        1 3DN      0.144000
     49 H24        -4.4210    2.6480    0.1410 ha        1 3DN      0.150000
     50 H25        -2.5690   -1.2820   -2.3210 ha        1 3DN      0.140000
     51 H26         1.8810    0.9170    2.0100 hc        1 3DN      0.070200
     52 H27         3.2110   -0.1090    1.3100 hc        1 3DN      0.070200
     53 H28         1.8350   -2.1800    1.6350 hx        1 3DN      0.099700
     54 H30        -0.3470   -2.0550    0.3610 h1        1 3DN      0.059950
     55 H31        -1.6560   -0.9360    0.9670 h1        1 3DN      0.059950
     56 H1         -6.7730   -0.8330   -0.6110 hn        1 3DN      0.329500
     57 H311        3.2320   -1.1690    3.4220 hn        1 3DN      0.446800
     58 O1         -9.2400   -0.8070   -0.4680 o         1 3DN     -0.632500
@<TRIPOS>BOND
     1    1    9 1   
     2    1   11 1   
     3    1   27 1   
     4    2    3 ar  
     5    2    6 1   
     6    2   16 ar  
     7    3    4 1   
     8    3   14 ar  
     9    4   15 1   
    10    4   58 2   
    11    5    6 2   
    12    5   15 1   
    13    5   20 1   
    14    6   28 1   
    15    7   20 ar  
    16    7   23 ar  
    17    7   29 1   
    18    8   21 ar  
    19    8   22 ar  
    20    8   30 1   
    21    9   22 1   
    22    9   31 1   
    23    9   32 1   
    24   10   25 1   
    25   10   27 1   
    26   10   33 1   
    27   10   34 1   
    28   11   24 1   
    29   11   35 1   
    30   11   36 1   
    31   12   26 1   
    32   12   37 1   
    33   12   38 1   
    34   12   39 1   
    35   13   26 1   
    36   13   40 1   
    37   13   41 1   
    38   13   42 1   
    39   14   19 ar  
    40   14   43 1   
    41   15   56 1   
    42   16   17 1   
    43   16   18 ar  
    44   17   44 1   
    45   17   45 1   
    46   17   46 1   
    47   18   19 ar  
    48   18   47 1   
    49   19   48 1   
    50   20   21 ar  
    51   21   49 1   
    52   22   23 ar  
    53   23   50 1   
    54   24   25 1   
    55   24   51 1   
    56   24   52 1   
    57   25   26 1   
    58   25   53 1   
    59   26   57 1   
    60   27   54 1   
    61   27   55 1   
@<TRIPOS>SUBSTRUCTURE
     1 3DN         1 TEMP              0 ****  ****    0 ROOT
