@<TRIPOS>MOLECULE
3DP
   47    46     1     0     0
SMALL
bcc


@<TRIPOS>ATOM
      1 CAA         0.1980   -0.4610    0.0110 c3        1 3DP     -0.093100
      2 CAG         1.7000   -0.4890    0.1220 c3        1 3DP     -0.080400
      3 CAH         2.1570   -0.1900    1.5340 c3        1 3DP     -0.079400
      4 CAI         3.6670   -0.2200    1.6400 c3        1 3DP     -0.079400
      5 CAJ         4.1220    0.0790    3.0530 c3        1 3DP     -0.078400
      6 CAK         5.6320    0.0490    3.1550 c3        1 3DP     -0.080400
      7 CAL         6.0810    0.3470    4.5730 c3        1 3DP     -0.099400
      8 CAN         7.6020    0.3260    4.6280 c3        1 3DP      0.110800
      9 NAQ         8.2090    0.5380    5.9920 n4        1 3DP     -0.587800
     10 CAB         7.6640    1.7710    6.6160 c3        1 3DP      0.071100
     11 CAC         7.9050   -0.6410    6.8560 c3        1 3DP      0.071100
     12 CAO         9.7010    0.6890    5.7830 c3        1 3DP      0.099800
     13 CAM        10.5490    0.8690    7.0430 c3        1 3DP     -0.039400
     14 CAP        11.6550   -0.1470    7.0930 c3        1 3DP     -0.306600
     15 SAR        11.0710   -1.8220    7.3570 s6        1 3DP      1.434800
     16 OAF        10.4120   -2.1150    6.1230 o         1 3DP     -0.744533
     17 OAE        12.2100   -2.5720    7.6450 o         1 3DP     -0.744533
     18 OAD        10.1130   -1.6740    8.3930 o         1 3DP     -0.744533
     19 HAA1       -0.1180   -0.6830   -1.0370 hc        1 3DP      0.034700
     20 HAA2       -0.2630   -1.2210    0.6870 hc        1 3DP      0.034700
     21 HAA3       -0.2000    0.5440    0.2930 hc        1 3DP      0.034700
     22 HAG1        2.1440    0.2630   -0.5820 hc        1 3DP      0.039700
     23 HAG2        2.0820   -1.4980   -0.1890 hc        1 3DP      0.039700
     24 HAH1        1.7150   -0.9430    2.2390 hc        1 3DP      0.041200
     25 HAH2        1.7770    0.8180    1.8460 hc        1 3DP      0.041200
     26 HAI1        4.0460   -1.2290    1.3280 hc        1 3DP      0.043700
     27 HAI2        4.1090    0.5320    0.9350 hc        1 3DP      0.043700
     28 HAJ1        3.6810   -0.6750    3.7570 hc        1 3DP      0.043700
     29 HAJ2        3.7410    1.0870    3.3650 hc        1 3DP      0.043700
     30 HAK1        6.0100   -0.9610    2.8430 hc        1 3DP      0.051700
     31 HAK2        6.0720    0.8030    2.4510 hc        1 3DP      0.051700
     32 HAL1        5.6910    1.3530    4.8820 hc        1 3DP      0.058200
     33 HAL2        5.6440   -0.4170    5.2670 hc        1 3DP      0.058200
     34 HAN1        7.9790   -0.6730    4.2590 hx        1 3DP      0.097200
     35 HAN2        8.0010    1.1330    3.9490 hx        1 3DP      0.097200
     36 HAB1        8.2370    1.9940    7.5550 hx        1 3DP      0.103867
     37 HAB2        7.7640    2.6290    5.9030 hx        1 3DP      0.103867
     38 HAB3        6.5830    1.6180    6.8750 hx        1 3DP      0.103867
     39 HAC1        8.3630   -0.5110    7.8780 hx        1 3DP      0.103867
     40 HAC2        6.7960   -0.7560    6.9450 hx        1 3DP      0.103867
     41 HAC3        8.3720   -1.5660    6.4010 hx        1 3DP      0.103867
     42 HAO1       10.0390   -0.2460    5.2320 hx        1 3DP      0.107700
     43 HAO2        9.8380    1.5840    5.1130 hx        1 3DP      0.107700
     44 HAM1       10.9720    1.9080    7.0290 hc        1 3DP      0.053200
     45 HAM2        9.9440    0.7740    7.9870 hc        1 3DP      0.053200
     46 HAP1       12.2590   -0.1170    6.1550 h1        1 3DP      0.086200
     47 HAP2       12.3490    0.1160    7.9290 h1        1 3DP      0.086200
@<TRIPOS>BOND
     1    1    2 1   
     2    1   19 1   
     3    1   20 1   
     4    1   21 1   
     5    2    3 1   
     6    2   22 1   
     7    2   23 1   
     8    3    4 1   
     9    3   24 1   
    10    3   25 1   
    11    4    5 1   
    12    4   26 1   
    13    4   27 1   
    14    5    6 1   
    15    5   28 1   
    16    5   29 1   
    17    6    7 1   
    18    6   30 1   
    19    6   31 1   
    20    7    8 1   
    21    7   32 1   
    22    7   33 1   
    23    8    9 1   
    24    8   34 1   
    25    8   35 1   
    26    9   10 1   
    27    9   11 1   
    28    9   12 1   
    29   10   36 1   
    30   10   37 1   
    31   10   38 1   
    32   11   39 1   
    33   11   40 1   
    34   11   41 1   
    35   12   13 1   
    36   12   42 1   
    37   12   43 1   
    38   13   14 1   
    39   13   44 1   
    40   13   45 1   
    41   14   15 1   
    42   14   46 1   
    43   14   47 1   
    44   15   16 1   
    45   15   17 1   
    46   15   18 1   
@<TRIPOS>SUBSTRUCTURE
     1 3DP         1 TEMP              0 ****  ****    0 ROOT
