@<TRIPOS>MOLECULE
3DP
   47    46     1     0     0
SMALL
bcc


@<TRIPOS>ATOM
      1 CAA         0.2100   -0.4890   -0.0040 c3        1 3DP     -0.093100
      2 CAG         1.7130   -0.4840    0.1070 c3        1 3DP     -0.080400
      3 CAH         2.1630   -0.2150    1.5270 c3        1 3DP     -0.079400
      4 CAI         3.6730   -0.2110    1.6330 c3        1 3DP     -0.079400
      5 CAJ         4.1210    0.0590    3.0540 c3        1 3DP     -0.078400
      6 CAK         5.6310    0.0620    3.1560 c3        1 3DP     -0.080400
      7 CAL         6.0730    0.3320    4.5820 c3        1 3DP     -0.099400
      8 CAN         7.5940    0.3450    4.6380 c3        1 3DP      0.110800
      9 NAQ         8.1950    0.5340    6.0070 n4        1 3DP     -0.587800
     10 CAB         7.6220    1.7360    6.6650 c3        1 3DP      0.071100
     11 CAC         7.9200   -0.6760    6.8380 c3        1 3DP      0.071100
     12 CAO         9.6840    0.7260    5.8030 c3        1 3DP      0.099800
     13 CAM        10.5270    0.8910    7.0690 c3        1 3DP     -0.039400
     14 CAP        11.6570   -0.1000    7.0910 c3        1 3DP     -0.306600
     15 SAR        11.1120   -1.7940    7.3090 s6        1 3DP      1.434800
     16 OAF        10.4610   -2.0700    6.0680 o         1 3DP     -0.744533
     17 OAE        12.2700   -2.5260    7.5780 o         1 3DP     -0.744533
     18 OAD        10.1520   -1.6980    8.3480 o         1 3DP     -0.744533
     19 HAA1       -0.1000   -0.6890   -1.0580 hc        1 3DP      0.034700
     20 HAA2       -0.2320   -1.2790    0.6500 hc        1 3DP      0.034700
     21 HAA3       -0.2120    0.4980    0.3060 hc        1 3DP      0.034700
     22 HAG1        2.1390    0.2980   -0.5750 hc        1 3DP      0.039700
     23 HAG2        2.1190   -1.4740   -0.2320 hc        1 3DP      0.039700
     24 HAH1        1.7390   -0.9970    2.2100 hc        1 3DP      0.041200
     25 HAH2        1.7590    0.7750    1.8670 hc        1 3DP      0.041200
     26 HAI1        4.0760   -1.2020    1.2930 hc        1 3DP      0.043700
     27 HAI2        4.0960    0.5710    0.9490 hc        1 3DP      0.043700
     28 HAJ1        3.6980   -0.7250    3.7370 hc        1 3DP      0.043700
     29 HAJ2        3.7170    1.0490    3.3940 hc        1 3DP      0.043700
     30 HAK1        6.0330   -0.9300    2.8170 hc        1 3DP      0.051700
     31 HAK2        6.0530    0.8450    2.4730 hc        1 3DP      0.051700
     32 HAL1        5.6590    1.3190    4.9190 hc        1 3DP      0.058200
     33 HAL2        5.6540   -0.4620    5.2550 hc        1 3DP      0.058200
     34 HAN1        7.9950   -0.6350    4.2410 hx        1 3DP      0.097200
     35 HAN2        7.9740    1.1790    3.9810 hx        1 3DP      0.097200
     36 HAB1        8.1900    1.9470    7.6100 hx        1 3DP      0.103867
     37 HAB2        7.7020    2.6160    5.9750 hx        1 3DP      0.103867
     38 HAB3        6.5450    1.5510    6.9180 hx        1 3DP      0.103867
     39 HAC1        8.3740   -0.5620    7.8640 hx        1 3DP      0.103867
     40 HAC2        6.8140   -0.8200    6.9240 hx        1 3DP      0.103867
     41 HAC3        8.4090   -1.5760    6.3580 hx        1 3DP      0.103867
     42 HAO1       10.0430   -0.1860    5.2280 hx        1 3DP      0.107700
     43 HAO2        9.8000    1.6410    5.1580 hx        1 3DP      0.107700
     44 HAM1       10.9250    1.9400    7.0840 hc        1 3DP      0.053200
     45 HAM2        9.9250    0.7550    8.0090 hc        1 3DP      0.053200
     46 HAP1       12.2600   -0.0290    6.1550 h1        1 3DP      0.086200
     47 HAP2       12.3450    0.1570    7.9340 h1        1 3DP      0.086200
@<TRIPOS>BOND
     1    1    2 1   
     2    1   19 1   
     3    1   20 1   
     4    1   21 1   
     5    2    3 1   
     6    2   22 1   
     7    2   23 1   
     8    3    4 1   
     9    3   24 1   
    10    3   25 1   
    11    4    5 1   
    12    4   26 1   
    13    4   27 1   
    14    5    6 1   
    15    5   28 1   
    16    5   29 1   
    17    6    7 1   
    18    6   30 1   
    19    6   31 1   
    20    7    8 1   
    21    7   32 1   
    22    7   33 1   
    23    8    9 1   
    24    8   34 1   
    25    8   35 1   
    26    9   10 1   
    27    9   11 1   
    28    9   12 1   
    29   10   36 1   
    30   10   37 1   
    31   10   38 1   
    32   11   39 1   
    33   11   40 1   
    34   11   41 1   
    35   12   13 1   
    36   12   42 1   
    37   12   43 1   
    38   13   14 1   
    39   13   44 1   
    40   13   45 1   
    41   14   15 1   
    42   14   46 1   
    43   14   47 1   
    44   15   16 1   
    45   15   17 1   
    46   15   18 1   
@<TRIPOS>SUBSTRUCTURE
     1 3DP         1 TEMP              0 ****  ****    0 ROOT
