@<TRIPOS>MOLECULE
3DP
   47    46     1     0     0
SMALL
bcc


@<TRIPOS>ATOM
      1 CAA         0.2470    0.4920   -0.0560 c3        1 3DP     -0.093100
      2 CAG         1.7490    0.4540    0.0630 c3        1 3DP     -0.080400
      3 CAH         2.1850    0.2210    1.4940 c3        1 3DP     -0.079400
      4 CAI         3.6940    0.1850    1.6090 c3        1 3DP     -0.079400
      5 CAJ         4.1280   -0.0490    3.0410 c3        1 3DP     -0.078400
      6 CAK         5.6370   -0.0830    3.1530 c3        1 3DP     -0.080400
      7 CAL         6.0650   -0.3180    4.5890 c3        1 3DP     -0.099400
      8 CAN         7.5850   -0.3610    4.6550 c3        1 3DP      0.110800
      9 NAQ         8.1750   -0.5210    6.0330 n4        1 3DP     -0.587800
     10 CAB         7.9180    0.7170    6.8270 c3        1 3DP      0.071100
     11 CAC         7.5730   -1.6920    6.7220 c3        1 3DP      0.071100
     12 CAO         9.6610   -0.7480    5.8450 c3        1 3DP      0.099800
     13 CAM        10.4920   -0.8920    7.1200 c3        1 3DP     -0.039400
     14 CAP        11.6420    0.0760    7.1210 c3        1 3DP     -0.306600
     15 SAR        11.1290    1.7860    7.2860 s6        1 3DP      1.434800
     16 OAF        10.1610    1.7390    8.3210 o         1 3DP     -0.744533
     17 OAE        12.2990    2.5030    7.5400 o         1 3DP     -0.744533
     18 OAD        10.4910    2.0380    6.0330 o         1 3DP     -0.744533
     19 HAA1       -0.1780    1.3150    0.5680 hc        1 3DP      0.034700
     20 HAA2       -0.0520    0.6640   -1.1180 hc        1 3DP      0.034700
     21 HAA3       -0.2010   -0.4730    0.2840 hc        1 3DP      0.034700
     22 HAG1        2.1810    1.4210   -0.3060 hc        1 3DP      0.039700
     23 HAG2        2.1590   -0.3610   -0.5900 hc        1 3DP      0.039700
     24 HAH1        1.7770    1.0360    2.1480 hc        1 3DP      0.041200
     25 HAH2        1.7560   -0.7470    1.8650 hc        1 3DP      0.041200
     26 HAI1        4.1230    1.1530    1.2400 hc        1 3DP      0.043700
     27 HAI2        4.1020   -0.6300    0.9540 hc        1 3DP      0.043700
     28 HAJ1        3.6990   -1.0180    3.4100 hc        1 3DP      0.043700
     29 HAJ2        3.7190    0.7660    3.6950 hc        1 3DP      0.043700
     30 HAK1        6.0640    0.8880    2.7850 hc        1 3DP      0.051700
     31 HAK2        6.0450   -0.8970    2.4970 hc        1 3DP      0.051700
     32 HAL1        5.6590    0.5060    5.2340 hc        1 3DP      0.058200
     33 HAL2        5.6280   -1.2840    4.9540 hc        1 3DP      0.058200
     34 HAN1        7.9520   -1.2220    4.0260 hx        1 3DP      0.097200
     35 HAN2        8.0090    0.5980    4.2320 hx        1 3DP      0.097200
     36 HAB1        8.4270    1.5940    6.3240 hx        1 3DP      0.103867
     37 HAB2        6.8140    0.8850    6.9010 hx        1 3DP      0.103867
     38 HAB3        8.3640    0.6250    7.8590 hx        1 3DP      0.103867
     39 HAC1        8.1320   -1.8860    7.6760 hx        1 3DP      0.103867
     40 HAC2        7.6400   -2.5930    6.0580 hx        1 3DP      0.103867
     41 HAC3        6.4990   -1.4780    6.9630 hx        1 3DP      0.103867
     42 HAO1        9.7620   -1.6840    5.2270 hx        1 3DP      0.107700
     43 HAO2       10.0410    0.1390    5.2450 hx        1 3DP      0.107700
     44 HAM1        9.8880   -0.7180    8.0510 hc        1 3DP      0.053200
     45 HAM2       10.8700   -1.9480    7.1680 hc        1 3DP      0.053200
     46 HAP1       12.2480   -0.0340    6.1910 h1        1 3DP      0.086200
     47 HAP2       12.3190   -0.1690    7.9760 h1        1 3DP      0.086200
@<TRIPOS>BOND
     1    1    2 1   
     2    1   19 1   
     3    1   20 1   
     4    1   21 1   
     5    2    3 1   
     6    2   22 1   
     7    2   23 1   
     8    3    4 1   
     9    3   24 1   
    10    3   25 1   
    11    4    5 1   
    12    4   26 1   
    13    4   27 1   
    14    5    6 1   
    15    5   28 1   
    16    5   29 1   
    17    6    7 1   
    18    6   30 1   
    19    6   31 1   
    20    7    8 1   
    21    7   32 1   
    22    7   33 1   
    23    8    9 1   
    24    8   34 1   
    25    8   35 1   
    26    9   10 1   
    27    9   11 1   
    28    9   12 1   
    29   10   36 1   
    30   10   37 1   
    31   10   38 1   
    32   11   39 1   
    33   11   40 1   
    34   11   41 1   
    35   12   13 1   
    36   12   42 1   
    37   12   43 1   
    38   13   14 1   
    39   13   44 1   
    40   13   45 1   
    41   14   15 1   
    42   14   46 1   
    43   14   47 1   
    44   15   16 1   
    45   15   17 1   
    46   15   18 1   
@<TRIPOS>SUBSTRUCTURE
     1 3DP         1 TEMP              0 ****  ****    0 ROOT
