@<TRIPOS>MOLECULE
3DP
   47    45     1     0     0
SMALL
bcc


@<TRIPOS>ATOM
      1 CAA        -6.5420   -0.0770   -4.3920 c3        1 3DP     -0.093100
      2 CAG        -5.0090   -0.0770   -4.3920 c3        1 3DP     -0.080400
      3 CAH        -4.4950   -0.0770   -2.9410 c3        1 3DP     -0.079400
      4 CAI        -2.9510   -0.0180   -2.9410 c3        1 3DP     -0.079400
      5 CAJ        -2.4340   -0.0340   -1.4820 c3        1 3DP     -0.078400
      6 CAK        -0.8850    0.0030   -1.4830 c3        1 3DP     -0.080400
      7 CAL        -0.3660   -0.0060   -0.0180 c3        1 3DP     -0.099400
      8 CAN         1.1860    0.0530   -0.0170 c3        1 3DP      0.110800
      9 NAQ         1.6800    0.0360    1.3710 n4        1 3DP     -0.587800
     10 CAB         1.2440    1.2340    2.0520 c3        1 3DP      0.071100
     11 CAC         1.1580   -1.1270    2.0540 c3        1 3DP      0.071100
     12 CAO         3.1510   -0.0180    1.3670 c3        1 3DP      0.099800
     13 CAM         3.6760    0.0580    2.8220 c3        1 3DP     -0.039400
     14 CAP         5.2190    0.0230    2.8160 c3        1 3DP     -0.341100
     15 SAR         5.8260    0.0610    4.5020 s4        1 3DP      1.654500
     16 OAF         5.4550   -1.2000    5.2450 o         1 3DP     -0.700900
     17 OAE         7.3380   -0.0070    4.5420 o         1 3DP     -0.700900
     18 OAD         5.3130    1.2890    5.2140 os        1 3DP     -1.017000
     19 HAA1       -6.8670   -0.0880   -5.3130 hc        1 3DP      0.034700
     20 HAA2       -6.8670    0.7260   -3.9420 hc        1 3DP      0.034700
     21 HAA3       -6.8670   -0.8680   -3.9220 hc        1 3DP      0.034700
     22 HAG1       -4.6830    0.7200   -4.8530 hc        1 3DP      0.039700
     23 HAG2       -4.6830   -0.8740   -4.8530 hc        1 3DP      0.039700
     24 HAH1       -4.8500    0.7010   -2.4700 hc        1 3DP      0.041200
     25 HAH2       -4.7900   -0.8920   -2.4910 hc        1 3DP      0.041200
     26 HAI1       -2.5960   -0.7910   -3.4200 hc        1 3DP      0.043700
     27 HAI2       -2.6570    0.8010   -3.3820 hc        1 3DP      0.043700
     28 HAJ1       -2.7780    0.7470   -1.0070 hc        1 3DP      0.043700
     29 HAJ2       -2.7400   -0.8470   -1.0370 hc        1 3DP      0.043700
     30 HAK1       -0.5420   -0.7790   -1.9550 hc        1 3DP      0.051700
     31 HAK2       -0.5790    0.8140   -1.9320 hc        1 3DP      0.051700
     32 HAL1       -0.7210    0.7700    0.4580 hc        1 3DP      0.058200
     33 HAL2       -0.6610   -0.8230    0.4270 hc        1 3DP      0.058200
     34 HAN1        1.4810    0.8720   -0.4570 hx        1 3DP      0.097200
     35 HAN2        1.5410   -0.7200   -0.4980 hx        1 3DP      0.097200
     36 HAB1        0.3020    1.3970    1.8530 hx        1 3DP      0.103867
     37 HAB2        1.7770    1.9930    1.7490 hx        1 3DP      0.103867
     38 HAB3        1.3580    1.1200    3.0150 hx        1 3DP      0.103867
     39 HAC1        1.2920   -1.9180    1.4990 hx        1 3DP      0.103867
     40 HAC2        1.6240   -1.2420    2.9030 hx        1 3DP      0.103867
     41 HAC3        0.2040   -1.0040    2.2200 hx        1 3DP      0.103867
     42 HAO1        3.4440   -0.8540    0.9590 hx        1 3DP      0.107700
     43 HAO2        3.5020    0.7350    0.8550 hx        1 3DP      0.107700
     44 HAM1        3.3710    0.8880    3.2360 hc        1 3DP      0.053200
     45 HAM2        3.3360   -0.7030    3.3310 hc        1 3DP      0.053200
     46 HAP1        5.5600    0.7980    2.3300 h1        1 3DP      0.086200
     47 HAP2        5.5250   -0.7940    2.3780 h1        1 3DP      0.086200
@<TRIPOS>BOND
     1    1    2 1   
     2    1   19 1   
     3    1   20 1   
     4    1   21 1   
     5    2    3 1   
     6    2   22 1   
     7    2   23 1   
     8    3    4 1   
     9    3   24 1   
    10    3   25 1   
    11    4    5 1   
    12    4   26 1   
    13    4   27 1   
    14    5    6 1   
    15    5   28 1   
    16    5   29 1   
    17    6    7 1   
    18    6   30 1   
    19    6   31 1   
    20    7    8 1   
    21    7   32 1   
    22    7   33 1   
    23    8    9 1   
    24    8   34 1   
    25    8   35 1   
    26    9   10 1   
    27    9   11 1   
    28    9   12 1   
    29   10   36 1   
    30   10   37 1   
    31   10   38 1   
    32   11   39 1   
    33   11   40 1   
    34   11   41 1   
    35   12   13 1   
    36   12   42 1   
    37   12   43 1   
    38   13   14 1   
    39   13   44 1   
    40   13   45 1   
    41   14   15 1   
    42   14   46 1   
    43   14   47 1   
    44   15   16 1   
    45   15   17 1   
@<TRIPOS>SUBSTRUCTURE
     1 3DP         1 TEMP              0 ****  ****    0 ROOT
