@<TRIPOS>MOLECULE
3DP
   47    46     1     0     0
SMALL
bcc


@<TRIPOS>ATOM
      1 CAA         9.4090   -0.4030   -0.4920 c3        1 3DP     -0.093100
      2 CAG         8.1570    0.4350   -0.4870 c3        1 3DP     -0.080400
      3 CAH         6.9280   -0.4060   -0.2160 c3        1 3DP     -0.079400
      4 CAI         5.6730    0.4410   -0.2120 c3        1 3DP     -0.079400
      5 CAJ         4.4450   -0.4020    0.0580 c3        1 3DP     -0.078400
      6 CAK         3.1920    0.4480    0.0620 c3        1 3DP     -0.080400
      7 CAL         1.9660   -0.4030    0.3330 c3        1 3DP     -0.099400
      8 CAN         0.7340    0.4900    0.3460 c3        1 3DP      0.110800
      9 NAQ        -0.5840   -0.2180    0.5350 n4        1 3DP     -0.587800
     10 CAB        -0.8790   -1.0420   -0.6740 c3        1 3DP      0.071100
     11 CAC        -0.5360   -1.0900    1.7370 c3        1 3DP      0.071100
     12 CAO        -1.6310    0.8600    0.7270 c3        1 3DP      0.099800
     13 CAM        -3.0740    0.3820    0.8930 c3        1 3DP     -0.039400
     14 CAP        -3.9790    1.0610   -0.0980 c3        1 3DP     -0.306600
     15 SAR        -3.6840    0.5530   -1.7920 s6        1 3DP      1.434800
     16 OAF        -3.5680   -0.8570   -1.6950 o         1 3DP     -0.744533
     17 OAE        -4.7610    1.0550   -2.5230 o         1 3DP     -0.744533
     18 OAD        -2.4070    1.1300   -2.0680 o         1 3DP     -0.744533
     19 HAA1       10.3030    0.2360   -0.6930 hc        1 3DP      0.034700
     20 HAA2        9.5510   -0.9070    0.4950 hc        1 3DP      0.034700
     21 HAA3        9.3540   -1.1900   -1.2820 hc        1 3DP      0.034700
     22 HAG1        8.2420    1.2360    0.2950 hc        1 3DP      0.039700
     23 HAG2        8.0460    0.9520   -1.4770 hc        1 3DP      0.039700
     24 HAH1        6.8400   -1.2050   -0.9990 hc        1 3DP      0.041200
     25 HAH2        7.0370   -0.9220    0.7740 hc        1 3DP      0.041200
     26 HAI1        5.7610    1.2410    0.5700 hc        1 3DP      0.043700
     27 HAI2        5.5640    0.9570   -1.2030 hc        1 3DP      0.043700
     28 HAJ1        4.3570   -1.2000   -0.7250 hc        1 3DP      0.043700
     29 HAJ2        4.5550   -0.9190    1.0480 hc        1 3DP      0.043700
     30 HAK1        3.2810    1.2460    0.8450 hc        1 3DP      0.051700
     31 HAK2        3.0840    0.9630   -0.9290 hc        1 3DP      0.051700
     32 HAL1        1.8810   -1.1910   -0.4620 hc        1 3DP      0.058200
     33 HAL2        2.0850   -0.9240    1.3190 hc        1 3DP      0.058200
     34 HAN1        0.8390    1.2410    1.1800 hx        1 3DP      0.097200
     35 HAN2        0.6620    1.0490   -0.6340 hx        1 3DP      0.097200
     36 HAB1       -0.0610   -1.7910   -0.8190 hx        1 3DP      0.103867
     37 HAB2       -1.8690   -1.5710   -0.5610 hx        1 3DP      0.103867
     38 HAB3       -0.9680   -0.3630   -1.5750 hx        1 3DP      0.103867
     39 HAC1       -0.1750   -0.4970    2.6170 hx        1 3DP      0.103867
     40 HAC2       -1.5660   -1.4840    1.9480 hx        1 3DP      0.103867
     41 HAC3        0.1550   -1.9530    1.5510 hx        1 3DP      0.103867
     42 HAO1       -1.3240    1.4390    1.6430 hx        1 3DP      0.107700
     43 HAO2       -1.5590    1.5340   -0.1840 hx        1 3DP      0.107700
     44 HAM1       -3.1790   -0.7290    0.7580 hc        1 3DP      0.053200
     45 HAM2       -3.3970    0.6160    1.9420 hc        1 3DP      0.053200
     46 HAP1       -5.0390    0.8200    0.1600 h1        1 3DP      0.086200
     47 HAP2       -3.8770    2.1690   -0.0270 h1        1 3DP      0.086200
@<TRIPOS>BOND
     1    1    2 1   
     2    1   19 1   
     3    1   20 1   
     4    1   21 1   
     5    2    3 1   
     6    2   22 1   
     7    2   23 1   
     8    3    4 1   
     9    3   24 1   
    10    3   25 1   
    11    4    5 1   
    12    4   26 1   
    13    4   27 1   
    14    5    6 1   
    15    5   28 1   
    16    5   29 1   
    17    6    7 1   
    18    6   30 1   
    19    6   31 1   
    20    7    8 1   
    21    7   32 1   
    22    7   33 1   
    23    8    9 1   
    24    8   34 1   
    25    8   35 1   
    26    9   10 1   
    27    9   11 1   
    28    9   12 1   
    29   10   36 1   
    30   10   37 1   
    31   10   38 1   
    32   11   39 1   
    33   11   40 1   
    34   11   41 1   
    35   12   13 1   
    36   12   42 1   
    37   12   43 1   
    38   13   14 1   
    39   13   44 1   
    40   13   45 1   
    41   14   15 1   
    42   14   46 1   
    43   14   47 1   
    44   15   16 1   
    45   15   17 1   
    46   15   18 1   
@<TRIPOS>SUBSTRUCTURE
     1 3DP         1 TEMP              0 ****  ****    0 ROOT
