@<TRIPOS>MOLECULE
3DQ
   39    40     1     0     0
SMALL
bcc


@<TRIPOS>ATOM
      1 CAA        -0.7320   -0.2070    0.8170 c3        1 3DQ      0.118700
      2 OAN         0.6170   -0.3030    0.3840 os        1 3DQ     -0.341900
      3 CAR         1.5800   -0.1720    1.3750 ca        1 3DQ      0.099100
      4 CAK         2.9070   -0.2360    0.9210 ca        1 3DQ     -0.185000
      5 CAI         3.9430   -0.1190    1.8430 ca        1 3DQ     -0.092500
      6 CAJ         1.2960    0.0080    2.7340 ca        1 3DQ     -0.185000
      7 CAH         2.3460    0.1220    3.6420 ca        1 3DQ     -0.092500
      8 CAQ         3.6760    0.0590    3.2040 ca        1 3DQ     -0.098300
      9 CAL         4.7840    0.1550    4.1950 c3        1 3DQ     -0.038100
     10 CAU         4.8380    1.5260    4.8700 c3        1 3DQ     -0.159700
     11 CAP         6.1200    2.2310    4.5080 c         1 3DQ      0.565100
     12 OAC         6.1820    3.2050    3.7520 o         1 3DQ     -0.553100
     13 CAT         7.3770    1.6890    5.1680 c3        1 3DQ      0.005100
     14 OAF         8.5390    2.3810    4.7550 oh        1 3DQ     -0.590800
     15 CAS         7.1930    1.7370    6.6960 c3        1 3DQ      0.120100
     16 OAE         8.3520    1.2630    7.3600 oh        1 3DQ     -0.594800
     17 CAM         5.9580    0.9380    7.0860 c3        1 3DQ     -0.097400
     18 CAV         4.6960    1.4610    6.4100 c3        1 3DQ      0.030800
     19 CAO         3.4710    0.5650    6.7950 c         1 3DQ      0.900600
     20 OAB         3.6500   -0.6670    6.9740 o         1 3DQ     -0.819300
     21 OAD         2.3630    1.1650    6.8890 o         1 3DQ     -0.819300
     22 OAG         4.4820    2.7910    6.8730 oh        1 3DQ     -0.635800
     23 HAA1       -0.9770   -1.0290    1.5340 h1        1 3DQ      0.036367
     24 HAA2       -1.3230   -0.3200   -0.1260 h1        1 3DQ      0.036367
     25 HAA3       -0.9280    0.7870    1.2870 h1        1 3DQ      0.036367
     26 HAK         3.1100   -0.3750   -0.1480 ha        1 3DQ      0.132500
     27 HAJ         0.2610    0.0590    3.0990 ha        1 3DQ      0.132500
     28 HAI         4.9840   -0.1640    1.4900 ha        1 3DQ      0.160500
     29 HAH         2.1370    0.2640    4.7220 ha        1 3DQ      0.160500
     30 HAL1        4.6300   -0.6400    4.9820 hc        1 3DQ      0.068700
     31 HAL2        5.7610   -0.0640    3.6870 hc        1 3DQ      0.068700
     32 HAU         3.9750    2.1540    4.5030 hc        1 3DQ      0.092700
     33 HAT         7.5520    0.6260    4.8370 h1        1 3DQ      0.083700
     34 HAF         8.3310    3.3250    4.7750 ho        1 3DQ      0.409000
     35 HAS         7.0960    2.8060    7.0380 h1        1 3DQ      0.090700
     36 HAE         8.4610    0.3380    7.1110 ho        1 3DQ      0.391000
     37 HAM1        5.8210    0.9970    8.1960 hc        1 3DQ      0.066200
     38 HAM2        6.0800   -0.1420    6.8110 hc        1 3DQ      0.066200
     39 HAG         3.5230    2.8950    6.9910 ho        1 3DQ      0.433000
@<TRIPOS>BOND
     1    1    2 1   
     2    1   23 1   
     3    1   24 1   
     4    1   25 1   
     5    2    3 1   
     6    3    4 ar  
     7    3    6 ar  
     8    4    5 ar  
     9    4   26 1   
    10    5    8 ar  
    11    5   28 1   
    12    6    7 ar  
    13    6   27 1   
    14    7    8 ar  
    15    7   29 1   
    16    8    9 1   
    17    9   10 1   
    18    9   30 1   
    19    9   31 1   
    20   10   11 1   
    21   10   18 1   
    22   10   32 1   
    23   11   12 2   
    24   11   13 1   
    25   13   14 1   
    26   13   15 1   
    27   13   33 1   
    28   14   34 1   
    29   15   16 1   
    30   15   17 1   
    31   15   35 1   
    32   16   36 1   
    33   17   18 1   
    34   17   37 1   
    35   17   38 1   
    36   18   19 1   
    37   18   22 1   
    38   19   20 1   
    39   19   21 1   
    40   22   39 1   
@<TRIPOS>SUBSTRUCTURE
     1 3DQ         1 TEMP              0 ****  ****    0 ROOT
