@<TRIPOS>MOLECULE
3DQ
   39    38     1     0     0
SMALL
bcc


@<TRIPOS>ATOM
      1 CAA        -0.4920    2.4810   -5.3040 c3        1 3DQ     -0.071000
      2 OAN         0.6730    1.7110   -5.1080 os        1 3DQ     -0.221000
      3 CAR         0.7170    1.0510   -3.8680 c2        1 3DQ      0.053000
      4 CAK         1.2610    1.6890   -2.7640 c2        1 3DQ     -0.161000
      5 CAI         1.3530    1.0210   -1.5530 c1        1 3DQ     -0.095000
      6 CAJ         0.2650   -0.2550   -3.7610 c1        1 3DQ     -0.209000
      7 CAH         0.3570   -0.9230   -2.5500 c1        1 3DQ     -0.098000
      8 CAQ         0.9010   -0.2850   -1.4460 c1        1 3DQ     -0.081000
      9 CAL         1.0560   -1.0340   -0.1410 c3        1 3DQ     -0.125000
     10 CAU         0.1630   -0.4150    0.9030 c3        1 3DQ     -0.141000
     11 CAP         0.9860    0.2890    1.9990 c2        1 3DQ      0.232000
     12 OAC         2.0780    0.7510    1.7360 o         1 3DQ     -0.299000
     13 CAT         0.1520    0.8940    3.1290 c3        1 3DQ     -0.053000
     14 OAF        -0.5550    2.0810    2.6770 oh        1 3DQ     -0.324000
     15 CAS        -0.7870   -0.1540    3.7060 c3        1 3DQ      0.031000
     16 OAE         0.0020   -1.1310    4.4170 oh        1 3DQ     -0.356000
     17 CAM        -1.6160   -0.8670    2.6840 c3        1 3DQ     -0.188000
     18 CAV        -0.8000   -1.4960    1.5540 c3        1 3DQ      0.011000
     19 CAO        -0.0360   -2.7470    2.0190 c2        1 3DQ      0.324000
     20 OAB         1.1630   -2.6510    2.3890 o         1 3DQ     -0.551000
     21 OAD        -0.6120   -3.8660    2.0360 o         1 3DQ     -0.551000
     22 OAG        -1.6520   -2.0490    0.5790 oh        1 3DQ     -0.373000
     23 HAA1       -0.4700    2.8870   -6.1980 h1        1 3DQ      0.074333
     24 HAA2       -1.2830    1.9050   -5.2260 h1        1 3DQ      0.074333
     25 HAA3       -0.5350    3.1880   -4.6250 h1        1 3DQ      0.074333
     26 HAK         1.5790    2.6090   -2.8390 ha        1 3DQ      0.137000
     27 HAJ        -0.1180   -0.7040   -4.5380 ha        1 3DQ      0.124000
     28 HAI         1.7350    1.4700   -0.7750 ha        1 3DQ      0.161000
     29 HAH         0.0310   -1.8390   -2.4720 ha        1 3DQ      0.139000
     30 HAL1        0.8050   -1.9700   -0.2700 hc        1 3DQ      0.123000
     31 HAL2        1.9870   -0.9840    0.1560 hc        1 3DQ      0.123000
     32 HAU        -0.3380    0.2300    0.3660 hc        1 3DQ      0.104000
     33 HAT         0.7210    1.2690    3.8300 h1        1 3DQ      0.136000
     34 HAF        -0.3920    2.7540    3.2350 ho        1 3DQ      0.201000
     35 HAS        -1.3870    0.2840    4.3420 h1        1 3DQ      0.092000
     36 HAE        -0.1480   -1.0550    5.2900 ho        1 3DQ      0.262000
     37 HAM1       -2.2460   -0.2280    2.2940 hc        1 3DQ      0.093000
     38 HAM2       -2.1230   -1.5730    3.1320 hc        1 3DQ      0.093000
     39 HAG        -2.3980   -2.3390    0.9670 ho        1 3DQ      0.234000
@<TRIPOS>BOND
     1    1    2 1   
     2    1   23 1   
     3    1   24 1   
     4    1   25 1   
     5    2    3 1   
     6    3    4 1   
     7    3    6 1   
     8    4    5 1   
     9    4   26 1   
    10    5   28 1   
    11    6   27 1   
    12    7    8 1   
    13    7   29 1   
    14    8    9 1   
    15    9   10 1   
    16    9   30 1   
    17    9   31 1   
    18   10   11 1   
    19   10   18 1   
    20   10   32 1   
    21   11   12 1   
    22   11   13 1   
    23   13   14 1   
    24   13   15 1   
    25   13   33 1   
    26   14   34 1   
    27   15   16 1   
    28   15   17 1   
    29   15   35 1   
    30   16   36 1   
    31   17   18 1   
    32   17   37 1   
    33   17   38 1   
    34   18   19 1   
    35   18   22 1   
    36   19   20 1   
    37   19   21 1   
    38   22   39 1   
@<TRIPOS>SUBSTRUCTURE
     1 3DQ         1 TEMP              0 ****  ****    0 ROOT
