@<TRIPOS>MOLECULE
3DQ
   39    40     1     0     0
SMALL
bcc


@<TRIPOS>ATOM
      1 CAA        -6.1310    1.6780   -0.4720 c3        1 3DQ      0.118700
      2 OAN        -5.6980    0.4250    0.0360 os        1 3DQ     -0.341900
      3 CAR        -4.3280    0.2900    0.2180 ca        1 3DQ      0.099100
      4 CAK        -3.9170   -0.9650    0.6960 ca        1 3DQ     -0.185500
      5 CAI        -2.5620   -1.1960    0.9130 ca        1 3DQ     -0.092000
      6 CAJ        -3.3930    1.2990   -0.0380 ca        1 3DQ     -0.185500
      7 CAH        -2.0410    1.0510    0.1870 ca        1 3DQ     -0.092000
      8 CAQ        -1.6150   -0.1970    0.6640 ca        1 3DQ     -0.097300
      9 CAL        -0.1670   -0.4310    0.9230 c3        1 3DQ     -0.038100
     10 CAU         0.6610   -0.3960   -0.3620 c3        1 3DQ     -0.156700
     11 CAP         1.2580   -1.7520   -0.6300 c         1 3DQ      0.572100
     12 OAC         0.8790   -2.5120   -1.5280 o         1 3DQ     -0.561100
     13 CAT         2.4140   -2.1510    0.2660 c3        1 3DQ     -0.004900
     14 OAF         2.9690   -3.4120   -0.0720 oh        1 3DQ     -0.615800
     15 CAS         3.5080   -1.0690    0.2080 c3        1 3DQ      0.131100
     16 OAE         4.5470   -1.3790    1.1260 oh        1 3DQ     -0.605800
     17 CAM         2.9310    0.2870    0.5840 c3        1 3DQ     -0.061400
     18 CAV         1.7810    0.6730   -0.3390 c3        1 3DQ      0.027800
     19 CAO         1.1790    2.0550    0.0880 c         1 3DQ      0.900600
     20 OAB         1.1420    2.3540    1.3090 o         1 3DQ     -0.818800
     21 OAD         0.7510    2.7780   -0.8570 o         1 3DQ     -0.818800
     22 OAG         2.3030    0.7670   -1.6620 oh        1 3DQ     -0.638800
     23 HAA1       -5.6830    1.8760   -1.4770 h1        1 3DQ      0.036700
     24 HAA2       -7.2410    1.5630   -0.5520 h1        1 3DQ      0.036700
     25 HAA3       -5.8730    2.5040    0.2360 h1        1 3DQ      0.036700
     26 HAK        -4.6650   -1.7450    0.8890 ha        1 3DQ      0.132000
     27 HAJ        -3.7040    2.2840   -0.4110 ha        1 3DQ      0.132000
     28 HAI        -2.2360   -2.1790    1.2850 ha        1 3DQ      0.159500
     29 HAH        -1.2870    1.8410   -0.0090 ha        1 3DQ      0.159500
     30 HAL1        0.2050    0.3710    1.6250 hc        1 3DQ      0.071200
     31 HAL2       -0.0330   -1.4170    1.4430 hc        1 3DQ      0.071200
     32 HAU        -0.0090   -0.1280   -1.2300 hc        1 3DQ      0.092700
     33 HAT         2.0530   -2.2670    1.3280 h1        1 3DQ      0.093700
     34 HAF         2.8290   -3.5470   -1.0200 ho        1 3DQ      0.416000
     35 HAS         3.9360   -1.0340   -0.8340 h1        1 3DQ      0.050700
     36 HAE         4.7780   -2.3040    0.9690 ho        1 3DQ      0.401000
     37 HAM1        2.5580    0.2810    1.6410 hc        1 3DQ      0.071700
     38 HAM2        3.7360    1.0610    0.5090 hc        1 3DQ      0.071700
     39 HAG         1.8690    1.5280   -2.0810 ho        1 3DQ      0.433000
@<TRIPOS>BOND
     1    1    2 1   
     2    1   23 1   
     3    1   24 1   
     4    1   25 1   
     5    2    3 1   
     6    3    4 ar  
     7    3    6 ar  
     8    4    5 ar  
     9    4   26 1   
    10    5    8 ar  
    11    5   28 1   
    12    6    7 ar  
    13    6   27 1   
    14    7    8 ar  
    15    7   29 1   
    16    8    9 1   
    17    9   10 1   
    18    9   30 1   
    19    9   31 1   
    20   10   11 1   
    21   10   18 1   
    22   10   32 1   
    23   11   12 2   
    24   11   13 1   
    25   13   14 1   
    26   13   15 1   
    27   13   33 1   
    28   14   34 1   
    29   15   16 1   
    30   15   17 1   
    31   15   35 1   
    32   16   36 1   
    33   17   18 1   
    34   17   37 1   
    35   17   38 1   
    36   18   19 1   
    37   18   22 1   
    38   19   20 1   
    39   19   21 1   
    40   22   39 1   
@<TRIPOS>SUBSTRUCTURE
     1 3DQ         1 TEMP              0 ****  ****    0 ROOT
