@<TRIPOS>MOLECULE
3DQ
   39    40     1     0     0
SMALL
bcc


@<TRIPOS>ATOM
      1 CAA        -0.7220   -0.2290    0.7680 c3        1 3DQ      0.118700
      2 OAN         0.6320   -0.3170    0.3480 os        1 3DQ     -0.341900
      3 CAR         1.5830   -0.1900    1.3510 ca        1 3DQ      0.099100
      4 CAK         2.9160   -0.2520    0.9130 ca        1 3DQ     -0.185500
      5 CAI         3.9410   -0.1380    1.8470 ca        1 3DQ     -0.092000
      6 CAJ         1.2840   -0.0160    2.7080 ca        1 3DQ     -0.185500
      7 CAH         2.3230    0.0950    3.6280 ca        1 3DQ     -0.092000
      8 CAQ         3.6580    0.0350    3.2060 ca        1 3DQ     -0.097300
      9 CAL         4.7530    0.1290    4.2110 c3        1 3DQ     -0.038100
     10 CAU         4.8010    1.5000    4.8850 c3        1 3DQ     -0.156700
     11 CAP         6.0820    2.2070    4.5300 c         1 3DQ      0.572100
     12 OAC         6.1530    3.1740    3.7640 o         1 3DQ     -0.561100
     13 CAT         7.3340    1.6790    5.2050 c3        1 3DQ     -0.004900
     14 OAF         8.4970    2.4210    4.8760 oh        1 3DQ     -0.615800
     15 CAS         7.1330    1.6790    6.7320 c3        1 3DQ      0.131100
     16 OAE         8.2570    1.0860    7.3700 oh        1 3DQ     -0.605800
     17 CAM         5.8970    0.8740    7.1030 c3        1 3DQ     -0.061400
     18 CAV         4.6510    1.4310    6.4250 c3        1 3DQ      0.027800
     19 CAO         3.3970    0.5660    6.7910 c         1 3DQ      0.900600
     20 OAB         3.5340   -0.6740    6.9480 o         1 3DQ     -0.818800
     21 OAD         2.3080    1.2000    6.8910 o         1 3DQ     -0.818800
     22 OAG         4.4660    2.7640    6.8920 oh        1 3DQ     -0.638800
     23 HAA1       -1.3020   -0.3400   -0.1830 h1        1 3DQ      0.036700
     24 HAA2       -0.9710   -1.0560    1.4780 h1        1 3DQ      0.036700
     25 HAA3       -0.9280    0.7620    1.2400 h1        1 3DQ      0.036700
     26 HAK         3.1310   -0.3870   -0.1550 ha        1 3DQ      0.132000
     27 HAJ         0.2450    0.0340    3.0610 ha        1 3DQ      0.132000
     28 HAI         4.9870   -0.1830    1.5060 ha        1 3DQ      0.159500
     29 HAH         2.1020    0.2310    4.7070 ha        1 3DQ      0.159500
     30 HAL1        4.5860   -0.6650    4.9970 hc        1 3DQ      0.071200
     31 HAL2        5.7370   -0.0950    3.7180 hc        1 3DQ      0.071200
     32 HAU         3.9390    2.1270    4.5140 hc        1 3DQ      0.092700
     33 HAT         7.5470    0.6300    4.8520 h1        1 3DQ      0.093700
     34 HAF         8.2200    3.3260    4.6790 ho        1 3DQ      0.416000
     35 HAS         7.0260    2.7420    7.0900 h1        1 3DQ      0.050700
     36 HAE         9.0370    1.5090    6.9880 ho        1 3DQ      0.401000
     37 HAM1        5.7560    0.9090    8.2130 hc        1 3DQ      0.071700
     38 HAM2        6.0190   -0.2000    6.8070 hc        1 3DQ      0.071700
     39 HAG         3.5100    2.8900    7.0110 ho        1 3DQ      0.433000
@<TRIPOS>BOND
     1    1    2 1   
     2    1   23 1   
     3    1   24 1   
     4    1   25 1   
     5    2    3 1   
     6    3    4 ar  
     7    3    6 ar  
     8    4    5 ar  
     9    4   26 1   
    10    5    8 ar  
    11    5   28 1   
    12    6    7 ar  
    13    6   27 1   
    14    7    8 ar  
    15    7   29 1   
    16    8    9 1   
    17    9   10 1   
    18    9   30 1   
    19    9   31 1   
    20   10   11 1   
    21   10   18 1   
    22   10   32 1   
    23   11   12 2   
    24   11   13 1   
    25   13   14 1   
    26   13   15 1   
    27   13   33 1   
    28   14   34 1   
    29   15   16 1   
    30   15   17 1   
    31   15   35 1   
    32   16   36 1   
    33   17   18 1   
    34   17   37 1   
    35   17   38 1   
    36   18   19 1   
    37   18   22 1   
    38   19   20 1   
    39   19   21 1   
    40   22   39 1   
@<TRIPOS>SUBSTRUCTURE
     1 3DQ         1 TEMP              0 ****  ****    0 ROOT
