@<TRIPOS>MOLECULE
3DR
   21    21     1     0     0
SMALL
bcc


@<TRIPOS>ATOM
      1 O5'         1.6150   -1.2540   -0.6110 os        1 3DR     -0.568200
      2 P           3.2070   -1.1180   -0.7340 p5        1 3DR      1.327900
      3 OP1         3.8300   -1.2400    0.6300 o         1 3DR     -0.931833
      4 OP2         3.5650    0.2610   -1.3410 o         1 3DR     -0.931833
      5 OP3         3.7320   -2.2080   -1.6220 o         1 3DR     -0.931833
      6 C2'        -1.7870    1.2730    0.2170 c3        1 3DR     -0.115400
      7 C5'         0.8850   -0.1610   -0.1500 c3        1 3DR      0.211400
      8 C4'        -0.4710   -0.6030    0.2370 c3        1 3DR      0.067100
      9 O4'        -0.8040   -0.1190    1.7810 os        1 3DR     -0.456600
     10 C1'        -1.1750    1.1210    1.6950 c3        1 3DR      0.145400
     11 C3'        -1.3780   -0.0220   -0.5400 c3        1 3DR      0.127100
     12 O3'        -2.5550   -0.9080   -0.7110 oh        1 3DR     -0.674800
     13 H2'        -2.7420    1.3430    0.2600 hc        1 3DR      0.030700
     14 H2''       -1.4140    2.0500   -0.2220 hc        1 3DR      0.030700
     15 H5'         1.3350    0.2310    0.6310 h1        1 3DR      0.001200
     16 H5''        0.8190    0.5180   -0.8690 h1        1 3DR      0.001200
     17 H4'1       -0.5400   -1.5520    0.1690 h1        1 3DR      0.050700
     18 H1'1       -0.4020    1.7150    1.8050 h1        1 3DR     -0.003800
     19 H1'2       -1.8780    1.3270    2.3870 h1        1 3DR     -0.003800
     20 H3'        -0.9860    0.2020   -1.4160 h1        1 3DR      0.139700
     21 HO3'       -2.8570   -0.8570   -1.5960 ho        1 3DR      0.483000
@<TRIPOS>BOND
     1    1    2 1   
     2    1    7 1   
     3    2    3 1   
     4    2    4 1   
     5    2    5 1   
     6    6   10 1   
     7    6   11 1   
     8    6   13 1   
     9    6   14 1   
    10    7    8 1   
    11    7   15 1   
    12    7   16 1   
    13    8    9 1   
    14    8   11 1   
    15    8   17 1   
    16    9   10 1   
    17   10   18 1   
    18   10   19 1   
    19   11   12 1   
    20   11   20 1   
    21   12   21 1   
@<TRIPOS>SUBSTRUCTURE
     1 3DR         1 TEMP              0 ****  ****    0 ROOT
