@<TRIPOS>MOLECULE
3DR
   21    21     1     0     0
SMALL
bcc


@<TRIPOS>ATOM
      1 O5'        -0.3350    0.5900   -0.9980 os        1 3DR     -0.564200
      2 P           1.0120   -0.2280   -1.7320 p5        1 3DR      1.331900
      3 OP1         0.4160   -1.5590   -2.0930 o         1 3DR     -0.934167
      4 OP2         1.4000    0.6870   -2.8550 o         1 3DR     -0.934167
      5 OP3         1.9420   -0.2640   -0.5350 o         1 3DR     -0.934167
      6 C2'         0.2160   -0.4450    3.5180 c3        1 3DR     -0.123400
      7 C5'        -0.9260   -0.1070    0.0220 c3        1 3DR      0.231400
      8 C4'        -0.5500    0.4990    1.3940 c3        1 3DR      0.067100
      9 O4'        -1.6830    0.3710    2.2880 os        1 3DR     -0.451600
     10 C1'        -1.2660   -0.1030    3.5600 c3        1 3DR      0.143400
     11 C3'         0.6550   -0.1880    2.0670 c3        1 3DR      0.159100
     12 O3'         1.7900    0.6490    2.0800 oh        1 3DR     -0.679800
     13 H5'        -0.6360   -1.1950   -0.0070 h1        1 3DR     -0.002300
     14 H5''       -2.0510   -0.0310   -0.0700 h1        1 3DR     -0.002300
     15 H4'1       -0.3520    1.5990    1.2790 h1        1 3DR      0.056700
     16 H1'1       -1.8980   -0.9980    3.8010 h1        1 3DR     -0.003800
     17 H1'2       -1.4860    0.7010    4.3120 h1        1 3DR     -0.003800
     18 H3'         0.9060   -1.1500    1.5400 h1        1 3DR      0.087700
     19 HO3'        2.1440    0.6160    1.1610 ho        1 3DR      0.499000
     20 H2'         0.3910   -1.5100    3.8000 hc        1 3DR      0.028700
     21 H2''        0.7990    0.2010    4.2190 hc        1 3DR      0.028700
@<TRIPOS>BOND
     1    1    2 1   
     2    1    7 1   
     3    2    3 1   
     4    2    4 1   
     5    2    5 1   
     6    6   10 1   
     7    6   11 1   
     8    6   20 1   
     9    6   21 1   
    10    7    8 1   
    11    7   13 1   
    12    7   14 1   
    13    8    9 1   
    14    8   11 1   
    15    8   15 1   
    16    9   10 1   
    17   10   16 1   
    18   10   17 1   
    19   11   12 1   
    20   11   18 1   
    21   12   19 1   
@<TRIPOS>SUBSTRUCTURE
     1 3DR         1 TEMP              0 ****  ****    0 ROOT
