@<TRIPOS>MOLECULE
3DS
   19    19     1     0     0
SMALL
bcc


@<TRIPOS>ATOM
      1 OAA         0.0780   -0.0560   -0.2230 o         1 3DS     -0.813300
      2 OAB         1.3110   -0.6350    4.7440 o         1 3DS     -0.593100
      3 OAC         2.1310    0.3740   -1.0070 o         1 3DS     -0.813300
      4 OAD         4.8510    0.7160    2.0980 oh        1 3DS     -0.613800
      5 OAE         3.9620   -1.3360    4.6180 oh        1 3DS     -0.607800
      6 CAF         1.3010   -0.0810    2.4170 ce        1 3DS     -0.296200
      7 CAG         3.2900   -0.9410    1.2440 c3        1 3DS     -0.103200
      8 CAH         1.3290    0.0210   -0.0980 c         1 3DS      0.899800
      9 CAI         1.9270   -0.3780    3.6950 c         1 3DS      0.552300
     10 CAJ         1.9410   -0.3230    1.2590 cf        1 3DS     -0.072400
     11 CAK         4.1800   -0.5000    2.4000 c3        1 3DS      0.152100
     12 CAL         3.4500   -0.3330    3.7480 c3        1 3DS      0.012100
     13 HAF         0.2710    0.3070    2.4280 ha        1 3DS      0.166000
     14 HAG         3.1710   -2.0570    1.2750 hc        1 3DS      0.083200
     15 HAGA        3.7980   -0.6780    0.2720 hc        1 3DS      0.083200
     16 HAK         5.0160   -1.2440    2.5450 h1        1 3DS      0.077700
     17 HAL         3.7300    0.6770    4.1770 h1        1 3DS      0.059700
     18 HOAD        4.2210    1.2880    1.6400 ho        1 3DS      0.415000
     19 HOAE        3.3110   -1.4580    5.3240 ho        1 3DS      0.414000
@<TRIPOS>BOND
     1    1    8 1   
     2    2    9 2   
     3    3    8 1   
     4    4   11 1   
     5    4   18 1   
     6    5   12 1   
     7    5   19 1   
     8    6    9 1   
     9    6   10 2   
    10    6   13 1   
    11    7   10 1   
    12    7   11 1   
    13    7   14 1   
    14    7   15 1   
    15    8   10 1   
    16    9   12 1   
    17   11   12 1   
    18   11   16 1   
    19   12   17 1   
@<TRIPOS>SUBSTRUCTURE
     1 3DS         1 TEMP              0 ****  ****    0 ROOT
