@<TRIPOS>MOLECULE
3DS
   19    18     1     0     0
SMALL
bcc


@<TRIPOS>ATOM
      1 OAA        -0.9580   -1.6350   -3.1080 o         1 3DS     -0.546000
      2 OAB         1.1210   -1.7200    2.1690 o         1 3DS     -0.358000
      3 OAC        -2.8630   -1.3170   -2.0950 o         1 3DS     -0.546000
      4 OAD        -1.0480    1.2360    1.3590 oh        1 3DS     -0.334000
      5 OAE         2.4570    0.5380    0.3430 oh        1 3DS     -0.354000
      6 CAF        -0.2410   -1.6630    0.1790 c1        1 3DS     -0.290000
      7 CAG        -0.4060    0.7770   -0.9060 c3        1 3DS     -0.151000
      8 CAH        -1.6060   -1.2490   -2.0990 c2        1 3DS      0.350000
      9 CAI         0.8170   -1.0890    1.1770 c1        1 3DS      0.253000
     10 CAJ        -0.8750   -0.6830   -0.9000 c2        1 3DS     -0.026000
     11 CAK         0.1020    1.2080    0.4310 c3        1 3DS      0.031000
     12 CAL         1.1840    0.3770    1.0700 c3        1 3DS     -0.068000
     13 HOAD       -1.1350    2.0530    1.6970 ho        1 3DS      0.205000
     14 HOAE        3.1310    0.5420    0.9240 ho        1 3DS      0.222000
     15 HAF        -0.5090   -2.6000    0.2210 ha        1 3DS      0.164000
     16 HAG         0.1710    1.0640   -1.6430 hc        1 3DS      0.126500
     17 HAGA       -1.2060    1.3030   -1.1080 hc        1 3DS      0.126500
     18 HAK         0.4400    2.1190    0.3420 h1        1 3DS      0.079000
     19 HAL         1.4240    0.7380    1.9470 h1        1 3DS      0.117000
@<TRIPOS>BOND
     1    1    8 1   
     2    2    9 1   
     3    3    8 1   
     4    4   11 1   
     5    4   13 1   
     6    5   12 1   
     7    5   14 1   
     8    6   10 1   
     9    6   15 1   
    10    7   10 1   
    11    7   11 1   
    12    7   16 1   
    13    7   17 1   
    14    8   10 1   
    15    9   12 1   
    16   11   12 1   
    17   11   18 1   
    18   12   19 1   
@<TRIPOS>SUBSTRUCTURE
     1 3DS         1 TEMP              0 ****  ****    0 ROOT
