@<TRIPOS>MOLECULE
3DS
   19    19     1     0     0
SMALL
bcc


@<TRIPOS>ATOM
      1 OAA         0.0770    1.1020    0.0530 o         1 3DS     -0.811300
      2 OAB         1.5930   -0.6100    4.7620 o         1 3DS     -0.597100
      3 OAC         1.6180   -0.0950   -1.0470 o         1 3DS     -0.811300
      4 OAD         5.5230    0.1050    2.2250 oh        1 3DS     -0.606800
      5 OAE         4.3080   -0.4060    4.7030 oh        1 3DS     -0.626800
      6 CAF         1.3360    0.0280    2.4660 ce        1 3DS     -0.309200
      7 CAG         3.4200    0.3310    1.1370 c3        1 3DS     -0.068200
      8 CAH         1.1450    0.4380   -0.0060 c         1 3DS      0.899800
      9 CAI         2.0730   -0.1830    3.6980 c         1 3DS      0.561300
     10 CAJ         1.9460    0.2580    1.2870 cf        1 3DS     -0.049400
     11 CAK         4.1630   -0.2980    2.3110 c3        1 3DS      0.142100
     12 CAL         3.5530    0.1670    3.6450 c3        1 3DS     -0.006900
     13 HAF         0.2370   -0.0120    2.5270 ha        1 3DS      0.164000
     14 HAG         3.7130   -0.1870    0.1820 hc        1 3DS      0.087200
     15 HAGA        3.7240    1.4080    1.0340 hc        1 3DS      0.087200
     16 HAK         4.1120   -1.4210    2.2560 h1        1 3DS      0.039700
     17 HAL         3.6640    1.2850    3.7380 h1        1 3DS      0.077700
     18 HOAD        5.9430   -0.1850    3.0450 ho        1 3DS      0.406000
     19 HOAE        3.6920   -0.8690    5.2890 ho        1 3DS      0.423000
@<TRIPOS>BOND
     1    1    8 1   
     2    2    9 2   
     3    3    8 1   
     4    4   11 1   
     5    4   18 1   
     6    5   12 1   
     7    5   19 1   
     8    6    9 1   
     9    6   10 2   
    10    6   13 1   
    11    7   10 1   
    12    7   11 1   
    13    7   14 1   
    14    7   15 1   
    15    8   10 1   
    16    9   12 1   
    17   11   12 1   
    18   11   16 1   
    19   12   17 1   
@<TRIPOS>SUBSTRUCTURE
     1 3DS         1 TEMP              0 ****  ****    0 ROOT
