@<TRIPOS>MOLECULE
3DS
   19    19     1     0     0
SMALL
bcc


@<TRIPOS>ATOM
      1 OAA        -3.0000    1.3200   -0.5390 o         1 3DS     -0.811300
      2 OAB         1.9830    1.9970    0.9180 o         1 3DS     -0.597100
      3 OAC        -3.1570   -0.7090    0.3970 o         1 3DS     -0.811300
      4 OAD         1.5390   -2.5210   -0.4170 oh        1 3DS     -0.606800
      5 OAE         3.1880   -0.3620    0.2840 oh        1 3DS     -0.626800
      6 CAF        -0.2060    1.2200    0.3250 ce        1 3DS     -0.309200
      7 CAG        -0.4210   -1.1780   -0.3070 c3        1 3DS     -0.068200
      8 CAH        -2.5020    0.2710   -0.0530 c         1 3DS      0.899800
      9 CAI         1.2400    1.1350    0.4180 c         1 3DS      0.561300
     10 CAJ        -0.9750    0.1630   -0.0010 cf        1 3DS     -0.049400
     11 CAK         1.0070   -1.3550    0.1970 c3        1 3DS      0.142100
     12 CAL         1.8610   -0.1270   -0.1630 c3        1 3DS     -0.006900
     13 HAF        -0.6640    2.1990    0.5400 ha        1 3DS      0.164000
     14 HAG        -1.0870   -1.9590    0.1570 hc        1 3DS      0.087200
     15 HAGA       -0.4490   -1.3400   -1.4190 hc        1 3DS      0.087200
     16 HAK         1.0180   -1.4950    1.3150 h1        1 3DS      0.039700
     17 HAL         1.9110   -0.0220   -1.2840 h1        1 3DS      0.077700
     18 HOAD        2.4790   -2.5380   -0.1970 ho        1 3DS      0.406000
     19 HOAE        3.4500    0.3870    0.8400 ho        1 3DS      0.423000
@<TRIPOS>BOND
     1    1    8 1   
     2    2    9 2   
     3    3    8 1   
     4    4   11 1   
     5    4   18 1   
     6    5   12 1   
     7    5   19 1   
     8    6    9 1   
     9    6   10 2   
    10    6   13 1   
    11    7   10 1   
    12    7   11 1   
    13    7   14 1   
    14    7   15 1   
    15    8   10 1   
    16    9   12 1   
    17   11   12 1   
    18   11   16 1   
    19   12   17 1   
@<TRIPOS>SUBSTRUCTURE
     1 3DS         1 TEMP              0 ****  ****    0 ROOT
