@<TRIPOS>MOLECULE
3DT
   34    35     1     0     0
SMALL
bcc


@<TRIPOS>ATOM
      1 N1         -0.3910   -0.5610   -0.3030 n         1 3DT     -0.387000
      2 C2         -1.5060   -1.2460    0.2600 c         1 3DT      0.809500
      3 O2         -1.4400   -2.4700    0.5020 o         1 3DT     -0.635500
      4 N3         -2.6970   -0.5280    0.4990 n         1 3DT     -0.487400
      5 C4         -2.8060    0.8560    0.2350 c         1 3DT      0.716700
      6 O4         -3.8700    1.4490    0.4830 o         1 3DT     -0.607500
      7 C5         -1.6140    1.5170   -0.3320 cc        1 3DT     -0.246400
      8 C6         -0.4790    0.8000   -0.5480 cd        1 3DT      0.029600
      9 C7         -1.7290    2.9560   -0.6380 c3        1 3DT     -0.031900
     10 CN         -3.8020   -1.2610    1.0680 c3        1 3DT      0.077300
     11 C1'         0.8880   -1.2620   -0.3810 c3        1 3DT      0.304500
     12 C2'         1.6490   -1.0280   -1.7040 c3        1 3DT     -0.155400
     13 C3'         2.8420   -0.1390   -1.3410 c3        1 3DT      0.119100
     14 O3'         4.0690   -0.6790   -1.7980 oh        1 3DT     -0.581800
     15 C4'         2.8960   -0.1320    0.1980 c3        1 3DT      0.088100
     16 O4'         1.7580   -0.8540    0.6880 os        1 3DT     -0.424600
     17 C5'         2.8810    1.2800    0.7810 c3        1 3DT      0.123400
     18 O5'         3.0030    1.2540    2.1860 oh        1 3DT     -0.588800
     19 H6          0.4400    1.2660   -0.9540 h4        1 3DT      0.157000
     20 H7         -2.4320    3.1090   -1.4950 hc        1 3DT      0.052033
     21 H7A        -2.1440    3.5020    0.2460 hc        1 3DT      0.052033
     22 H7B        -0.7360    3.3950   -0.9030 hc        1 3DT      0.052033
     23 HN         -3.5590   -1.5530    2.1250 h1        1 3DT      0.063367
     24 HNA        -4.7210   -0.6180    1.0550 h1        1 3DT      0.063367
     25 HNB        -3.9800   -2.1950    0.4700 h1        1 3DT      0.063367
     26 H1'         0.6880   -2.3610   -0.1930 h2        1 3DT      0.134700
     27 H2'         2.0070   -2.0180   -2.0860 hc        1 3DT      0.080200
     28 H2'A        1.0130   -0.5610   -2.4930 hc        1 3DT      0.080200
     29 H3'         2.7110    0.9010   -1.7480 h1        1 3DT      0.046700
     30 HO3'        4.0310   -0.6830   -2.7620 ho        1 3DT      0.409000
     31 H4'         3.7980   -0.6940    0.5720 h1        1 3DT      0.108700
     32 H5'         3.7770    1.8530    0.4200 h1        1 3DT      0.048700
     33 H5'A        1.9390    1.8150    0.4870 h1        1 3DT      0.048700
     34 HO5'        2.3080    0.6710    2.5220 ho        1 3DT      0.416000
@<TRIPOS>BOND
     1    1    2 1   
     2    1    8 1   
     3    1   11 1   
     4    2    3 2   
     5    2    4 1   
     6    4    5 1   
     7    4   10 1   
     8    5    6 2   
     9    5    7 1   
    10    7    8 2   
    11    7    9 1   
    12    8   19 1   
    13    9   20 1   
    14    9   21 1   
    15    9   22 1   
    16   10   23 1   
    17   10   24 1   
    18   10   25 1   
    19   11   12 1   
    20   11   16 1   
    21   11   26 1   
    22   12   13 1   
    23   12   27 1   
    24   12   28 1   
    25   13   14 1   
    26   13   15 1   
    27   13   29 1   
    28   14   30 1   
    29   15   16 1   
    30   15   17 1   
    31   15   31 1   
    32   17   18 1   
    33   17   32 1   
    34   17   33 1   
    35   18   34 1   
@<TRIPOS>SUBSTRUCTURE
     1 3DT         1 TEMP              0 ****  ****    0 ROOT
