@<TRIPOS>MOLECULE
3DT
   34    35     1     0     0
SMALL
bcc


@<TRIPOS>ATOM
      1 N1         -0.2040   -0.8690    0.2110 n         1 3DT     -0.382000
      2 C2          1.2570   -0.8690    0.2110 c         1 3DT      0.807500
      3 O2          1.8640   -0.8480   -0.8410 o         1 3DT     -0.654500
      4 N3          1.9890   -0.8690    1.4760 n         1 3DT     -0.488400
      5 C4          1.2900   -1.0350    2.7000 c         1 3DT      0.716700
      6 O4          1.9070   -1.1760    3.7370 o         1 3DT     -0.608500
      7 C5         -0.1780   -1.1190    2.7000 cc        1 3DT     -0.248400
      8 C6         -0.9140   -1.0340    1.4290 cd        1 3DT      0.036600
      9 C7         -0.9180   -1.4170    3.9850 c3        1 3DT     -0.030900
     10 CN          3.4070   -0.7460    1.4770 c3        1 3DT      0.077300
     11 C1'        -0.8510   -0.7660   -0.9050 c3        1 3DT      0.316500
     12 C2'        -1.9550    0.2840   -0.7830 c3        1 3DT     -0.134400
     13 C3'        -1.5280    1.3080   -1.4810 c3        1 3DT      0.124100
     14 O3'        -2.6460    1.9810   -2.1120 oh        1 3DT     -0.595800
     15 C4'        -0.5360    0.7040   -2.6080 c3        1 3DT      0.102100
     16 O4'         0.1070   -0.2510   -2.0460 os        1 3DT     -0.422600
     17 C5'         0.4280    1.7740   -3.0800 c3        1 3DT      0.107400
     18 O5'         0.0500    2.2130   -4.3660 oh        1 3DT     -0.588800
     19 H6         -1.8900   -1.0620    1.4280 h4        1 3DT      0.165000
     20 H7         -1.8800   -1.4060    3.8160 hc        1 3DT      0.052033
     21 H7A        -0.6560   -2.2970    4.3160 hc        1 3DT      0.052033
     22 H7B        -0.6980   -0.7390    4.6520 hc        1 3DT      0.052033
     23 HN          3.8110   -1.6330    1.4180 h1        1 3DT      0.062700
     24 HNA         3.6950   -0.3120    2.3030 h1        1 3DT      0.062700
     25 HNB         3.6880   -0.2100    0.7120 h1        1 3DT      0.062700
     26 H1'        -1.2340   -1.6290   -1.1520 h2        1 3DT      0.084700
     27 H2'        -2.0800    0.5380    0.1510 hc        1 3DT      0.081200
     28 H2'A       -2.7900   -0.0570   -1.1580 hc        1 3DT      0.081200
     29 H3'        -1.0440    1.9290   -0.9040 h1        1 3DT      0.086700
     30 HO3'       -2.9000    2.6680   -1.6100 ho        1 3DT      0.408000
     31 H4'        -1.0540    0.3620   -3.3620 h1        1 3DT      0.083700
     32 H5'         0.4080    2.5270   -2.4590 h1        1 3DT      0.067200
     33 H5'A        1.3310    1.4050   -3.1140 h1        1 3DT      0.067200
     34 HO5'        0.7260    2.6510   -4.7390 ho        1 3DT      0.399000
@<TRIPOS>BOND
     1    1    2 1   
     2    1    8 1   
     3    1   11 1   
     4    2    3 2   
     5    2    4 1   
     6    4    5 1   
     7    4   10 1   
     8    5    6 2   
     9    5    7 1   
    10    7    8 2   
    11    7    9 1   
    12    8   19 1   
    13    9   20 1   
    14    9   21 1   
    15    9   22 1   
    16   10   23 1   
    17   10   24 1   
    18   10   25 1   
    19   11   12 1   
    20   11   16 1   
    21   11   26 1   
    22   12   13 1   
    23   12   27 1   
    24   12   28 1   
    25   13   14 1   
    26   13   15 1   
    27   13   29 1   
    28   14   30 1   
    29   15   16 1   
    30   15   17 1   
    31   15   31 1   
    32   17   18 1   
    33   17   32 1   
    34   17   33 1   
    35   18   34 1   
@<TRIPOS>SUBSTRUCTURE
     1 3DT         1 TEMP              0 ****  ****    0 ROOT
