@<TRIPOS>MOLECULE
3DT
   34    35     1     0     0
SMALL
bcc


@<TRIPOS>ATOM
      1 N1         -0.0920   -0.3340   -0.2000 n         1 3DT     -0.387000
      2 C2          1.3050   -0.0620   -0.1350 c         1 3DT      0.809500
      3 O2          2.0100   -0.1280   -1.1650 o         1 3DT     -0.635500
      4 N3          1.8830    0.2400    1.1160 n         1 3DT     -0.486400
      5 C4          1.1160    0.3220    2.2990 c         1 3DT      0.716700
      6 O4          1.6680    0.6130    3.3730 o         1 3DT     -0.607500
      7 C5         -0.3290    0.0460    2.1700 cc        1 3DT     -0.246400
      8 C6         -0.8590   -0.2400    0.9510 cd        1 3DT      0.029600
      9 C7         -1.1330    0.0990    3.4060 c3        1 3DT     -0.031900
     10 CN          3.3010    0.5080    1.1340 c3        1 3DT      0.077300
     11 C1'        -0.7140   -0.4700   -1.5130 c3        1 3DT      0.304500
     12 C2'        -1.7410   -1.6190   -1.6030 c3        1 3DT     -0.155400
     13 C3'        -3.1120   -0.9400   -1.6900 c3        1 3DT      0.119100
     14 O3'        -3.8700   -1.4050   -2.7920 oh        1 3DT     -0.581800
     15 C4'        -2.8170    0.5500   -1.9400 c3        1 3DT      0.088100
     16 O4'        -1.3980    0.7420   -1.8810 os        1 3DT     -0.424600
     17 C5'        -3.4870    1.4640   -0.9150 c3        1 3DT      0.123400
     18 O5'        -3.2570    2.8220   -1.2130 oh        1 3DT     -0.588800
     19 H6         -1.9410   -0.4320    0.8120 h4        1 3DT      0.157000
     20 H7         -0.9230    1.0510    3.9570 hc        1 3DT      0.052033
     21 H7A        -2.2260    0.0430    3.1820 hc        1 3DT      0.052033
     22 H7B        -0.8580   -0.7530    4.0780 hc        1 3DT      0.052033
     23 HN          3.8460   -0.3170    0.6010 h1        1 3DT      0.063367
     24 HNA         3.6530    0.5720    2.1980 h1        1 3DT      0.063367
     25 HNB         3.5120    1.4760    0.6070 h1        1 3DT      0.063367
     26 H1'         0.1170   -0.5800   -2.2760 h2        1 3DT      0.134700
     27 H2'        -1.5400   -2.2020   -2.5380 hc        1 3DT      0.080200
     28 H2'A       -1.6840   -2.3200   -0.7380 hc        1 3DT      0.080200
     29 H3'        -3.6960   -1.0850   -0.7410 h1        1 3DT      0.046700
     30 HO3'       -4.0520   -2.3400   -2.6330 ho        1 3DT      0.409000
     31 H4'        -3.1220    0.8520   -2.9820 h1        1 3DT      0.108700
     32 H5'        -4.6020    1.3380   -0.9620 h1        1 3DT      0.048700
     33 H5'A       -3.1180    1.2290    0.1190 h1        1 3DT      0.048700
     34 HO5'       -2.3000    2.9390   -1.2920 ho        1 3DT      0.416000
@<TRIPOS>BOND
     1    1    2 1   
     2    1    8 1   
     3    1   11 1   
     4    2    3 2   
     5    2    4 1   
     6    4    5 1   
     7    4   10 1   
     8    5    6 2   
     9    5    7 1   
    10    7    8 2   
    11    7    9 1   
    12    8   19 1   
    13    9   20 1   
    14    9   21 1   
    15    9   22 1   
    16   10   23 1   
    17   10   24 1   
    18   10   25 1   
    19   11   12 1   
    20   11   16 1   
    21   11   26 1   
    22   12   13 1   
    23   12   27 1   
    24   12   28 1   
    25   13   14 1   
    26   13   15 1   
    27   13   29 1   
    28   14   30 1   
    29   15   16 1   
    30   15   17 1   
    31   15   31 1   
    32   17   18 1   
    33   17   32 1   
    34   17   33 1   
    35   18   34 1   
@<TRIPOS>SUBSTRUCTURE
     1 3DT         1 TEMP              0 ****  ****    0 ROOT
