@<TRIPOS>MOLECULE
3DT
   34    35     1     0     0
SMALL
bcc


@<TRIPOS>ATOM
      1 N1         -0.0300   -0.3750   -0.1820 n         1 3DT     -0.386000
      2 C2          1.3810   -0.2360   -0.0490 c         1 3DT      0.809500
      3 O2          2.1270   -0.3760   -1.0420 o         1 3DT     -0.637500
      4 N3          1.9240    0.0160    1.2300 n         1 3DT     -0.487400
      5 C4          1.1100    0.1760    2.3730 c         1 3DT      0.716700
      6 O4          1.6350    0.4230    3.4730 o         1 3DT     -0.609500
      7 C5         -0.3450    0.0360    2.1740 cc        1 3DT     -0.247400
      8 C6         -0.8410   -0.2040    0.9300 cd        1 3DT      0.027600
      9 C7         -1.2020    0.1660    3.3690 c3        1 3DT     -0.032900
     10 CN          3.3580    0.1480    1.3180 c3        1 3DT      0.077300
     11 C1'        -0.5970   -0.4490   -1.5250 c3        1 3DT      0.301500
     12 C2'        -1.7400   -1.4760   -1.6650 c3        1 3DT     -0.152400
     13 C3'        -3.0220   -0.6470   -1.7900 c3        1 3DT      0.111100
     14 O3'        -3.7780   -1.0040   -2.9330 oh        1 3DT     -0.589800
     15 C4'        -2.5520    0.8070   -1.9990 c3        1 3DT      0.091100
     16 O4'        -1.1230    0.8280   -1.9320 os        1 3DT     -0.408600
     17 C5'        -3.1150    1.7750   -0.9560 c3        1 3DT      0.111400
     18 O5'        -4.4820    1.5300   -0.7000 oh        1 3DT     -0.597800
     19 H6         -1.9280   -0.2950    0.7400 h4        1 3DT      0.163000
     20 H7         -1.0690   -0.7260    4.0330 hc        1 3DT      0.052367
     21 H7A        -0.9070    1.0740    3.9530 hc        1 3DT      0.052367
     22 H7B        -2.2800    0.2480    3.0880 hc        1 3DT      0.052367
     23 HN          3.6850    1.0890    0.8010 h1        1 3DT      0.062700
     24 HNA         3.8470   -0.7280    0.8130 h1        1 3DT      0.062700
     25 HNB         3.6620    0.1850    2.3970 h1        1 3DT      0.062700
     26 H1'         0.2540   -0.6530   -2.2450 h2        1 3DT      0.134700
     27 H2'        -1.5720   -2.0700   -2.6000 hc        1 3DT      0.079200
     28 H2'A       -1.7920   -2.1870   -0.8060 hc        1 3DT      0.079200
     29 H3'        -3.6620   -0.7310   -0.8690 h1        1 3DT      0.067700
     30 HO3'       -4.1140   -1.8950   -2.7790 ho        1 3DT      0.410000
     31 H4'        -2.8150    1.1540   -3.0370 h1        1 3DT      0.092700
     32 H5'        -2.6050    1.6410    0.0350 h1        1 3DT      0.060200
     33 H5'A       -2.9610    2.8300   -1.3080 h1        1 3DT      0.060200
     34 HO5'       -4.9550    1.6260   -1.5360 ho        1 3DT      0.408000
@<TRIPOS>BOND
     1    1    2 1   
     2    1    8 1   
     3    1   11 1   
     4    2    3 2   
     5    2    4 1   
     6    4    5 1   
     7    4   10 1   
     8    5    6 2   
     9    5    7 1   
    10    7    8 2   
    11    7    9 1   
    12    8   19 1   
    13    9   20 1   
    14    9   21 1   
    15    9   22 1   
    16   10   23 1   
    17   10   24 1   
    18   10   25 1   
    19   11   12 1   
    20   11   16 1   
    21   11   26 1   
    22   12   13 1   
    23   12   27 1   
    24   12   28 1   
    25   13   14 1   
    26   13   15 1   
    27   13   29 1   
    28   14   30 1   
    29   15   16 1   
    30   15   17 1   
    31   15   31 1   
    32   17   18 1   
    33   17   32 1   
    34   17   33 1   
    35   18   34 1   
@<TRIPOS>SUBSTRUCTURE
     1 3DT         1 TEMP              0 ****  ****    0 ROOT
