@<TRIPOS>MOLECULE
3DT
   34    35     1     0     0
SMALL
bcc


@<TRIPOS>ATOM
      1 N1         -0.0850   -0.3160   -0.1980 n         1 3DT     -0.387000
      2 C2          1.3060   -0.0190   -0.1210 c         1 3DT      0.809500
      3 O2          2.0190   -0.0610   -1.1460 o         1 3DT     -0.635500
      4 N3          1.8700    0.2780    1.1380 n         1 3DT     -0.487400
      5 C4          1.0930    0.3310    2.3170 c         1 3DT      0.716700
      6 O4          1.6330    0.6200    3.3980 o         1 3DT     -0.607500
      7 C5         -0.3450    0.0320    2.1740 cc        1 3DT     -0.246400
      8 C6         -0.8620   -0.2490    0.9480 cd        1 3DT      0.029600
      9 C7         -1.1590    0.0560    3.4050 c3        1 3DT     -0.031900
     10 CN          3.2830    0.5700    1.1700 c3        1 3DT      0.077300
     11 C1'        -0.6960   -0.4470   -1.5180 c3        1 3DT      0.304500
     12 C2'        -1.7020   -1.6130   -1.6290 c3        1 3DT     -0.155400
     13 C3'        -3.0840   -0.9580   -1.7170 c3        1 3DT      0.119100
     14 O3'        -3.8250   -1.4230   -2.8300 oh        1 3DT     -0.581800
     15 C4'        -2.8130    0.5410   -1.9480 c3        1 3DT      0.088100
     16 O4'        -1.3980    0.7560   -1.8760 os        1 3DT     -0.424600
     17 C5'        -3.5070    1.4300   -0.9170 c3        1 3DT      0.123400
     18 O5'        -3.2980    2.7960   -1.1970 oh        1 3DT     -0.588800
     19 H6         -1.9390   -0.4590    0.7990 h4        1 3DT      0.157000
     20 H7         -0.9700    1.0050    3.9690 hc        1 3DT      0.052033
     21 H7A        -0.8730   -0.7990    4.0690 hc        1 3DT      0.052033
     22 H7B        -2.2490   -0.0170    3.1720 hc        1 3DT      0.052033
     23 HN          3.4810    1.5460    0.6510 h1        1 3DT      0.063033
     24 HNA         3.6260    0.6330    2.2360 h1        1 3DT      0.063033
     25 HNB         3.8460   -0.2410    0.6350 h1        1 3DT      0.063033
     26 H1'         0.1420   -0.5340   -2.2760 h2        1 3DT      0.134700
     27 H2'        -1.6380   -2.3230   -0.7710 hc        1 3DT      0.080200
     28 H2'A       -1.4840   -2.1810   -2.5690 hc        1 3DT      0.080200
     29 H3'        -3.6720   -1.1240   -0.7740 h1        1 3DT      0.046700
     30 HO3'       -3.9920   -2.3620   -2.6830 ho        1 3DT      0.409000
     31 H4'        -3.1160    0.8490   -2.9880 h1        1 3DT      0.108700
     32 H5'        -3.1400    1.1900    0.1170 h1        1 3DT      0.048700
     33 H5'A       -4.6190    1.2850   -0.9730 h1        1 3DT      0.048700
     34 HO5'       -2.3430    2.9310   -1.2680 ho        1 3DT      0.416000
@<TRIPOS>BOND
     1    1    2 1   
     2    1    8 1   
     3    1   11 1   
     4    2    3 2   
     5    2    4 1   
     6    4    5 1   
     7    4   10 1   
     8    5    6 2   
     9    5    7 1   
    10    7    8 2   
    11    7    9 1   
    12    8   19 1   
    13    9   20 1   
    14    9   21 1   
    15    9   22 1   
    16   10   23 1   
    17   10   24 1   
    18   10   25 1   
    19   11   12 1   
    20   11   16 1   
    21   11   26 1   
    22   12   13 1   
    23   12   27 1   
    24   12   28 1   
    25   13   14 1   
    26   13   15 1   
    27   13   29 1   
    28   14   30 1   
    29   15   16 1   
    30   15   17 1   
    31   15   31 1   
    32   17   18 1   
    33   17   32 1   
    34   17   33 1   
    35   18   34 1   
@<TRIPOS>SUBSTRUCTURE
     1 3DT         1 TEMP              0 ****  ****    0 ROOT
