@<TRIPOS>MOLECULE
3DU
   33    34     1     0     0
SMALL
bcc


@<TRIPOS>ATOM
      1 OP3        -4.0740   -0.6870    0.1590 oh        1 3DU     -0.790400
      2 P          -3.0910   -1.0550    1.4200 p5        1 3DU      1.425800
      3 OP1        -3.9140   -1.0560    2.6480 o         1 3DU     -0.844500
      4 OP2        -2.1960   -2.1580    1.0090 o         1 3DU     -0.844500
      5 O5'        -2.2790    0.3790    1.3550 os        1 3DU     -0.586200
      6 C5'        -1.1850    0.3520    0.4800 c3        1 3DU      0.165400
      7 C4'        -0.5580    1.7410    0.3570 c3        1 3DU      0.044100
      8 O4'         0.7200    1.7360    1.0290 os        1 3DU     -0.427600
      9 C3'        -0.3550    2.2340   -1.1170 c3        1 3DU      0.367800
     10 O3'        -0.8970    3.4010   -1.3810 o         1 3DU     -0.860500
     11 C2'         1.2280    2.2940   -1.2630 c3        1 3DU      0.025100
     12 O2'         1.6730    3.5910   -1.5680 oh        1 3DU     -0.642800
     13 C1'         1.8010    1.8810    0.1170 c3        1 3DU      0.258500
     14 N1          2.5830    0.6210    0.0670 n         1 3DU     -0.329000
     15 C2          3.9230    0.5780    0.5290 c         1 3DU      0.703700
     16 O2          4.4830    1.6110    0.9620 o         1 3DU     -0.682500
     17 C3          4.6120   -0.7070    0.4630 cc        1 3DU     -0.351200
     18 C4          3.9630   -1.8180   -0.0110 cd        1 3DU      0.201100
     19 O4          4.6540   -3.0110   -0.0510 oh        1 3DU     -0.519100
     20 C5          2.6140   -1.7380   -0.4610 cd        1 3DU     -0.364000
     21 C6          1.9780   -0.5150   -0.3910 cc        1 3DU      0.092600
     22 H3         -0.4410   -0.3930    0.8810 h1        1 3DU      0.019700
     23 H4         -1.5520   -0.0150   -0.5200 h1        1 3DU      0.019700
     24 H5         -1.1730    2.4890    0.9250 h1        1 3DU      0.086700
     25 H6         -0.6890    1.3980   -1.8110 h1        1 3DU     -0.065300
     26 H7         -4.1920    0.2470    0.0430 ho        1 3DU      0.425000
     27 H8          1.5870    1.6270   -2.0880 h1        1 3DU      0.022700
     28 H9          0.8860    4.1740   -1.5200 ho        1 3DU      0.438000
     29 H10         2.4810    2.6720    0.5510 h2        1 3DU      0.104700
     30 H11         5.6450   -0.7320    0.8210 ha        1 3DU      0.148000
     31 H12         4.0260   -3.6960   -0.3210 ho        1 3DU      0.414000
     32 H13         2.0790   -2.6230   -0.8200 ha        1 3DU      0.147000
     33 H14         0.9180   -0.3980   -0.7130 h4        1 3DU      0.197000
@<TRIPOS>BOND
     1    1    2 1   
     2    1   26 1   
     3    2    3 1   
     4    2    4 1   
     5    2    5 1   
     6    5    6 1   
     7    6    7 1   
     8    6   22 1   
     9    6   23 1   
    10    7    8 1   
    11    7    9 1   
    12    7   24 1   
    13    8   13 1   
    14    9   10 1   
    15    9   11 1   
    16    9   25 1   
    17   11   12 1   
    18   11   13 1   
    19   11   27 1   
    20   12   28 1   
    21   13   14 1   
    22   13   29 1   
    23   14   15 1   
    24   14   21 1   
    25   15   16 2   
    26   15   17 1   
    27   17   18 2   
    28   17   30 1   
    29   18   19 1   
    30   18   20 1   
    31   19   31 1   
    32   20   21 2   
    33   20   32 1   
    34   21   33 1   
@<TRIPOS>SUBSTRUCTURE
     1 3DU         1 TEMP              0 ****  ****    0 ROOT
