@<TRIPOS>MOLECULE
3DU
   33    31     1     0     0
SMALL
bcc


@<TRIPOS>ATOM
      1 OP3        -0.2310   -6.0990    0.4400 o         1 3DU     -1.248333
      2 P          -0.0840   -5.0190    1.4770 p3        1 3DU      2.525000
      3 OP1        -1.4190   -4.7900    2.1610 o         1 3DU     -1.248333
      4 OP2         0.9370   -5.4430    2.5000 o         1 3DU     -1.248333
      5 O5'         0.3940   -3.6720    0.7760 o         1 3DU     -0.717000
      6 C5'         0.2900   -2.4400    1.5100 c3        1 3DU      0.077000
      7 C4'         1.1330   -1.3540    0.8070 c3        1 3DU     -0.063000
      8 O4'         0.5450   -0.9560   -0.2540 os        1 3DU     -0.293000
      9 C3'         1.2470   -0.0890    1.7060 c3        1 3DU      0.013000
     10 O3'         2.4950    0.0430    2.1690 oh        1 3DU     -0.408000
     11 C2'         0.8930    1.0900    0.7950 c3        1 3DU     -0.011000
     12 O2'         1.9160    2.1530    0.9110 oh        1 3DU     -0.340000
     13 C1'         0.8960    0.6000   -0.4010 c3        1 3DU      0.101000
     14 N1         -0.0930    1.2540   -1.2010 n3        1 3DU     -0.232000
     15 C2          0.3180    2.2060   -2.2260 c1        1 3DU      0.347000
     16 O2          1.4920    2.3200   -2.5100 o         1 3DU     -0.411000
     17 C3         -0.7320    3.0200   -2.9790 c1        1 3DU     -0.395000
     18 C4         -2.1760    2.8060   -2.7000 c1        1 3DU      0.170000
     19 O4         -3.1690    3.3740   -3.5740 o         1 3DU     -0.258000
     20 C5         -2.5840    1.8710   -1.6410 c2        1 3DU     -0.300000
     21 C6         -1.5370    1.0400   -0.9190 c2        1 3DU      0.075000
     22 H3         -0.6320   -2.1600    1.5390 h1        1 3DU      0.038500
     23 H4          0.6230   -2.5730    2.4320 h1        1 3DU      0.038500
     24 H5          2.0290   -1.7020    0.5890 h1        1 3DU      0.113000
     25 H6          0.6100   -0.1450    2.4520 h1        1 3DU      0.152000
     26 H7          2.5120   -0.1510    3.0590 ho        1 3DU      0.313000
     27 H8          0.0360    1.4290    1.0120 h1        1 3DU      0.102000
     28 H9          1.6610    2.7470    1.5320 ho        1 3DU      0.228000
     29 H10         1.7920    0.7090   -0.8110 h2        1 3DU      0.148000
     30 H11        -0.4660    3.5950   -3.6880 ha        1 3DU      0.138000
     31 H12        -3.3620    4.1990   -3.3070 ho        1 3DU      0.206000
     32 H13        -3.5180    1.7310   -1.4570 ha        1 3DU      0.169000
     33 H14        -1.8160    0.4040   -0.1980 h4        1 3DU      0.218000
@<TRIPOS>BOND
     1    1    2 1   
     2    2    3 1   
     3    2    4 1   
     4    5    6 1   
     5    6    7 1   
     6    6   22 1   
     7    6   23 1   
     8    7    8 1   
     9    7    9 1   
    10    7   24 1   
    11    8   13 1   
    12    9   10 1   
    13    9   11 1   
    14    9   25 1   
    15   10   26 1   
    16   11   12 1   
    17   11   13 1   
    18   11   27 1   
    19   12   28 1   
    20   13   14 1   
    21   13   29 1   
    22   14   15 1   
    23   14   21 1   
    24   15   16 1   
    25   17   18 1   
    26   17   30 1   
    27   18   20 1   
    28   19   31 1   
    29   20   21 1   
    30   20   32 1   
    31   21   33 1   
@<TRIPOS>SUBSTRUCTURE
     1 3DU         1 TEMP              0 ****  ****    0 ROOT
