@<TRIPOS>MOLECULE
3DU
   33    34     1     0     0
SMALL
bcc


@<TRIPOS>ATOM
      1 OP3         1.0160    1.0320   -1.4620 o         1 3DU     -0.928833
      2 P           1.8420    0.7860   -0.2120 p5        1 3DU      1.332900
      3 OP1         1.1020    0.6850    1.0840 o         1 3DU     -0.928833
      4 OP2         3.0230   -0.1130   -0.4410 o         1 3DU     -0.928833
      5 O5'         2.6110    2.3520   -0.1330 os        1 3DU     -0.555200
      6 C5'         3.4550    2.6000   -1.1780 c3        1 3DU      0.227400
      7 C4'         2.8080    3.5870   -2.1810 c3        1 3DU      0.048100
      8 O4'         3.8360    4.3910   -2.8130 os        1 3DU     -0.436600
      9 C3'         1.9880    2.9020   -3.2910 c3        1 3DU      0.124100
     10 O3'         0.6120    3.1420   -3.1240 oh        1 3DU     -0.680800
     11 C2'         2.4530    3.5570   -4.6100 c3        1 3DU      0.100100
     12 O2'         1.5620    4.5110   -5.1470 oh        1 3DU     -0.612800
     13 C1'         3.7840    4.2860   -4.2280 c3        1 3DU      0.249500
     14 N1          4.9870    3.5890   -4.7250 n         1 3DU     -0.339000
     15 C2          5.8080    4.2020   -5.7050 c         1 3DU      0.708700
     16 O2          5.5110    5.3250   -6.1730 o         1 3DU     -0.686500
     17 C3          6.9860    3.4630   -6.1360 cc        1 3DU     -0.414200
     18 C4          7.2830    2.2400   -5.5870 cd        1 3DU      0.214100
     19 O4          8.3840    1.5030   -5.9580 oh        1 3DU     -0.503100
     20 C5          6.4490    1.6670   -4.5850 cd        1 3DU     -0.300000
     21 C6          5.3350    2.3770   -4.1880 cc        1 3DU      0.077600
     22 H3          4.3980    3.0970   -0.8010 h1        1 3DU     -0.000800
     23 H4          3.7330    1.6410   -1.7040 h1        1 3DU     -0.000800
     24 H5          2.1650    4.3150   -1.6160 h1        1 3DU      0.073700
     25 H6          2.1810    1.7930   -3.3090 h1        1 3DU      0.112700
     26 H7          0.3140    2.4840   -2.4460 ho        1 3DU      0.514000
     27 H8          2.6020    2.7960   -5.4200 h1        1 3DU      0.062700
     28 H9          0.9430    4.7600   -4.4470 ho        1 3DU      0.429000
     29 H10         3.8090    5.3370   -4.6400 h2        1 3DU      0.108700
     30 H11         7.6050    3.9430   -6.9000 ha        1 3DU      0.138000
     31 H12         8.8620    2.0100   -6.6290 ho        1 3DU      0.407000
     32 H13         6.6910    0.6960   -4.1390 ha        1 3DU      0.169000
     33 H14         4.6570    1.9880   -3.3900 h4        1 3DU      0.218000
@<TRIPOS>BOND
     1    1    2 1   
     2    2    3 1   
     3    2    4 1   
     4    2    5 1   
     5    5    6 1   
     6    6    7 1   
     7    6   22 1   
     8    6   23 1   
     9    7    8 1   
    10    7    9 1   
    11    7   24 1   
    12    8   13 1   
    13    9   10 1   
    14    9   11 1   
    15    9   25 1   
    16   10   26 1   
    17   11   12 1   
    18   11   13 1   
    19   11   27 1   
    20   12   28 1   
    21   13   14 1   
    22   13   29 1   
    23   14   15 1   
    24   14   21 1   
    25   15   16 2   
    26   15   17 1   
    27   17   18 2   
    28   17   30 1   
    29   18   19 1   
    30   18   20 1   
    31   19   31 1   
    32   20   21 2   
    33   20   32 1   
    34   21   33 1   
@<TRIPOS>SUBSTRUCTURE
     1 3DU         1 TEMP              0 ****  ****    0 ROOT
