@<TRIPOS>MOLECULE
3DU
   33    34     1     0     0
SMALL
bcc


@<TRIPOS>ATOM
      1 OP3         1.1270    0.7140   -1.4960 o         1 3DU     -0.925167
      2 P           2.5060    0.6480   -0.8830 p5        1 3DU      1.338900
      3 OP1         2.7350   -0.1470    0.3600 o         1 3DU     -0.925167
      4 OP2         3.5710    0.6100   -1.9630 o         1 3DU     -0.925167
      5 O5'         2.6050    2.3100   -0.3900 os        1 3DU     -0.569200
      6 C5'         3.3990    3.1500   -1.1170 c3        1 3DU      0.225400
      7 C4'         2.6330    3.8920   -2.2410 c3        1 3DU      0.062100
      8 O4'         3.5800    4.6690   -3.0110 os        1 3DU     -0.437600
      9 C3'         1.8930    2.9580   -3.2200 c3        1 3DU      0.073100
     10 O3'         0.4960    3.0540   -3.0610 oh        1 3DU     -0.665800
     11 C2'         2.3120    3.4090   -4.6270 c3        1 3DU      0.108100
     12 O2'         1.3770    4.2340   -5.2930 oh        1 3DU     -0.618800
     13 C1'         3.6120    4.2390   -4.3710 c3        1 3DU      0.254500
     14 N1          4.8460    3.4950   -4.6690 n         1 3DU     -0.340000
     15 C2          5.8140    4.0940   -5.5180 c         1 3DU      0.705700
     16 O2          5.5980    5.2190   -6.0360 o         1 3DU     -0.713500
     17 C3          7.0320    3.3480   -5.7720 cc        1 3DU     -0.434200
     18 C4          7.2260    2.1150   -5.1920 cd        1 3DU      0.214100
     19 O4          8.3650    1.3710   -5.4040 oh        1 3DU     -0.507100
     20 C5          6.2420    1.5500   -4.3400 cd        1 3DU     -0.300000
     21 C6          5.0850    2.2680   -4.0970 cc        1 3DU      0.068600
     22 H3          3.8010    3.9550   -0.4320 h1        1 3DU     -0.001300
     23 H4          4.2730    2.6040   -1.5710 h1        1 3DU     -0.001300
     24 H5          1.9210    4.6380   -1.8000 h1        1 3DU      0.045700
     25 H6          2.2240    1.8810   -3.0280 h1        1 3DU      0.165700
     26 H7          0.2610    2.3060   -2.4640 ho        1 3DU      0.494000
     27 H8          2.4880    2.5370   -5.3090 h1        1 3DU      0.073700
     28 H9          0.7400    4.5380   -4.6330 ho        1 3DU      0.421000
     29 H10         3.6210    5.1840   -4.9910 h2        1 3DU      0.107700
     30 H11         7.7670    3.8240   -6.4280 ha        1 3DU      0.130000
     31 H12         8.9470    1.8870   -5.9790 ho        1 3DU      0.400000
     32 H13         6.3880    0.5730   -3.8630 ha        1 3DU      0.180000
     33 H14         4.3060    1.8220   -3.3960 h4        1 3DU      0.296000
@<TRIPOS>BOND
     1    1    2 1   
     2    2    3 1   
     3    2    4 1   
     4    2    5 1   
     5    5    6 1   
     6    6    7 1   
     7    6   22 1   
     8    6   23 1   
     9    7    8 1   
    10    7    9 1   
    11    7   24 1   
    12    8   13 1   
    13    9   10 1   
    14    9   11 1   
    15    9   25 1   
    16   10   26 1   
    17   11   12 1   
    18   11   13 1   
    19   11   27 1   
    20   12   28 1   
    21   13   14 1   
    22   13   29 1   
    23   14   15 1   
    24   14   21 1   
    25   15   16 2   
    26   15   17 1   
    27   17   18 2   
    28   17   30 1   
    29   18   19 1   
    30   18   20 1   
    31   19   31 1   
    32   20   21 2   
    33   20   32 1   
    34   21   33 1   
@<TRIPOS>SUBSTRUCTURE
     1 3DU         1 TEMP              0 ****  ****    0 ROOT
