@<TRIPOS>MOLECULE
3DU
   33    34     1     0     0
SMALL
bcc


@<TRIPOS>ATOM
      1 OP3         1.0140    1.0630   -1.4230 o         1 3DU     -0.928833
      2 P           1.7440    1.0830   -0.0930 p5        1 3DU      1.332900
      3 OP1         0.9060    1.1110    1.1450 o         1 3DU     -0.928833
      4 OP2         3.0070    0.2700   -0.0900 o         1 3DU     -0.928833
      5 O5'         2.3800    2.7050   -0.2030 os        1 3DU     -0.555200
      6 C5'         3.2890    2.8700   -1.2110 c3        1 3DU      0.227400
      7 C4'         2.6550    3.6320   -2.4000 c3        1 3DU      0.048100
      8 O4'         3.6680    4.4230   -3.0730 os        1 3DU     -0.436600
      9 C3'         1.9900    2.7180   -3.4460 c3        1 3DU      0.124100
     10 O3'         0.5900    2.8550   -3.4200 oh        1 3DU     -0.680800
     11 C2'         2.5140    3.2080   -4.8140 c3        1 3DU      0.100100
     12 O2'         1.6010    3.9860   -5.5580 oh        1 3DU     -0.612800
     13 C1'         3.7470    4.1030   -4.4550 c3        1 3DU      0.249500
     14 N1          5.0380    3.4510   -4.7470 n         1 3DU     -0.339000
     15 C2          5.8910    3.9820   -5.7480 c         1 3DU      0.708700
     16 O2          5.5480    4.9920   -6.4060 o         1 3DU     -0.686500
     17 C3          7.1550    3.2970   -5.9710 cc        1 3DU     -0.414200
     18 C4          7.4990    2.2020   -5.2170 cd        1 3DU      0.214100
     19 O4          8.6810    1.5200   -5.3870 oh        1 3DU     -0.503100
     20 C5          6.6280    1.7110   -4.2020 cd        1 3DU     -0.300000
     21 C6          5.4320    2.3690   -4.0030 cc        1 3DU      0.077600
     22 H3          3.6850    1.8720   -1.5580 h1        1 3DU     -0.000800
     23 H4          4.1540    3.5000   -0.8480 h1        1 3DU     -0.000800
     24 H5          1.9110    4.3760   -2.0050 h1        1 3DU      0.073700
     25 H6          2.2700    1.6410   -3.2760 h1        1 3DU      0.112700
     26 H7          0.2870    2.2820   -2.6710 ho        1 3DU      0.514000
     27 H8          2.7920    2.3510   -5.4820 h1        1 3DU      0.062700
     28 H9          0.9060    4.2800   -4.9530 ho        1 3DU      0.429000
     29 H10         3.7250    5.0790   -5.0220 h2        1 3DU      0.108700
     30 H11         7.7990    3.7110   -6.7530 ha        1 3DU      0.138000
     31 H12         9.1750    1.9620   -6.0920 ho        1 3DU      0.407000
     32 H13         6.9060    0.8440   -3.5930 ha        1 3DU      0.169000
     33 H14         4.7210    2.0440   -3.2060 h4        1 3DU      0.218000
@<TRIPOS>BOND
     1    1    2 1   
     2    2    3 1   
     3    2    4 1   
     4    2    5 1   
     5    5    6 1   
     6    6    7 1   
     7    6   22 1   
     8    6   23 1   
     9    7    8 1   
    10    7    9 1   
    11    7   24 1   
    12    8   13 1   
    13    9   10 1   
    14    9   11 1   
    15    9   25 1   
    16   10   26 1   
    17   11   12 1   
    18   11   13 1   
    19   11   27 1   
    20   12   28 1   
    21   13   14 1   
    22   13   29 1   
    23   14   15 1   
    24   14   21 1   
    25   15   16 2   
    26   15   17 1   
    27   17   18 2   
    28   17   30 1   
    29   18   19 1   
    30   18   20 1   
    31   19   31 1   
    32   20   21 2   
    33   20   32 1   
    34   21   33 1   
@<TRIPOS>SUBSTRUCTURE
     1 3DU         1 TEMP              0 ****  ****    0 ROOT
