@<TRIPOS>MOLECULE
3DV
   35    37     1     0     0
SMALL
bcc


@<TRIPOS>ATOM
      1 O2          0.0500   -0.5870    0.0320 o         1 3DV     -0.825300
      2 C11         1.2570   -0.2180    0.0610 c         1 3DV      0.906200
      3 O1          1.8910    0.0730    1.1140 o         1 3DV     -0.825300
      4 C8          2.0040   -0.1240   -1.2640 ca        1 3DV     -0.110600
      5 C7          1.3750   -0.4710   -2.4620 ca        1 3DV     -0.112500
      6 C6          2.0660   -0.4070   -3.6720 ca        1 3DV     -0.140500
      7 C9          3.3350    0.3080   -1.2910 ca        1 3DV     -0.112500
      8 C10         4.0340    0.3710   -2.4920 ca        1 3DV     -0.140500
      9 C5          3.4050   -0.0020   -3.6890 cp        1 3DV     -0.192500
     10 C1          4.1630    0.0290   -4.9510 cp        1 3DV      0.332500
     11 N2          3.7790    0.8380   -5.9450 nb        1 3DV     -0.587000
     12 C4          4.5360    0.8590   -7.0820 cp        1 3DV      0.257500
     13 C3          5.7060    0.0670   -7.1830 ca        1 3DV      0.333900
     14 N1          6.1200   -0.7670   -6.2140 nb        1 3DV     -0.731000
     15 C2          5.3430   -0.8340   -5.0850 ca        1 3DV      0.558900
     16 N3          5.6360   -1.7610   -4.1070 nv        1 3DV     -0.945500
     17 C12         4.1430    1.7270   -8.1990 cp        1 3DV     -0.074500
     18 C17         4.3920    1.3140   -9.5130 ca        1 3DV     -0.156000
     19 C16         4.0340    2.1580  -10.5740 ca        1 3DV      0.112100
     20 O3          4.3160    1.6970  -11.8440 oh        1 3DV     -0.505100
     21 C15         3.4260    3.3980  -10.3440 ca        1 3DV     -0.219000
     22 C14         3.1740    3.7890   -9.0300 ca        1 3DV     -0.101000
     23 C13         3.5270    2.9660   -7.9630 ca        1 3DV     -0.131000
     24 H2          0.3220   -0.7940   -2.4250 ha        1 3DV      0.156500
     25 H3          1.5640   -0.6750   -4.6120 ha        1 3DV      0.115000
     26 H4          3.8090    0.5950   -0.3380 ha        1 3DV      0.156500
     27 H5          5.0730    0.7290   -2.5090 ha        1 3DV      0.115000
     28 H6          6.3500    0.1100   -8.0790 h4        1 3DV      0.022100
     29 H7          6.5270   -2.1960   -4.1090 hn        1 3DV      0.435800
     30 H8          5.1710   -1.6580   -3.2340 hn        1 3DV      0.435800
     31 H9          4.8500    0.3390   -9.7290 ha        1 3DV      0.149000
     32 H10         3.9820    2.3520  -12.4730 ho        1 3DV      0.412000
     33 H11         3.1480    4.0470  -11.1840 ha        1 3DV      0.125000
     34 H12         2.6900    4.7570   -8.8350 ha        1 3DV      0.130000
     35 H13         3.3150    3.2870   -6.9310 ha        1 3DV      0.159000
@<TRIPOS>BOND
     1    1    2 1   
     2    2    3 1   
     3    2    4 1   
     4    4    5 ar  
     5    4    7 ar  
     6    5    6 ar  
     7    5   24 1   
     8    6    9 ar  
     9    6   25 1   
    10    7    8 ar  
    11    7   26 1   
    12    8    9 ar  
    13    8   27 1   
    14    9   10 1   
    15   10   11 ar  
    16   10   15 ar  
    17   11   12 ar  
    18   12   13 ar  
    19   12   17 1   
    20   13   14 ar  
    21   13   28 1   
    22   14   15 ar  
    23   15   16 1   
    24   16   29 1   
    25   16   30 1   
    26   17   18 ar  
    27   17   23 ar  
    28   18   19 ar  
    29   18   31 1   
    30   19   20 1   
    31   19   21 ar  
    32   20   32 1   
    33   21   22 ar  
    34   21   33 1   
    35   22   23 ar  
    36   22   34 1   
    37   23   35 1   
@<TRIPOS>SUBSTRUCTURE
     1 3DV         1 TEMP              0 ****  ****    0 ROOT
