@<TRIPOS>MOLECULE
3DV
   35    37     1     0     0
SMALL
bcc


@<TRIPOS>ATOM
      1 O2         -0.0080   -0.6240   -0.0300 o         1 3DV     -0.825300
      2 C11         1.2020   -0.2700    0.0220 c         1 3DV      0.906200
      3 O1          1.8250   -0.0070    1.0890 o         1 3DV     -0.825300
      4 C8          1.9680   -0.1580   -1.2900 ca        1 3DV     -0.110600
      5 C7          1.3520   -0.4730   -2.5040 ca        1 3DV     -0.112500
      6 C6          2.0600   -0.3930   -3.7030 ca        1 3DV     -0.140500
      7 C9          3.3050    0.2600   -1.2910 ca        1 3DV     -0.112500
      8 C10         4.0200    0.3390   -2.4820 ca        1 3DV     -0.140500
      9 C5          3.4030   -0.0030   -3.6940 cp        1 3DV     -0.192500
     10 C1          4.1790    0.0430   -4.9450 cp        1 3DV      0.332500
     11 N2          3.8170    0.8770   -5.9280 nb        1 3DV     -0.587000
     12 C4          4.5900    0.9110   -7.0530 cp        1 3DV      0.257500
     13 C3          5.7520    0.1070   -7.1540 ca        1 3DV      0.333900
     14 N1          6.1430   -0.7500   -6.1970 nb        1 3DV     -0.731000
     15 C2          5.3500   -0.8300   -5.0800 ca        1 3DV      0.558900
     16 N3          5.6200   -1.7800   -4.1170 nh        1 3DV     -0.945500
     17 C12         4.2230    1.8060   -8.1580 cp        1 3DV     -0.074500
     18 C17         4.4830    1.4150   -9.4760 ca        1 3DV     -0.156000
     19 C16         4.1500    2.2840  -10.5260 ca        1 3DV      0.112100
     20 O3          4.4420    1.8440  -11.8010 oh        1 3DV     -0.505100
     21 C15         3.5540    3.5270  -10.2780 ca        1 3DV     -0.219000
     22 C14         3.2910    3.8960   -8.9600 ca        1 3DV     -0.101000
     23 C13         3.6200    3.0480   -7.9050 ca        1 3DV     -0.131000
     24 H2          0.2950   -0.7850   -2.4870 ha        1 3DV      0.156500
     25 H3          1.5680   -0.6370   -4.6550 ha        1 3DV      0.115000
     26 H4          3.7680    0.5220   -0.3260 ha        1 3DV      0.156500
     27 H5          5.0640    0.6850   -2.4770 ha        1 3DV      0.115000
     28 H6          6.4080    0.1590   -8.0410 h4        1 3DV      0.022100
     29 H7          5.1430   -1.6890   -3.2480 hn        1 3DV      0.435800
     30 H8          6.5040   -2.2260   -4.1160 hn        1 3DV      0.435800
     31 H9          4.9310    0.4380   -9.7060 ha        1 3DV      0.149000
     32 H10         4.1250    2.5150  -12.4210 ho        1 3DV      0.412000
     33 H11         3.2950    4.1960  -11.1100 ha        1 3DV      0.125000
     34 H12         2.8170    4.8660   -8.7530 ha        1 3DV      0.130000
     35 H13         3.3990    3.3510   -6.8700 ha        1 3DV      0.159000
@<TRIPOS>BOND
     1    1    2 1   
     2    2    3 1   
     3    2    4 1   
     4    4    5 ar  
     5    4    7 ar  
     6    5    6 ar  
     7    5   24 1   
     8    6    9 ar  
     9    6   25 1   
    10    7    8 ar  
    11    7   26 1   
    12    8    9 ar  
    13    8   27 1   
    14    9   10 1   
    15   10   11 ar  
    16   10   15 ar  
    17   11   12 ar  
    18   12   13 ar  
    19   12   17 1   
    20   13   14 ar  
    21   13   28 1   
    22   14   15 ar  
    23   15   16 1   
    24   16   29 1   
    25   16   30 1   
    26   17   18 ar  
    27   17   23 ar  
    28   18   19 ar  
    29   18   31 1   
    30   19   20 1   
    31   19   21 ar  
    32   20   32 1   
    33   21   22 ar  
    34   21   33 1   
    35   22   23 ar  
    36   22   34 1   
    37   23   35 1   
@<TRIPOS>SUBSTRUCTURE
     1 3DV         1 TEMP              0 ****  ****    0 ROOT
