@<TRIPOS>MOLECULE
3DW
   49    53     1     0     0
SMALL
bcc


@<TRIPOS>ATOM
      1 O2          0.9350   -1.9920   -0.0350 o         1 3DW     -0.803800
      2 C22         1.1840   -0.7740   -0.2090 c         1 3DW      0.827100
      3 O1          0.9210    0.1710    0.5760 o         1 3DW     -0.803800
      4 C9          1.9530   -0.4000   -1.5030 ca        1 3DW      0.375800
      5 N3          1.2760   -0.0960   -2.6290 nb        1 3DW     -0.636000
      6 C10         1.9630    0.2340   -3.7410 ca        1 3DW      0.378200
      7 C7          3.3650    0.2780   -3.7600 ca        1 3DW     -0.193500
      8 N2          4.2650    0.5380   -4.8250 na        1 3DW     -0.262000
      9 C2          5.5640    0.5320   -4.2660 ca        1 3DW      0.461800
     10 C8          3.3720   -0.3930   -1.4200 ca        1 3DW     -0.186300
     11 C6          4.0880   -0.0470   -2.5510 cp        1 3DW     -0.052000
     12 C1          5.4960    0.1040   -2.8680 cp        1 3DW     -0.167300
     13 C5          6.6740   -0.0550   -2.1650 ca        1 3DW     -0.034000
     14 C4          7.8870    0.2190   -2.8240 cp        1 3DW     -0.203300
     15 C3          7.8440    0.6470   -4.1720 ca        1 3DW      0.421200
     16 N1          6.7310    0.8140   -4.9070 nb        1 3DW     -0.699000
     17 C11         9.1620    0.0740   -2.1380 cp        1 3DW     -0.030000
     18 C16        10.2900   -0.4190   -2.8100 ca        1 3DW     -0.106000
     19 C15        11.5100   -0.5560   -2.1620 ca        1 3DW     -0.162500
     20 C14        11.6480   -0.2050   -0.7990 ca        1 3DW      0.117600
     21 C13        10.5090    0.2850   -0.1250 ca        1 3DW     -0.162500
     22 C12         9.2950    0.4250   -0.7880 ca        1 3DW     -0.106000
     23 N4         12.9310   -0.2830   -0.1890 nh        1 3DW     -0.632000
     24 C20        13.5400   -1.6060   -0.2180 c3        1 3DW      0.182800
     25 C19        15.0010   -1.5860    0.2740 c3        1 3DW      0.166300
     26 N5         15.1620   -0.9280    1.5620 n3        1 3DW     -0.732600
     27 C21        16.5420   -0.8780    1.9870 c3        1 3DW      0.159100
     28 C18        14.5210    0.3780    1.6030 c3        1 3DW      0.166300
     29 C17        13.0590    0.3500    1.1120 c3        1 3DW      0.182800
     30 H2          1.3630    0.4680   -4.6350 h4        1 3DW      0.003100
     31 H3          4.0260    1.1660   -5.5530 hn        1 3DW      0.278700
     32 H4          3.8590   -0.6570   -0.4730 ha        1 3DW      0.150000
     33 H5          6.6650   -0.3920   -1.1170 ha        1 3DW      0.147000
     34 H6          8.7840    0.8870   -4.7030 h4        1 3DW      0.012100
     35 H7         10.2060   -0.7100   -3.8690 ha        1 3DW      0.136500
     36 H8         12.3740   -0.9350   -2.7280 ha        1 3DW      0.130500
     37 H9         10.5590    0.5660    0.9380 ha        1 3DW      0.130500
     38 H10         8.4230    0.8180   -0.2410 ha        1 3DW      0.136500
     39 H11        13.5400   -1.9810   -1.2780 h1        1 3DW      0.044700
     40 H12        12.9570   -2.3400    0.4120 h1        1 3DW      0.044700
     41 H13        15.3360   -2.6550    0.3910 h1        1 3DW      0.035200
     42 H14        15.6440   -1.1070   -0.5220 h1        1 3DW      0.035200
     43 H16        17.1970   -0.2610    1.3110 h1        1 3DW      0.029700
     44 H17        16.5860   -0.4420    3.0190 h1        1 3DW      0.029700
     45 H18        16.9480   -1.9230    2.0180 h1        1 3DW      0.029700
     46 H19        14.5140    0.7230    2.6750 h1        1 3DW      0.035200
     47 H20        15.0910    1.1420    0.9970 h1        1 3DW      0.035200
     48 H21        12.7060    1.4150    1.0220 h1        1 3DW      0.044700
     49 H22        12.4300   -0.1670    1.8950 h1        1 3DW      0.044700
@<TRIPOS>BOND
     1    1    2 1   
     2    2    3 1   
     3    2    4 1   
     4    4    5 ar  
     5    4   10 ar  
     6    5    6 ar  
     7    6    7 ar  
     8    6   30 1   
     9    7    8 1   
    10    7   11 ar  
    11    8    9 1   
    12    8   31 1   
    13    9   12 ar  
    14    9   16 ar  
    15   10   11 ar  
    16   10   32 1   
    17   11   12 1   
    18   12   13 ar  
    19   13   14 ar  
    20   13   33 1   
    21   14   15 ar  
    22   14   17 1   
    23   15   16 ar  
    24   15   34 1   
    25   17   18 ar  
    26   17   22 ar  
    27   18   19 ar  
    28   18   35 1   
    29   19   20 ar  
    30   19   36 1   
    31   20   21 ar  
    32   20   23 1   
    33   21   22 ar  
    34   21   37 1   
    35   22   38 1   
    36   23   24 1   
    37   23   29 1   
    38   24   25 1   
    39   24   39 1   
    40   24   40 1   
    41   25   26 1   
    42   25   41 1   
    43   25   42 1   
    44   26   27 1   
    45   26   28 1   
    46   27   43 1   
    47   27   44 1   
    48   27   45 1   
    49   28   29 1   
    50   28   46 1   
    51   28   47 1   
    52   29   48 1   
    53   29   49 1   
@<TRIPOS>SUBSTRUCTURE
     1 3DW         1 TEMP              0 ****  ****    0 ROOT
