@<TRIPOS>MOLECULE
3DW
   49    53     1     0     0
SMALL
bcc


@<TRIPOS>ATOM
      1 O2          0.9300   -1.9900   -0.0430 o         1 3DW     -0.803800
      2 C22         1.1830   -0.7720   -0.2110 c         1 3DW      0.827100
      3 O1          0.9240    0.1690    0.5790 o         1 3DW     -0.803800
      4 C9          1.9530   -0.3940   -1.5040 ca        1 3DW      0.375800
      5 N3          1.2760   -0.0850   -2.6290 nb        1 3DW     -0.636000
      6 C10         1.9640    0.2490   -3.7390 ca        1 3DW      0.378200
      7 C7          3.3650    0.2910   -3.7590 ca        1 3DW     -0.193500
      8 N2          4.2650    0.5540   -4.8230 na        1 3DW     -0.262000
      9 C2          5.5650    0.5460   -4.2630 ca        1 3DW      0.461800
     10 C8          3.3710   -0.3880   -1.4210 ca        1 3DW     -0.186300
     11 C6          4.0880   -0.0390   -2.5500 cp        1 3DW     -0.052000
     12 C1          5.4960    0.1120   -2.8670 cp        1 3DW     -0.167300
     13 C5          6.6740   -0.0510   -2.1640 ca        1 3DW     -0.034000
     14 C4          7.8870    0.2250   -2.8220 cp        1 3DW     -0.203300
     15 C3          7.8450    0.6580   -4.1680 ca        1 3DW      0.421200
     16 N1          6.7320    0.8280   -4.9030 nb        1 3DW     -0.699000
     17 C11         9.1620    0.0770   -2.1360 cp        1 3DW     -0.030000
     18 C16        10.2900   -0.4150   -2.8110 ca        1 3DW     -0.106000
     19 C15        11.5100   -0.5540   -2.1630 ca        1 3DW     -0.162500
     20 C14        11.6480   -0.2080   -0.7980 ca        1 3DW      0.117600
     21 C13        10.5090    0.2790   -0.1230 ca        1 3DW     -0.162500
     22 C12         9.2950    0.4220   -0.7850 ca        1 3DW     -0.106000
     23 N4         12.9310   -0.2890   -0.1890 nh        1 3DW     -0.632000
     24 C20        13.5400   -1.6110   -0.2230 c3        1 3DW      0.182800
     25 C19        15.0020   -1.5930    0.2680 c3        1 3DW      0.166300
     26 N5         15.1630   -0.9400    1.5590 n3        1 3DW     -0.732600
     27 C21        16.5420   -0.8910    1.9840 c3        1 3DW      0.159100
     28 C18        14.5210    0.3660    1.6050 c3        1 3DW      0.166300
     29 C17        13.0590    0.3390    1.1150 c3        1 3DW      0.182800
     30 H2          1.3630    0.4860   -4.6320 h4        1 3DW      0.003100
     31 H3          4.0270    1.1850   -5.5470 hn        1 3DW      0.278700
     32 H4          3.8580   -0.6570   -0.4750 ha        1 3DW      0.150000
     33 H5          6.6640   -0.3910   -1.1180 ha        1 3DW      0.147000
     34 H6          8.7850    0.8990   -4.6980 h4        1 3DW      0.012100
     35 H7         10.2060   -0.7010   -3.8710 ha        1 3DW      0.136500
     36 H8         12.3740   -0.9310   -2.7310 ha        1 3DW      0.130500
     37 H9         10.5590    0.5560    0.9410 ha        1 3DW      0.130500
     38 H10         8.4230    0.8130   -0.2360 ha        1 3DW      0.136500
     39 H11        12.9570   -2.3480    0.4030 h1        1 3DW      0.044700
     40 H12        13.5400   -1.9820   -1.2850 h1        1 3DW      0.044700
     41 H13        15.3370   -2.6620    0.3810 h1        1 3DW      0.035200
     42 H14        15.6440   -1.1110   -0.5260 h1        1 3DW      0.035200
     43 H16        16.5860   -0.4600    3.0180 h1        1 3DW      0.029700
     44 H17        16.9490   -1.9360    2.0100 h1        1 3DW      0.029700
     45 H18        17.1970   -0.2710    1.3110 h1        1 3DW      0.029700
     46 H19        14.5140    0.7060    2.6790 h1        1 3DW      0.035200
     47 H20        15.0910    1.1320    1.0020 h1        1 3DW      0.035200
     48 H21        12.4300   -0.1810    1.8950 h1        1 3DW      0.044700
     49 H22        12.7060    1.4050    1.0290 h1        1 3DW      0.044700
@<TRIPOS>BOND
     1    1    2 1   
     2    2    3 1   
     3    2    4 1   
     4    4    5 ar  
     5    4   10 ar  
     6    5    6 ar  
     7    6    7 ar  
     8    6   30 1   
     9    7    8 1   
    10    7   11 ar  
    11    8    9 1   
    12    8   31 1   
    13    9   12 ar  
    14    9   16 ar  
    15   10   11 ar  
    16   10   32 1   
    17   11   12 1   
    18   12   13 ar  
    19   13   14 ar  
    20   13   33 1   
    21   14   15 ar  
    22   14   17 1   
    23   15   16 ar  
    24   15   34 1   
    25   17   18 ar  
    26   17   22 ar  
    27   18   19 ar  
    28   18   35 1   
    29   19   20 ar  
    30   19   36 1   
    31   20   21 ar  
    32   20   23 1   
    33   21   22 ar  
    34   21   37 1   
    35   22   38 1   
    36   23   24 1   
    37   23   29 1   
    38   24   25 1   
    39   24   39 1   
    40   24   40 1   
    41   25   26 1   
    42   25   41 1   
    43   25   42 1   
    44   26   27 1   
    45   26   28 1   
    46   27   43 1   
    47   27   44 1   
    48   27   45 1   
    49   28   29 1   
    50   28   46 1   
    51   28   47 1   
    52   29   48 1   
    53   29   49 1   
@<TRIPOS>SUBSTRUCTURE
     1 3DW         1 TEMP              0 ****  ****    0 ROOT
