@<TRIPOS>MOLECULE
3DX
   48    52     1     0     0
SMALL
bcc


@<TRIPOS>ATOM
      1 N6         -1.0890    1.2280   -2.1560 n1        1 3DX     -0.352800
      2 C22        -0.5380    0.9010   -1.1870 cg        1 3DX      0.138800
      3 C9          0.1260    0.5000    0.0170 ca        1 3DX      0.446300
      4 N3          1.4510    0.1780   -0.0610 nb        1 3DX     -0.608000
      5 C10         2.0870   -0.1980    1.0500 ca        1 3DX      0.380200
      6 C7          1.4270   -0.2710    2.3000 ca        1 3DX     -0.105500
      7 N2          1.8970   -0.6320    3.5610 na        1 3DX     -0.276000
      8 C2          0.8230   -0.5350    4.4680 ca        1 3DX      0.471800
      9 C8         -0.6310    0.4630    1.2080 ca        1 3DX     -0.144300
     10 C6          0.0210    0.0730    2.3700 cp        1 3DX     -0.053000
     11 C1         -0.3700   -0.0940    3.7510 cp        1 3DX     -0.190300
     12 C5         -1.5490    0.0680    4.4680 ca        1 3DX     -0.029000
     13 C4         -1.5320   -0.1990    5.8420 cp        1 3DX     -0.165300
     14 C3         -0.3150   -0.6260    6.4420 ca        1 3DX      0.438200
     15 N1          0.8500   -0.8000    5.8040 nb        1 3DX     -0.676000
     16 C11        -2.7320   -0.0490    6.6540 cp        1 3DX     -0.072000
     17 C16        -3.9850   -0.4340    6.1570 ca        1 3DX     -0.091500
     18 C15        -5.1330   -0.2980    6.9250 ca        1 3DX     -0.172000
     19 C14        -5.0720    0.2400    8.2340 ca        1 3DX      0.152600
     20 C13        -3.8050    0.6330    8.7230 ca        1 3DX     -0.172000
     21 C12        -2.6620    0.4820    7.9470 ca        1 3DX     -0.091500
     22 N4         -6.2410    0.2870    9.0280 nh        1 3DX     -0.638000
     23 C20        -7.3970    0.9270    8.4170 c3        1 3DX      0.187300
     24 C19        -8.6820    0.7470    9.2490 c3        1 3DX      0.164300
     25 N5         -8.5100    1.1230   10.6450 n3        1 3DX     -0.732600
     26 C21        -9.7160    0.9410   11.4190 c3        1 3DX      0.157100
     27 C18        -7.3570    0.4710   11.2480 c3        1 3DX      0.164300
     28 C17        -6.0660    0.6510   10.4240 c3        1 3DX      0.187300
     29 H1          3.1570   -0.4490    0.9410 h4        1 3DX      0.035100
     30 H2          2.8150   -0.9130    3.7840 hn        1 3DX      0.320700
     31 H3         -1.6950    0.7350    1.2100 ha        1 3DX      0.158000
     32 H4         -2.4700    0.4050    3.9690 ha        1 3DX      0.149000
     33 H5         -0.2880   -0.8500    7.5260 h4        1 3DX      0.032100
     34 H6         -4.0610   -0.8650    5.1460 ha        1 3DX      0.133000
     35 H7         -6.0930   -0.6340    6.5050 ha        1 3DX      0.137500
     36 H8         -3.6990    1.0710    9.7270 ha        1 3DX      0.137500
     37 H9         -1.6900    0.8020    8.3540 ha        1 3DX      0.133000
     38 H10        -7.2130    2.0310    8.2680 h1        1 3DX      0.045450
     39 H11        -7.5800    0.4650    7.4080 h1        1 3DX      0.045450
     40 H12        -9.4700    1.4190    8.8060 h1        1 3DX      0.039950
     41 H13        -9.0350   -0.3200    9.1440 h1        1 3DX      0.039950
     42 H15       -10.5410    1.5370   10.9470 h1        1 3DX      0.034033
     43 H16       -10.0450   -0.1320   11.4900 h1        1 3DX      0.034033
     44 H17        -9.5400    1.3290   12.4570 h1        1 3DX      0.034033
     45 H18        -7.5340   -0.6330   11.4050 h1        1 3DX      0.039950
     46 H19        -7.1840    0.9420   12.2560 h1        1 3DX      0.039950
     47 H20        -5.2830   -0.0250   10.8690 h1        1 3DX      0.045450
     48 H21        -5.7160    1.7200   10.5310 h1        1 3DX      0.045450
@<TRIPOS>BOND
     1    1    2 3   
     2    2    3 1   
     3    3    4 ar  
     4    3    9 ar  
     5    4    5 ar  
     6    5    6 ar  
     7    5   29 1   
     8    6    7 1   
     9    6   10 ar  
    10    7    8 1   
    11    7   30 1   
    12    8   11 ar  
    13    8   15 ar  
    14    9   10 ar  
    15    9   31 1   
    16   10   11 1   
    17   11   12 ar  
    18   12   13 ar  
    19   12   32 1   
    20   13   14 ar  
    21   13   16 1   
    22   14   15 ar  
    23   14   33 1   
    24   16   17 ar  
    25   16   21 ar  
    26   17   18 ar  
    27   17   34 1   
    28   18   19 ar  
    29   18   35 1   
    30   19   20 ar  
    31   19   22 1   
    32   20   21 ar  
    33   20   36 1   
    34   21   37 1   
    35   22   23 1   
    36   22   28 1   
    37   23   24 1   
    38   23   38 1   
    39   23   39 1   
    40   24   25 1   
    41   24   40 1   
    42   24   41 1   
    43   25   26 1   
    44   25   27 1   
    45   26   42 1   
    46   26   43 1   
    47   26   44 1   
    48   27   28 1   
    49   27   45 1   
    50   27   46 1   
    51   28   47 1   
    52   28   48 1   
@<TRIPOS>SUBSTRUCTURE
     1 3DX         1 TEMP              0 ****  ****    0 ROOT
