@<TRIPOS>MOLECULE
3DX
   48    52     1     0     0
SMALL
bcc


@<TRIPOS>ATOM
      1 N6         -1.1140    1.2740   -2.1650 n1        1 3DX     -0.352800
      2 C22        -0.5620    0.9410   -1.1980 cg        1 3DX      0.138800
      3 C9          0.1030    0.5320    0.0030 ca        1 3DX      0.446300
      4 N3          1.4280    0.2100   -0.0800 nb        1 3DX     -0.608000
      5 C10         2.0660   -0.1730    1.0290 ca        1 3DX      0.380200
      6 C7          1.4070   -0.2540    2.2790 ca        1 3DX     -0.105500
      7 N2          1.8780   -0.6230    3.5370 na        1 3DX     -0.276000
      8 C2          0.8050   -0.5320    4.4460 ca        1 3DX      0.471800
      9 C8         -0.6520    0.4870    1.1940 ca        1 3DX     -0.144300
     10 C6          0.0010    0.0890    2.3530 cp        1 3DX     -0.053000
     11 C1         -0.3890   -0.0870    3.7340 cp        1 3DX     -0.190300
     12 C5         -1.5670    0.0710    4.4520 ca        1 3DX     -0.029000
     13 C4         -1.5480   -0.2060    5.8240 cp        1 3DX     -0.165300
     14 C3         -0.3310   -0.6360    6.4210 ca        1 3DX      0.438200
     15 N1          0.8340   -0.8060    5.7800 nb        1 3DX     -0.676000
     16 C11        -2.7470   -0.0610    6.6390 cp        1 3DX     -0.072000
     17 C16        -4.0010   -0.4430    6.1410 ca        1 3DX     -0.091500
     18 C15        -5.1480   -0.3120    6.9110 ca        1 3DX     -0.172000
     19 C14        -5.0860    0.2180    8.2230 ca        1 3DX      0.152600
     20 C13        -3.8180    0.6080    8.7130 ca        1 3DX     -0.172000
     21 C12        -2.6760    0.4620    7.9350 ca        1 3DX     -0.091500
     22 N4         -6.2550    0.2590    9.0190 nh        1 3DX     -0.638000
     23 C20        -7.4100    0.9040    8.4130 c3        1 3DX      0.187300
     24 C19        -8.6950    0.7180    9.2450 c3        1 3DX      0.164300
     25 N5         -8.5220    1.0850   10.6430 n3        1 3DX     -0.732600
     26 C21        -9.7270    0.8980   11.4180 c3        1 3DX      0.157100
     27 C18        -7.3680    0.4290   11.2410 c3        1 3DX      0.164300
     28 C17        -6.0770    0.6150   10.4160 c3        1 3DX      0.187300
     29 H1          3.1350   -0.4230    0.9170 h4        1 3DX      0.035100
     30 H2          2.7970   -0.9060    3.7570 hn        1 3DX      0.320700
     31 H3         -1.7170    0.7590    1.1990 ha        1 3DX      0.158000
     32 H4         -2.4890    0.4110    3.9570 ha        1 3DX      0.149000
     33 H5         -0.3020   -0.8680    7.5030 h4        1 3DX      0.032100
     34 H6         -4.0780   -0.8670    5.1280 ha        1 3DX      0.133000
     35 H7         -6.1080   -0.6450    6.4890 ha        1 3DX      0.137500
     36 H8         -3.7110    1.0380    9.7200 ha        1 3DX      0.137500
     37 H9         -1.7030    0.7790    8.3440 ha        1 3DX      0.133000
     38 H10        -7.2270    2.0080    8.2710 h1        1 3DX      0.045450
     39 H11        -7.5950    0.4480    7.4010 h1        1 3DX      0.045450
     40 H12        -9.4830    1.3930    8.8080 h1        1 3DX      0.039950
     41 H13        -9.0480   -0.3480    9.1330 h1        1 3DX      0.039950
     42 H15       -10.5520    1.4970   10.9500 h1        1 3DX      0.034033
     43 H16       -10.0560   -0.1750   11.4810 h1        1 3DX      0.034033
     44 H17        -9.5490    1.2790   12.4580 h1        1 3DX      0.034033
     45 H18        -7.5450   -0.6760   11.3910 h1        1 3DX      0.039950
     46 H19        -7.1940    0.8930   12.2520 h1        1 3DX      0.039950
     47 H20        -5.2940   -0.0640   10.8570 h1        1 3DX      0.045450
     48 H21        -5.7280    1.6820   10.5300 h1        1 3DX      0.045450
@<TRIPOS>BOND
     1    1    2 3   
     2    2    3 1   
     3    3    4 ar  
     4    3    9 ar  
     5    4    5 ar  
     6    5    6 ar  
     7    5   29 1   
     8    6    7 1   
     9    6   10 ar  
    10    7    8 1   
    11    7   30 1   
    12    8   11 ar  
    13    8   15 ar  
    14    9   10 ar  
    15    9   31 1   
    16   10   11 1   
    17   11   12 ar  
    18   12   13 ar  
    19   12   32 1   
    20   13   14 ar  
    21   13   16 1   
    22   14   15 ar  
    23   14   33 1   
    24   16   17 ar  
    25   16   21 ar  
    26   17   18 ar  
    27   17   34 1   
    28   18   19 ar  
    29   18   35 1   
    30   19   20 ar  
    31   19   22 1   
    32   20   21 ar  
    33   20   36 1   
    34   21   37 1   
    35   22   23 1   
    36   22   28 1   
    37   23   24 1   
    38   23   38 1   
    39   23   39 1   
    40   24   25 1   
    41   24   40 1   
    42   24   41 1   
    43   25   26 1   
    44   25   27 1   
    45   26   42 1   
    46   26   43 1   
    47   26   44 1   
    48   27   28 1   
    49   27   45 1   
    50   27   46 1   
    51   28   47 1   
    52   28   48 1   
@<TRIPOS>SUBSTRUCTURE
     1 3DX         1 TEMP              0 ****  ****    0 ROOT
