@<TRIPOS>MOLECULE
3DZ
   54    55     1     0     0
SMALL
bcc


@<TRIPOS>ATOM
      1 OAA        -0.1540    2.5580    1.8930 o         1 3DZ     -0.303000
      2 CAB         0.7070    1.7230    1.6350 c2        1 3DZ      0.325000
      3 OAC         0.4500    0.4250    1.8750 os        1 3DZ     -0.712000
      4 CAD         2.0970    1.9440    1.0600 c3        1 3DZ     -0.129000
      5 CAE         2.0680    2.8860   -0.1370 c3        1 3DZ     -0.114000
      6 CAF         1.6670    2.2650   -1.4290 ca        1 3DZ     -0.074000
      7 CAK         2.5140    2.3480   -2.5410 ca        1 3DZ     -0.130000
      8 CAJ         2.1350    1.7760   -3.7540 ca        1 3DZ     -0.133000
      9 CAI         0.9240    1.0950   -3.8630 ca        1 3DZ     -0.133000
     10 CAH         0.0730    1.0020   -2.7580 ca        1 3DZ     -0.116000
     11 CAZ        -1.2170    0.2340   -2.8550 c3        1 3DZ     -0.052000
     12 NBA        -1.4690   -0.7250   -1.8080 n8        1 3DZ     -0.331000
     13 CAG         0.4350    1.6140   -1.5560 ca        1 3DZ     -0.128000
     14 CAL         2.6840    0.5730    0.7850 c3        1 3DZ     -0.872000
     15 PAM         1.7000   -0.6080    1.4010 p5        1 3DZ      2.794000
     16 OAN         0.6570   -1.2640    0.3420 oh        1 3DZ     -0.833000
     17 OAO         2.0260   -1.3970    2.5750 o         1 3DZ     -1.099000
     18 CAP         3.1120   -2.0840    0.1100 c2        1 3DZ     -0.710000
     19 NAQ         2.6070   -2.4880   -1.2070 nz        1 3DZ      0.036000
     20 CAR         4.6060   -1.8790    0.0970 c3        1 3DZ     -0.107000
     21 CAS         5.2310   -2.2570    1.4290 c3        1 3DZ     -0.126000
     22 CAT         6.6830   -1.9230    1.4580 ca        1 3DZ     -0.066000
     23 CAU         7.6490   -2.9350    1.4330 ca        1 3DZ     -0.130500
     24 CAY         7.0950   -0.5860    1.5260 ca        1 3DZ     -0.130500
     25 CAX         8.4500   -0.2670    1.5640 ca        1 3DZ     -0.128000
     26 CAW         9.4090   -1.2800    1.5360 ca        1 3DZ     -0.135000
     27 CAV         9.0060   -2.6140    1.4720 ca        1 3DZ     -0.128000
     28 H2          2.6940    2.4760    1.8610 hc        1 3DZ      0.133000
     29 H3          1.3540    3.7250    0.1000 hc        1 3DZ      0.109000
     30 H4          3.0930    3.3360   -0.2440 hc        1 3DZ      0.109000
     31 H5          3.4790    2.8700   -2.4590 ha        1 3DZ      0.135000
     32 H6          2.7970    1.8620   -4.6290 ha        1 3DZ      0.134000
     33 H7          0.6350    0.6370   -4.8210 ha        1 3DZ      0.133000
     34 H8         -2.0700    0.9740   -2.8730 h1        1 3DZ      0.100500
     35 H9         -1.2380   -0.3270   -3.8340 h1        1 3DZ      0.100500
     36 H10        -1.6820   -0.2640   -0.9440 hn        1 3DZ      0.144000
     37 H11        -0.6670   -1.3080   -1.6570 hn        1 3DZ      0.144000
     38 H13        -0.2520    1.5870   -0.6930 ha        1 3DZ      0.146000
     39 H14         2.8480    0.4400   -0.3170 hc        1 3DZ      0.160500
     40 H15         3.7110    0.5020    1.2330 hc        1 3DZ      0.160500
     41 H17         2.7990   -2.8340    0.8710 hx        1 3DZ      0.124000
     42 H18         2.7600   -1.7210   -1.8600 hn        1 3DZ      0.202333
     43 H19         1.6020   -2.6660   -1.1340 hn        1 3DZ      0.202333
     44 H21         4.8500   -0.8090   -0.1430 hc        1 3DZ      0.052000
     45 H22         5.1060   -2.4960   -0.7040 hc        1 3DZ      0.052000
     46 H23         5.0830   -3.3560    1.6050 hc        1 3DZ      0.104500
     47 H24         4.7120   -1.7250    2.2710 hc        1 3DZ      0.104500
     48 H25         7.3370   -3.9890    1.3890 ha        1 3DZ      0.128000
     49 H26         6.3380    0.2120    1.5540 ha        1 3DZ      0.128000
     50 H27         8.7650    0.7850    1.6200 ha        1 3DZ      0.129000
     51 H28        10.4780   -1.0280    1.5690 ha        1 3DZ      0.130000
     52 H29         9.7580   -3.4150    1.4550 ha        1 3DZ      0.129000
     53 HBA3       -0.2300   -1.3710    0.6820 ho        1 3DZ      0.270000
     54 HAQ3        3.0740   -3.3200   -1.5750 hn        1 3DZ      0.202333
@<TRIPOS>BOND
     1    1    2 1   
     2    2    3 1   
     3    2    4 1   
     4    3   15 1   
     5    4    5 1   
     6    4   14 1   
     7    4   28 1   
     8    5    6 1   
     9    5   29 1   
    10    5   30 1   
    11    6    7 1   
    12    6   13 1   
    13    7    8 1   
    14    7   31 1   
    15    8    9 1   
    16    8   32 1   
    17    9   10 1   
    18    9   33 1   
    19   10   11 1   
    20   10   13 1   
    21   11   12 1   
    22   11   34 1   
    23   11   35 1   
    24   12   36 1   
    25   12   37 1   
    26   13   38 1   
    27   14   15 1   
    28   14   39 1   
    29   14   40 1   
    30   15   16 1   
    31   15   17 1   
    32   16   53 1   
    33   18   19 1   
    34   18   20 1   
    35   18   41 1   
    36   19   42 1   
    37   19   43 1   
    38   19   54 1   
    39   20   21 1   
    40   20   44 1   
    41   20   45 1   
    42   21   22 1   
    43   21   46 1   
    44   21   47 1   
    45   22   23 1   
    46   22   24 1   
    47   23   27 1   
    48   23   48 1   
    49   24   25 1   
    50   24   49 1   
    51   25   26 1   
    52   25   50 1   
    53   26   27 1   
    54   26   51 1   
    55   27   52 1   
@<TRIPOS>SUBSTRUCTURE
     1 3DZ         1 TEMP              0 ****  ****    0 ROOT
