@<TRIPOS>MOLECULE
3DZ
   53    54     1     0     0
SMALL
bcc


@<TRIPOS>ATOM
      1 OAA        -0.2720   -1.4130   -0.3650 o         1 3DZ     -0.834300
      2 CAB         0.8900   -1.0200   -0.0820 c         1 3DZ      0.912600
      3 OAC         1.3960   -1.0980    1.0790 o         1 3DZ     -0.834300
      4 CAD         1.7990   -0.4190   -1.1970 c3        1 3DZ     -0.169700
      5 CAE         1.0010   -0.0950   -2.4510 c3        1 3DZ     -0.022100
      6 CAF         0.3170    1.2280   -2.3760 ca        1 3DZ     -0.057300
      7 CAK         0.7870    2.3170   -3.1160 ca        1 3DZ     -0.134000
      8 CAJ         0.1200    3.5420   -3.0660 ca        1 3DZ     -0.146000
      9 CAI        -1.0180    3.6870   -2.2780 ca        1 3DZ     -0.146000
     10 CAH        -1.4930    2.6040   -1.5280 ca        1 3DZ     -0.143300
     11 CAZ        -2.7110    2.7720   -0.6650 c3        1 3DZ      0.191100
     12 NBA        -3.9550    2.9950   -1.3660 n3        1 3DZ     -0.902800
     13 CAG        -0.8260    1.3800   -1.5790 ca        1 3DZ     -0.102000
     14 CAL         2.9330   -1.3870   -1.4920 c3        1 3DZ     -0.424600
     15 PAM         4.3570   -0.8740   -0.8610 p5        1 3DZ      1.512100
     16 OAN         5.1550    0.0500   -1.6700 o         1 3DZ     -0.880300
     17 OAO         4.0890   -0.2660    0.5940 oh        1 3DZ     -0.828400
     18 CAP         5.2340   -2.2940   -0.5160 c3        1 3DZ     -0.123700
     19 NAQ         5.6030   -2.8820   -1.7840 n3        1 3DZ     -0.886800
     20 CAR         6.3860   -1.9360    0.4220 c3        1 3DZ     -0.085400
     21 CAS         6.1870   -2.4980    1.8200 c3        1 3DZ     -0.041100
     22 CAT         7.2980   -2.1000    2.7280 ca        1 3DZ     -0.065300
     23 CAU         8.2310   -3.0410    3.1760 ca        1 3DZ     -0.126500
     24 CAY         7.4090   -0.7690    3.1540 ca        1 3DZ     -0.126500
     25 CAX         8.4390   -0.3900    4.0120 ca        1 3DZ     -0.134500
     26 CAW         9.3670   -1.3330    4.4540 ca        1 3DZ     -0.144000
     27 CAV         9.2610   -2.6590    4.0350 ca        1 3DZ     -0.134500
     28 H2          2.2330    0.5380   -0.7920 hc        1 3DZ      0.044700
     29 H3          1.6740   -0.1040   -3.3500 hc        1 3DZ      0.051700
     30 H4          0.2260   -0.9000   -2.5890 hc        1 3DZ      0.051700
     31 H5          1.6920    2.2110   -3.7330 ha        1 3DZ      0.128000
     32 H6          0.4990    4.3940   -3.6470 ha        1 3DZ      0.114000
     33 H7         -1.5390    4.6540   -2.2340 ha        1 3DZ      0.112000
     34 H8         -2.8360    1.8610   -0.0130 h1        1 3DZ      0.059700
     35 H9         -2.5450    3.6570    0.0150 h1        1 3DZ      0.059700
     36 H10        -3.8530    3.7480   -2.0210 hn        1 3DZ      0.337800
     37 H11        -4.2180    2.1740   -1.8770 hn        1 3DZ      0.337800
     38 H13        -1.1700    0.5110   -0.9810 ha        1 3DZ      0.192000
     39 H14         2.6210   -2.3980   -1.1150 hc        1 3DZ      0.106200
     40 H15         3.0330   -1.5280   -2.6020 hc        1 3DZ      0.106200
     41 H16         3.2250   -0.4000    1.0100 ho        1 3DZ      0.519000
     42 H17         4.5810   -3.0510    0.0090 h1        1 3DZ      0.094700
     43 H18         6.1660   -2.2240   -2.2950 hn        1 3DZ      0.348800
     44 H19         6.1310   -3.7230   -1.6540 hn        1 3DZ      0.348800
     45 H21         7.3650   -2.3200    0.0260 hc        1 3DZ      0.052700
     46 H22         6.4760   -0.8160    0.4830 hc        1 3DZ      0.052700
     47 H23         5.2170   -2.1160    2.2430 hc        1 3DZ      0.058200
     48 H24         6.1140   -3.6170    1.7660 hc        1 3DZ      0.058200
     49 H25         8.1510   -4.0880    2.8490 ha        1 3DZ      0.140000
     50 H26         6.6720   -0.0280    2.8040 ha        1 3DZ      0.140000
     51 H27         8.5180    0.6560    4.3410 ha        1 3DZ      0.122500
     52 H28        10.1780   -1.0320    5.1310 ha        1 3DZ      0.120000
     53 H29         9.9890   -3.4050    4.3830 ha        1 3DZ      0.122500
@<TRIPOS>BOND
     1    1    2 1   
     2    2    3 1   
     3    2    4 1   
     4    4    5 1   
     5    4   14 1   
     6    4   28 1   
     7    5    6 1   
     8    5   29 1   
     9    5   30 1   
    10    6    7 ar  
    11    6   13 ar  
    12    7    8 ar  
    13    7   31 1   
    14    8    9 ar  
    15    8   32 1   
    16    9   10 ar  
    17    9   33 1   
    18   10   11 1   
    19   10   13 ar  
    20   11   12 1   
    21   11   34 1   
    22   11   35 1   
    23   12   36 1   
    24   12   37 1   
    25   13   38 1   
    26   14   15 1   
    27   14   39 1   
    28   14   40 1   
    29   15   16 2   
    30   15   17 1   
    31   15   18 1   
    32   17   41 1   
    33   18   19 1   
    34   18   20 1   
    35   18   42 1   
    36   19   43 1   
    37   19   44 1   
    38   20   21 1   
    39   20   45 1   
    40   20   46 1   
    41   21   22 1   
    42   21   47 1   
    43   21   48 1   
    44   22   23 ar  
    45   22   24 ar  
    46   23   27 ar  
    47   23   49 1   
    48   24   25 ar  
    49   24   50 1   
    50   25   26 ar  
    51   25   51 1   
    52   26   27 ar  
    53   26   52 1   
    54   27   53 1   
@<TRIPOS>SUBSTRUCTURE
     1 3DZ         1 TEMP              0 ****  ****    0 ROOT
