@<TRIPOS>MOLECULE
3DZ
   54    55     1     0     0
SMALL
bcc


@<TRIPOS>ATOM
      1 OAA         1.4550    2.5250   -4.0410 o         1 3DZ     -0.307000
      2 CAB         2.3480    2.0380   -3.3560 c2        1 3DZ      0.331000
      3 OAC         3.0120    2.8170   -2.4890 os        1 3DZ     -0.722000
      4 CAD         2.8570    0.6060   -3.3440 c3        1 3DZ     -0.128000
      5 CAE         1.7290   -0.4060   -3.2560 c3        1 3DZ     -0.112000
      6 CAF         0.9850   -0.5340   -1.9730 ca        1 3DZ     -0.066000
      7 CAK         0.1670   -1.6630   -1.8060 ca        1 3DZ     -0.133000
      8 CAJ        -0.5870   -1.8230   -0.6470 ca        1 3DZ     -0.123000
      9 CAI        -0.5380   -0.8610    0.3620 ca        1 3DZ     -0.127000
     10 CAH         0.2740    0.2650    0.2120 ca        1 3DZ     -0.111000
     11 CAZ         0.3630    1.2910    1.3090 c3        1 3DZ     -0.048000
     12 NBA         0.1420    2.6650    0.9380 n3        1 3DZ     -0.333000
     13 CAG         1.0300    0.4200   -0.9550 ca        1 3DZ     -0.132000
     14 CAL         3.8970    0.5140   -2.2440 c3        1 3DZ     -0.886000
     15 PAM         4.2750    2.0250   -1.6630 p5        1 3DZ      2.826000
     16 OAN         3.5500    2.5550   -0.3090 oh        1 3DZ     -0.838000
     17 OAO         5.4330    2.8140   -2.1070 o         1 3DZ     -1.151000
     18 CAP         5.5630    0.9920   -0.2710 c2        1 3DZ     -0.689000
     19 NAQ         6.1600    2.1860    0.3310 n4        1 3DZ     -0.023000
     20 CAR         5.1720   -0.0580    0.7520 c3        1 3DZ     -0.115000
     21 CAS         5.4570   -1.4570    0.2320 c3        1 3DZ     -0.120000
     22 CAT         5.0660   -2.4990    1.2200 ca        1 3DZ     -0.076000
     23 CAU         6.0420   -3.2430    1.8930 ca        1 3DZ     -0.127500
     24 CAY         3.7130   -2.7530    1.4770 ca        1 3DZ     -0.127500
     25 CAX         3.3440   -3.7350    2.3950 ca        1 3DZ     -0.127500
     26 CAW         4.3210   -4.4720    3.0630 ca        1 3DZ     -0.131000
     27 CAV         5.6700   -4.2250    2.8100 ca        1 3DZ     -0.127500
     28 H2          3.3430    0.4330   -4.3530 hc        1 3DZ      0.129000
     29 H3          2.1600   -1.4130   -3.5140 hc        1 3DZ      0.107000
     30 H4          0.9810   -0.1420   -4.0580 hc        1 3DZ      0.107000
     31 H5          0.1200   -2.4230   -2.6000 ha        1 3DZ      0.133000
     32 H6         -1.2280   -2.7090   -0.5280 ha        1 3DZ      0.133000
     33 H7         -1.1400   -0.9900    1.2740 ha        1 3DZ      0.134000
     34 H8         -0.3800    1.0330    2.1170 h1        1 3DZ      0.098000
     35 H9          1.3970    1.2210    1.7590 h1        1 3DZ      0.098000
     36 H10        -0.7760    2.7920    0.5590 hn        1 3DZ      0.145000
     37 H11         0.8130    2.9640    0.2570 hn        1 3DZ      0.145000
     38 H13         1.6780    1.3080   -1.0640 ha        1 3DZ      0.126000
     39 H14         4.8050   -0.0090   -2.6410 hc        1 3DZ      0.157000
     40 H15         3.5140   -0.1530   -1.4250 hc        1 3DZ      0.157000
     41 H17         6.2860    0.5710   -1.0100 hx        1 3DZ      0.101000
     42 H18         6.4840    2.7960   -0.4470 hn        1 3DZ      0.231333
     43 H19         5.4160    2.6710    0.8420 hn        1 3DZ      0.231333
     44 H21         4.0840    0.0310    1.0120 hc        1 3DZ      0.076000
     45 H22         5.7390    0.0780    1.7140 hc        1 3DZ      0.076000
     46 H23         6.5500   -1.5500   -0.0100 hc        1 3DZ      0.086500
     47 H24         4.8930   -1.6250   -0.7260 hc        1 3DZ      0.086500
     48 H25         7.1070   -3.0540    1.6950 ha        1 3DZ      0.132500
     49 H26         2.9400   -2.1740    0.9490 ha        1 3DZ      0.132500
     50 H27         2.2790   -3.9290    2.5900 ha        1 3DZ      0.131500
     51 H28         4.0290   -5.2470    3.7870 ha        1 3DZ      0.132000
     52 H29         6.4440   -4.8060    3.3340 ha        1 3DZ      0.131500
     53 HBA3        2.9270    3.2730   -0.4080 ho        1 3DZ      0.275000
     54 HAQ3        6.9300    1.9810    0.9640 hn        1 3DZ      0.231333
@<TRIPOS>BOND
     1    1    2 1   
     2    2    3 1   
     3    2    4 1   
     4    3   15 1   
     5    4    5 1   
     6    4   14 1   
     7    4   28 1   
     8    5    6 1   
     9    5   29 1   
    10    5   30 1   
    11    6    7 1   
    12    6   13 1   
    13    7    8 1   
    14    7   31 1   
    15    8    9 1   
    16    8   32 1   
    17    9   10 1   
    18    9   33 1   
    19   10   11 1   
    20   10   13 1   
    21   11   12 1   
    22   11   34 1   
    23   11   35 1   
    24   12   36 1   
    25   12   37 1   
    26   13   38 1   
    27   14   15 1   
    28   14   39 1   
    29   14   40 1   
    30   15   16 1   
    31   15   17 1   
    32   16   53 1   
    33   18   19 1   
    34   18   20 1   
    35   18   41 1   
    36   19   42 1   
    37   19   43 1   
    38   19   54 1   
    39   20   21 1   
    40   20   44 1   
    41   20   45 1   
    42   21   22 1   
    43   21   46 1   
    44   21   47 1   
    45   22   23 1   
    46   22   24 1   
    47   23   27 1   
    48   23   48 1   
    49   24   25 1   
    50   24   49 1   
    51   25   26 1   
    52   25   50 1   
    53   26   27 1   
    54   26   51 1   
    55   27   52 1   
@<TRIPOS>SUBSTRUCTURE
     1 3DZ         1 TEMP              0 ****  ****    0 ROOT
