@<TRIPOS>MOLECULE
3E0
   35    37     1     0     0
SMALL
bcc


@<TRIPOS>ATOM
      1 CAP        -0.0640   -0.3620    0.6650 c3        1 3E0      0.142300
      2 CAQ         1.4420   -0.5510    0.4380 c3        1 3E0      0.123900
      3 OAR         2.2090    0.2370    1.3390 os        1 3E0     -0.411600
      4 CAS         1.8880    1.6210    1.2490 c3        1 3E0      0.123900
      5 CAT         0.3950    1.8790    1.4870 c3        1 3E0      0.142300
      6 NAO        -0.4400    1.0500    0.6220 nh        1 3E0     -0.703300
      7 CAL        -1.8260    1.2760    0.7060 cc        1 3E0      0.613300
      8 NAK        -2.4580    2.1410    1.5200 nd        1 3E0     -0.643000
      9 SAM        -2.8910    0.4860   -0.4450 ss        1 3E0     -0.117300
     10 CAN        -4.1960    1.3250    0.1650 cc        1 3E0     -0.264400
     11 CAJ        -3.8130    2.1720    1.2000 cd        1 3E0      0.417800
     12 CAI        -4.7480    3.0450    1.9090 ca        1 3E0     -0.102500
     13 CAH        -5.5450    3.9250    1.1640 ca        1 3E0     -0.119000
     14 CAG        -6.4520    4.7710    1.7950 ca        1 3E0     -0.120000
     15 CAF        -6.5850    4.7610    3.1810 ca        1 3E0     -0.150000
     16 CAB        -5.7950    3.8880    3.9470 ca        1 3E0      0.096900
     17 FAA        -5.9230    3.8740    5.2950 f         1 3E0     -0.134900
     18 CAC        -4.8710    3.0220    3.3090 ca        1 3E0      0.092100
     19 OAD        -4.0230    2.2340    4.0670 os        1 3E0     -0.314900
     20 CAE        -4.6730    1.1310    4.7030 c3        1 3E0      0.111700
     21 H1         -0.6240   -0.9010   -0.1500 h1        1 3E0      0.059950
     22 H2         -0.3390   -0.8280    1.6540 h1        1 3E0      0.059950
     23 H3          1.7200   -0.2970   -0.6180 h1        1 3E0      0.057950
     24 H4          1.7320   -1.6090    0.6720 h1        1 3E0      0.057950
     25 H5          2.2070    2.0150    0.2480 h1        1 3E0      0.057950
     26 H6          2.4920    2.1010    2.0630 h1        1 3E0      0.057950
     27 H7          0.1640    1.6950    2.5760 h1        1 3E0      0.059950
     28 H8          0.1730    2.9580    1.2590 h1        1 3E0      0.059950
     29 H9         -5.2130    1.2080   -0.2010 h4        1 3E0      0.182000
     30 H10        -5.4420    3.9450    0.0680 ha        1 3E0      0.144000
     31 H11        -7.0690    5.4580    1.1960 ha        1 3E0      0.140000
     32 H12        -7.2960    5.4310    3.6860 ha        1 3E0      0.150000
     33 H13        -5.1030    0.4390    3.9400 h1        1 3E0      0.043700
     34 H14        -5.4700    1.4920    5.3970 h1        1 3E0      0.043700
     35 H15        -3.8460    0.6340    5.2690 h1        1 3E0      0.043700
@<TRIPOS>BOND
     1    1    2 1   
     2    1    6 1   
     3    1   21 1   
     4    1   22 1   
     5    2    3 1   
     6    2   23 1   
     7    2   24 1   
     8    3    4 1   
     9    4    5 1   
    10    4   25 1   
    11    4   26 1   
    12    5    6 1   
    13    5   27 1   
    14    5   28 1   
    15    6    7 1   
    16    7    8 2   
    17    7    9 1   
    18    8   11 1   
    19    9   10 1   
    20   10   11 2   
    21   10   29 1   
    22   11   12 1   
    23   12   13 ar  
    24   12   18 ar  
    25   13   14 ar  
    26   13   30 1   
    27   14   15 ar  
    28   14   31 1   
    29   15   16 ar  
    30   15   32 1   
    31   16   17 1   
    32   16   18 ar  
    33   18   19 1   
    34   19   20 1   
    35   20   33 1   
    36   20   34 1   
    37   20   35 1   
@<TRIPOS>SUBSTRUCTURE
     1 3E0         1 TEMP              0 ****  ****    0 ROOT
