@<TRIPOS>MOLECULE
3E0
   35    37     1     0     0
SMALL
bcc


@<TRIPOS>ATOM
      1 CAP        -0.0660   -0.3660    0.6680 c3        1 3E0      0.142300
      2 CAQ         1.4390   -0.5580    0.4420 c3        1 3E0      0.123900
      3 OAR         2.2080    0.2320    1.3400 os        1 3E0     -0.411600
      4 CAS         1.8880    1.6160    1.2470 c3        1 3E0      0.123900
      5 CAT         0.3950    1.8760    1.4860 c3        1 3E0      0.142300
      6 NAO        -0.4410    1.0460    0.6220 nh        1 3E0     -0.703300
      7 CAL        -1.8270    1.2730    0.7070 cc        1 3E0      0.613300
      8 NAK        -2.4580    2.1400    1.5200 nd        1 3E0     -0.643000
      9 SAM        -2.8930    0.4820   -0.4420 ss        1 3E0     -0.117300
     10 CAN        -4.1970    1.3230    0.1670 cc        1 3E0     -0.264400
     11 CAJ        -3.8130    2.1720    1.2000 cd        1 3E0      0.417800
     12 CAI        -4.7470    3.0470    1.9080 ca        1 3E0     -0.102500
     13 CAH        -5.5430    3.9270    1.1610 ca        1 3E0     -0.119000
     14 CAG        -6.4500    4.7740    1.7910 ca        1 3E0     -0.120000
     15 CAF        -6.5820    4.7670    3.1770 ca        1 3E0     -0.150000
     16 CAB        -5.7930    3.8940    3.9440 ca        1 3E0      0.096900
     17 FAA        -5.9200    3.8830    5.2920 f         1 3E0     -0.134900
     18 CAC        -4.8700    3.0270    3.3080 ca        1 3E0      0.092100
     19 OAD        -4.0220    2.2390    4.0670 os        1 3E0     -0.314900
     20 CAE        -4.6730    1.1380    4.7050 c3        1 3E0      0.111700
     21 H1         -0.3410   -0.8300    1.6590 h1        1 3E0      0.059950
     22 H2         -0.6270   -0.9070   -0.1440 h1        1 3E0      0.059950
     23 H3          1.7280   -1.6150    0.6780 h1        1 3E0      0.057950
     24 H4          1.7170   -0.3060   -0.6160 h1        1 3E0      0.057950
     25 H5          2.2060    2.0070    0.2450 h1        1 3E0      0.057950
     26 H6          2.4920    2.0970    2.0600 h1        1 3E0      0.057950
     27 H7          0.1640    1.6950    2.5750 h1        1 3E0      0.059950
     28 H8          0.1740    2.9550    1.2540 h1        1 3E0      0.059950
     29 H9         -5.2150    1.2070   -0.1980 h4        1 3E0      0.182000
     30 H10        -5.4410    3.9440    0.0660 ha        1 3E0      0.144000
     31 H11        -7.0660    5.4610    1.1910 ha        1 3E0      0.140000
     32 H12        -7.2920    5.4390    3.6810 ha        1 3E0      0.150000
     33 H13        -5.1040    0.4460    3.9430 h1        1 3E0      0.043700
     34 H14        -5.4680    1.5020    5.3990 h1        1 3E0      0.043700
     35 H15        -3.8460    0.6420    5.2720 h1        1 3E0      0.043700
@<TRIPOS>BOND
     1    1    2 1   
     2    1    6 1   
     3    1   21 1   
     4    1   22 1   
     5    2    3 1   
     6    2   23 1   
     7    2   24 1   
     8    3    4 1   
     9    4    5 1   
    10    4   25 1   
    11    4   26 1   
    12    5    6 1   
    13    5   27 1   
    14    5   28 1   
    15    6    7 1   
    16    7    8 2   
    17    7    9 1   
    18    8   11 1   
    19    9   10 1   
    20   10   11 2   
    21   10   29 1   
    22   11   12 1   
    23   12   13 ar  
    24   12   18 ar  
    25   13   14 ar  
    26   13   30 1   
    27   14   15 ar  
    28   14   31 1   
    29   15   16 ar  
    30   15   32 1   
    31   16   17 1   
    32   16   18 ar  
    33   18   19 1   
    34   19   20 1   
    35   20   33 1   
    36   20   34 1   
    37   20   35 1   
@<TRIPOS>SUBSTRUCTURE
     1 3E0         1 TEMP              0 ****  ****    0 ROOT
