@<TRIPOS>MOLECULE
3E1
   38    39     1     0     0
SMALL
bcc


@<TRIPOS>ATOM
      1 C1          0.3710   -0.0480   -0.0340 c2        1 3E1     -0.068000
      2 C2          1.6620    0.1630    0.4240 c2        1 3E1      0.015000
      3 C3          1.9660    0.1200    1.8260 c2        1 3E1     -0.194000
      4 C4          0.9620   -0.1050    2.7320 c2        1 3E1      0.062000
      5 C5         -0.4520   -0.2960    2.2990 c3        1 3E1     -0.166000
      6 C6         -0.7040   -0.2710    0.8740 c1        1 3E1     -0.134000
      7 N           0.0160   -0.0220   -1.3970 n         1 3E1     -0.302000
      8 C           0.8750   -0.1450   -2.4740 c2        1 3E1      0.299000
      9 CM          0.2310   -0.1960   -3.8420 c3        1 3E1     -0.243000
     10 O4          1.1130   -0.1930    4.0850 oh        1 3E1     -0.246000
     11 O11         2.1150   -0.1900   -2.3470 o         1 3E1     -0.374000
     12 C11         5.4750    0.9840    1.0120 c2        1 3E1     -0.049000
     13 C21         4.0900    1.2230    1.2800 c1        1 3E1     -0.102000
     14 C31         3.3780    0.3790    2.2440 c3        1 3E1     -0.092000
     15 C41         4.1110   -0.8500    2.6900 c2        1 3E1      0.027000
     16 C51         5.4180   -1.0500    2.3670 c2        1 3E1     -0.182000
     17 C61         6.1170   -0.1300    1.5260 c2        1 3E1     -0.039000
     18 C91         7.3710    1.8850   -0.3410 c2        1 3E1      0.303000
     19 CM1         7.7460    2.9900   -1.3020 c3        1 3E1     -0.243000
     20 O41         3.4970   -1.7200    3.5610 oh        1 3E1     -0.266000
     21 O12         8.1910    1.0000   -0.0260 o         1 3E1     -0.371000
     22 H1          2.4990    0.3750   -0.2700 ha        1 3E1      0.193000
     23 H2         -1.0920    0.5120    2.7700 hc        1 3E1      0.178000
     24 H3         -0.8450   -1.2740    2.7090 hc        1 3E1      0.178000
     25 H4         -0.9660   -0.0840   -1.5640 hn        1 3E1      0.246000
     26 H5         -0.3570    0.7330   -4.0330 hc        1 3E1      0.106333
     27 H6          1.0370   -0.2810   -4.6110 hc        1 3E1      0.106333
     28 H7         -0.4440   -1.0810   -3.9240 hc        1 3E1      0.106333
     29 H8          2.0450   -0.0560    4.3260 ho        1 3E1      0.233000
     30 H9          3.3650    1.0780    3.1570 hc        1 3E1      0.171000
     31 H10         7.1730   -0.3630    1.2920 ha        1 3E1      0.184000
     32 H11         5.9600   -1.9310    2.7440 ha        1 3E1      0.160000
     33 H12         5.4710    2.6450   -0.1550 hn        1 3E1      0.250000
     34 H13         7.6380    3.9890   -0.8170 hc        1 3E1      0.108333
     35 H14         8.8110    2.8470   -1.6080 hc        1 3E1      0.108333
     36 H15         7.0980    2.9510   -2.2110 hc        1 3E1      0.108333
     37 H16         2.6210   -1.9250    3.1940 ho        1 3E1      0.230000
     38 N1          6.0870    1.9320    0.1750 n         1 3E1     -0.302000
@<TRIPOS>BOND
     1    1    2 1   
     2    1    6 1   
     3    1    7 1   
     4    2    3 1   
     5    2   22 1   
     6    3    4 1   
     7    3   14 1   
     8    4    5 1   
     9    4   10 1   
    10    5    6 1   
    11    5   23 1   
    12    5   24 1   
    13    7    8 1   
    14    7   25 1   
    15    8    9 1   
    16    8   11 1   
    17    9   26 1   
    18    9   27 1   
    19    9   28 1   
    20   10   29 1   
    21   12   13 1   
    22   12   17 1   
    23   12   38 1   
    24   13   14 1   
    25   14   15 1   
    26   14   30 1   
    27   15   16 1   
    28   15   20 1   
    29   16   17 1   
    30   16   32 1   
    31   17   31 1   
    32   18   19 1   
    33   18   21 1   
    34   18   38 1   
    35   19   34 1   
    36   19   35 1   
    37   19   36 1   
    38   20   37 1   
    39   33   38 1   
@<TRIPOS>SUBSTRUCTURE
     1 3E1         1 TEMP              0 ****  ****    0 ROOT
