@<TRIPOS>MOLECULE
3E1
   40    41     1     0     0
SMALL
bcc


@<TRIPOS>ATOM
      1 C1          0.2030    0.2710   -0.0720 c2        1 3E1     -0.280000
      2 C2          1.5340    0.4710    0.2910 c2        1 3E1      0.118000
      3 C3          1.9580    0.1960    1.6090 c2        1 3E1     -0.311000
      4 C4          1.0310   -0.2940    2.5400 c2        1 3E1      0.245000
      5 C5         -0.4080   -0.4980    2.1790 c3        1 3E1     -0.191000
      6 C6         -0.7730   -0.1990    0.8190 c1        1 3E1     -0.094000
      7 N          -0.2920    0.5570   -1.4220 n4        1 3E1     -0.043000
      8 C           0.3330   -0.3470   -2.4740 c2        1 3E1      0.281000
      9 CM         -0.5990   -1.2880   -3.1510 c3        1 3E1     -0.258000
     10 O4          1.2860   -0.6190    3.8100 oh        1 3E1     -0.171000
     11 O11         1.5320   -0.1930   -2.6520 o         1 3E1     -0.206000
     12 C11         5.4770    1.3780    0.7770 c2        1 3E1      0.140000
     13 C21         4.1550    1.2170    1.0750 c1        1 3E1      0.061000
     14 C31         3.3840    0.4300    1.9950 c3        1 3E1      0.014000
     15 C41         4.2110   -0.8690    2.0800 c2        1 3E1      0.046000
     16 C51         5.3780   -1.0500    1.4340 c2        1 3E1     -0.258000
     17 C61         6.0520   -0.0460    0.5780 c3        1 3E1     -0.098000
     18 C91         7.4580    2.5690   -0.1280 c2        1 3E1      0.326000
     19 CM1         8.0870    3.9260   -0.1780 c3        1 3E1     -0.248000
     20 O41         3.5940   -1.7570    2.9160 oh        1 3E1     -0.262000
     21 O12         7.9180    1.5320   -0.5980 o         1 3E1     -0.241000
     22 H1          2.2810    0.8400   -0.4400 ha        1 3E1      0.170000
     23 H2         -0.7070   -1.5740    2.4080 hc        1 3E1      0.230000
     24 H3         -1.0690    0.1160    2.8750 hc        1 3E1      0.230000
     25 H4         -0.0950    1.5360   -1.6540 hn        1 3E1      0.268000
     26 H5         -1.3560   -0.7250   -3.7570 hc        1 3E1      0.162000
     27 H6         -0.0070   -1.9470   -3.8420 hc        1 3E1      0.162000
     28 H7         -1.1350   -1.9330   -2.4070 hc        1 3E1      0.162000
     29 H8          2.2360   -0.5740    4.0300 ho        1 3E1      0.271000
     30 H9          3.4090    0.9090    3.0310 hc        1 3E1      0.179000
     31 H10         7.1520   -0.0040    0.8500 hc        1 3E1      0.192500
     32 H11         5.9330   -2.0040    1.5240 ha        1 3E1      0.205000
     33 H12         5.9990   -0.3230   -0.5140 hc        1 3E1      0.192500
     34 H13         7.4360    4.6490   -0.7320 hc        1 3E1      0.151333
     35 H14         8.2790    4.3160    0.8530 hc        1 3E1      0.151333
     36 H15         9.0680    3.8380   -0.7190 hc        1 3E1      0.151333
     37 H16         4.1070   -2.5860    2.9460 ho        1 3E1      0.280000
     38 HN3        -1.3170    0.4120   -1.3990 hn        1 3E1      0.268000
     39 H121        5.7800    3.3770    0.8410 hn        1 3E1      0.273000
     40 N1          6.1720    2.5030    0.5410 n         1 3E1     -0.268000
@<TRIPOS>BOND
     1    1    2 1   
     2    1    6 1   
     3    1    7 1   
     4    2    3 1   
     5    2   22 1   
     6    3    4 1   
     7    3   14 1   
     8    4    5 1   
     9    4   10 1   
    10    5    6 1   
    11    5   23 1   
    12    5   24 1   
    13    7    8 1   
    14    7   25 1   
    15    7   38 1   
    16    8    9 1   
    17    8   11 1   
    18    9   26 1   
    19    9   27 1   
    20    9   28 1   
    21   10   29 1   
    22   12   13 1   
    23   12   17 1   
    24   12   40 1   
    25   13   14 1   
    26   14   15 1   
    27   14   30 1   
    28   15   16 1   
    29   15   20 1   
    30   16   17 1   
    31   16   32 1   
    32   17   31 1   
    33   17   33 1   
    34   18   19 1   
    35   18   21 1   
    36   18   40 1   
    37   19   34 1   
    38   19   35 1   
    39   19   36 1   
    40   20   37 1   
    41   39   40 1   
@<TRIPOS>SUBSTRUCTURE
     1 3E1         1 TEMP              0 ****  ****    0 ROOT
