@<TRIPOS>MOLECULE
3E1
   38    39     1     0     0
SMALL
bcc


@<TRIPOS>ATOM
      1 C1          0.2640   -0.1070    0.1300 c2        1 3E1      0.242000
      2 C2          1.6460   -0.0280    0.4430 c2        1 3E1     -0.246000
      3 C3          2.0640    0.0520    1.7510 c2        1 3E1      0.096000
      4 C4          1.1320   -0.1060    2.9250 c3        1 3E1      0.173000
      5 C5         -0.2960   -0.0430    2.5030 c2        1 3E1     -0.020000
      6 C6         -0.6940   -0.1110    1.2020 c2        1 3E1     -0.287000
      7 N          -0.2200   -0.1640   -1.1630 ns        1 3E1     -0.321000
      8 C           0.5090   -0.2500   -2.3650 c2        1 3E1      0.311000
      9 CM         -0.3180   -0.2160   -3.6270 c3        1 3E1     -0.249000
     10 O4          1.4780    0.4420    4.0490 o         1 3E1     -0.582000
     11 O11         1.7410   -0.3570   -2.3910 o         1 3E1     -0.298000
     12 C11         5.5520    1.1540    1.0550 c2        1 3E1     -0.063000
     13 C21         4.1610    1.2740    1.3530 c1        1 3E1     -0.124000
     14 C31         3.4980    0.2340    2.1220 c3        1 3E1     -0.117000
     15 C41         4.2520   -1.0470    2.2710 c2        1 3E1      0.094000
     16 C51         5.5710   -1.1280    1.9210 c2        1 3E1     -0.283000
     17 C61         6.2360   -0.0240    1.3160 c2        1 3E1     -0.017000
     18 C91         7.3760    2.3610   -0.1470 c2        1 3E1      0.299000
     19 CM1         7.7300    3.6840   -0.7880 c3        1 3E1     -0.243000
     20 O41         3.5400   -2.0780    2.8100 oh        1 3E1     -0.239000
     21 O12         8.1810    1.4080   -0.1620 o         1 3E1     -0.379000
     22 H1          2.3940    0.0310   -0.3680 ha        1 3E1      0.186000
     23 H2         -1.7700   -0.1350    0.9590 ha        1 3E1      0.134000
     24 H3         -1.0290    0.0030    3.3250 ha        1 3E1      0.158000
     25 H4         -1.2140   -0.1350   -1.2580 hn        1 3E1      0.240000
     26 H5         -0.8820    0.7460   -3.7010 hc        1 3E1      0.117333
     27 H6          0.3710   -0.3000   -4.5040 hc        1 3E1      0.117333
     28 H7         -1.0390   -1.0690   -3.6510 hc        1 3E1      0.117333
     29 H8          1.2220   -1.3040    2.9480 h1        1 3E1      0.104000
     30 H9          3.4510    0.7030    3.1960 hc        1 3E1      0.264000
     31 H10         7.3000   -0.1580    1.0460 ha        1 3E1      0.178000
     32 H11         6.1450   -2.0520    2.0830 ha        1 3E1      0.142000
     33 H12         5.5200    3.0670    0.3760 hn        1 3E1      0.247000
     34 H13         7.0060    3.9320   -1.6010 hc        1 3E1      0.105667
     35 H14         7.7220    4.5020   -0.0280 hc        1 3E1      0.105667
     36 H15         8.7550    3.6040   -1.2260 hc        1 3E1      0.105667
     37 H16         4.1470   -2.8100    3.0030 ho        1 3E1      0.228000
     38 N1          6.1380    2.2890    0.4650 ns        1 3E1     -0.300000
@<TRIPOS>BOND
     1    1    2 1   
     2    1    6 1   
     3    1    7 1   
     4    2    3 1   
     5    2   22 1   
     6    3    4 1   
     7    3   14 1   
     8    4    5 1   
     9    4   10 1   
    10    4   29 1   
    11    5    6 1   
    12    5   24 1   
    13    6   23 1   
    14    7    8 1   
    15    7   25 1   
    16    8    9 1   
    17    8   11 1   
    18    9   26 1   
    19    9   27 1   
    20    9   28 1   
    21   12   13 1   
    22   12   17 1   
    23   12   38 1   
    24   13   14 1   
    25   14   15 1   
    26   14   30 1   
    27   15   16 1   
    28   15   20 1   
    29   16   17 1   
    30   16   32 1   
    31   17   31 1   
    32   18   19 1   
    33   18   21 1   
    34   18   38 1   
    35   19   34 1   
    36   19   35 1   
    37   19   36 1   
    38   20   37 1   
    39   33   38 1   
@<TRIPOS>SUBSTRUCTURE
     1 3E1         1 TEMP              0 ****  ****    0 ROOT
