@<TRIPOS>MOLECULE
3E2
   25    27     1     0     0
SMALL
bcc


@<TRIPOS>ATOM
      1 N1          0.1250    0.1000    0.1180 na        1 3E2     -0.083300
      2 C2         -0.6310    0.2240    1.3380 c3        1 3E2     -0.116700
      3 C3         -1.7820    1.2890    1.2950 c         1 3E2      0.909600
      4 O4         -2.9540    0.8330    1.1920 o         1 3E2     -0.809800
      5 O5         -1.4620    2.4970    1.3990 o         1 3E2     -0.809800
      6 C8          1.5010   -0.0010    0.0230 cc        1 3E2      0.469500
      7 N9          2.4390   -0.0760    0.9890 nd        1 3E2     -0.619100
      8 C10         3.7520   -0.1900    0.5570 c         1 3E2      0.555800
      9 S11         5.0240   -0.3050    1.5370 s         1 3E2     -0.548400
     10 N12         4.0400   -0.2200   -0.8490 ns        1 3E2     -0.270900
     11 N13         3.1540   -0.1620   -1.8200 nd        1 3E2     -0.399300
     12 C14         1.8900   -0.0600   -1.4450 cc        1 3E2      0.248600
     13 C15         0.6380    0.0100   -2.1830 ca        1 3E2     -0.170900
     14 C16         0.3400   -0.0110   -3.5340 ca        1 3E2     -0.078000
     15 C17        -1.0000    0.0660   -3.9230 ca        1 3E2     -0.172000
     16 C18        -2.0160    0.1650   -2.9700 ca        1 3E2     -0.105000
     17 C19        -1.7480    0.1890   -1.6010 ca        1 3E2     -0.122000
     18 C21        -0.4110    0.1130   -1.1960 ca        1 3E2      0.026800
     19 H1          0.0690    0.5140    2.1680 h1        1 3E2      0.062700
     20 H2         -1.0860   -0.7810    1.5630 h1        1 3E2      0.062700
     21 H5          1.1420   -0.0840   -4.2820 ha        1 3E2      0.133000
     22 H6         -1.2540    0.0530   -4.9920 ha        1 3E2      0.121000
     23 H7         -3.0640    0.2320   -3.3020 ha        1 3E2      0.130000
     24 H8         -2.5580    0.2900   -0.8510 ha        1 3E2      0.216000
     25 H4          5.0040   -0.2860   -1.1300 hn        1 3E2      0.366500
@<TRIPOS>BOND
     1    1    2 1   
     2    1    6 1   
     3    1   18 1   
     4    2    3 1   
     5    2   19 1   
     6    2   20 1   
     7    3    4 1   
     8    3    5 1   
     9    6    7 2   
    10    6   12 1   
    11    7    8 1   
    12    8    9 2   
    13    8   10 1   
    14   10   11 1   
    15   10   25 1   
    16   11   12 2   
    17   12   13 1   
    18   13   14 ar  
    19   13   18 ar  
    20   14   15 ar  
    21   14   21 1   
    22   15   16 ar  
    23   15   22 1   
    24   16   17 ar  
    25   16   23 1   
    26   17   18 ar  
    27   17   24 1   
@<TRIPOS>SUBSTRUCTURE
     1 3E2         1 TEMP              0 ****  ****    0 ROOT
