@<TRIPOS>MOLECULE
3E2
   25    27     1     0     0
SMALL
bcc


@<TRIPOS>ATOM
      1 N1          0.1220    0.1070    0.1180 na        1 3E2     -0.083300
      2 C2         -0.6360    0.2430    1.3350 c3        1 3E2     -0.116700
      3 C3         -1.7830    1.3110    1.2830 c         1 3E2      0.909600
      4 O4         -2.9560    0.8580    1.1810 o         1 3E2     -0.809800
      5 O5         -1.4580    2.5190    1.3790 o         1 3E2     -0.809800
      6 C8          1.4990    0.0010    0.0270 cc        1 3E2      0.469500
      7 N9          2.4340   -0.0700    0.9950 nd        1 3E2     -0.619100
      8 C10         3.7480   -0.1920    0.5660 c         1 3E2      0.555800
      9 S11         5.0170   -0.3050    1.5500 s         1 3E2     -0.548400
     10 N12         4.0390   -0.2330   -0.8390 n         1 3E2     -0.270900
     11 N13         3.1550   -0.1780   -1.8120 nd        1 3E2     -0.399300
     12 C14         1.8900   -0.0690   -1.4410 cc        1 3E2      0.248600
     13 C15         0.6400    0.0000   -2.1810 ca        1 3E2     -0.170900
     14 C16         0.3440   -0.0290   -3.5330 ca        1 3E2     -0.078000
     15 C17        -0.9940    0.0500   -3.9250 ca        1 3E2     -0.172000
     16 C18        -2.0120    0.1590   -2.9750 ca        1 3E2     -0.105000
     17 C19        -1.7460    0.1920   -1.6050 ca        1 3E2     -0.122000
     18 C21        -0.4110    0.1130   -1.1980 ca        1 3E2      0.026800
     19 H1         -1.0950   -0.7600    1.5660 h1        1 3E2      0.062700
     20 H2          0.0640    0.5360    2.1650 h1        1 3E2      0.062700
     21 H5          1.1480   -0.1100   -4.2780 ha        1 3E2      0.133000
     22 H6         -1.2460    0.0310   -4.9940 ha        1 3E2      0.121000
     23 H7         -3.0590    0.2280   -3.3090 ha        1 3E2      0.130000
     24 H8         -2.5580    0.3000   -0.8580 ha        1 3E2      0.216000
     25 H4          5.0030   -0.3040   -1.1170 hn        1 3E2      0.366500
@<TRIPOS>BOND
     1    1    2 1   
     2    1    6 1   
     3    1   18 1   
     4    2    3 1   
     5    2   19 1   
     6    2   20 1   
     7    3    4 1   
     8    3    5 1   
     9    6    7 2   
    10    6   12 1   
    11    7    8 1   
    12    8    9 2   
    13    8   10 1   
    14   10   11 1   
    15   10   25 1   
    16   11   12 2   
    17   12   13 1   
    18   13   14 ar  
    19   13   18 ar  
    20   14   15 ar  
    21   14   21 1   
    22   15   16 ar  
    23   15   22 1   
    24   16   17 ar  
    25   16   23 1   
    26   17   18 ar  
    27   17   24 1   
@<TRIPOS>SUBSTRUCTURE
     1 3E2         1 TEMP              0 ****  ****    0 ROOT
