@<TRIPOS>MOLECULE
3E3
   44    44     1     0     0
SMALL
bcc


@<TRIPOS>ATOM
      1 N1         -0.1380    0.1260    0.0000 nz        1 3E3     -0.836600
      2 C7          1.3670    0.1730   -0.0290 c3        1 3E3      0.101500
      3 C8          1.9500    0.0820    1.3820 c3        1 3E3     -0.119400
      4 C9          1.4280    1.1210    2.3620 c3        1 3E3     -0.076700
      5 C11         2.2040    1.0000    3.6620 c3        1 3E3     -0.101600
      6 C10         1.5410    2.5300    1.8200 c3        1 3E3     -0.101600
      7 C12         1.8880   -0.9860   -0.9270 c3        1 3E3      0.046100
      8 O2          1.2700   -2.1850   -0.5210 oh        1 3E3     -0.612800
      9 C13         3.4260   -1.0810   -0.8120 c         1 3E3      0.636100
     10 O1          3.8720   -1.9410   -0.0280 o         1 3E3     -0.575100
     11 N2          4.1580   -0.2040   -1.5620 ns        1 3E3     -0.434100
     12 C14         5.5730   -0.1210   -1.6130 ca        1 3E3      0.011600
     13 C21         6.4010   -1.1430   -1.1110 ca        1 3E3     -0.128000
     14 C20         7.7850   -1.0220   -1.1810 ca        1 3E3     -0.111000
     15 C18         8.3780    0.1060   -1.7540 ca        1 3E3     -0.060300
     16 C19         9.8520    0.2230   -1.8410 c3        1 3E3     -0.062800
     17 C17         7.5560    1.1190   -2.2580 ca        1 3E3     -0.108000
     18 C15         6.1650    1.0290   -2.2000 ca        1 3E3     -0.099300
     19 C16         5.3470    2.1320   -2.7590 c3        1 3E3     -0.057800
     20 H30        -0.4950    0.8450    0.6370 hn        1 3E3      0.464800
     21 H31         1.6580    1.1610   -0.4970 hx        1 3E3      0.110700
     22 H32         1.7760   -0.9500    1.7920 hc        1 3E3      0.098700
     23 H33         3.0660    0.2070    1.2820 hc        1 3E3      0.098700
     24 H34         0.3460    0.9070    2.5970 hc        1 3E3      0.029700
     25 H35         3.2800    1.2540    3.5020 hc        1 3E3      0.051200
     26 H36         1.7840    1.7000    4.4240 hc        1 3E3      0.051200
     27 H37         2.1390   -0.0420    4.0600 hc        1 3E3      0.051200
     28 H38         1.2760    3.2680    2.6180 hc        1 3E3      0.051200
     29 H39         0.8500    2.6920    0.9580 hc        1 3E3      0.051200
     30 H40         2.5860    2.7420    1.4850 hc        1 3E3      0.051200
     31 H41         1.5650   -0.8210   -1.9950 h1        1 3E3      0.092700
     32 H42         1.9080   -2.7320   -0.0260 ho        1 3E3      0.471000
     33 H43         3.6740    0.3720   -2.2150 hn        1 3E3      0.322500
     34 H44         5.9690   -2.0500   -0.6550 ha        1 3E3      0.167000
     35 H45         8.4170   -1.8300   -0.7790 ha        1 3E3      0.150000
     36 H46        10.3480   -0.3360   -1.0090 hc        1 3E3      0.055700
     37 H47        10.1740    1.2920   -1.7910 hc        1 3E3      0.055700
     38 H48        10.2090   -0.2050   -2.8120 hc        1 3E3      0.055700
     39 H49         8.0180    2.0110   -2.7130 ha        1 3E3      0.146000
     40 H50         4.6590    2.5530   -1.9840 hc        1 3E3      0.045033
     41 H51         4.7360    1.7730   -3.6260 hc        1 3E3      0.045033
     42 H52         5.9970    2.9660   -3.1250 hc        1 3E3      0.045033
     43 H2         -0.5130    0.2730   -0.9390 hn        1 3E3      0.464800
     44 H13        -0.4260   -0.8060    0.3300 hn        1 3E3      0.464800
@<TRIPOS>BOND
     1    1    2 1   
     2    1   20 1   
     3    1   43 1   
     4    1   44 1   
     5    2    3 1   
     6    2    7 1   
     7    2   21 1   
     8    3    4 1   
     9    3   22 1   
    10    3   23 1   
    11    4    5 1   
    12    4    6 1   
    13    4   24 1   
    14    5   25 1   
    15    5   26 1   
    16    5   27 1   
    17    6   28 1   
    18    6   29 1   
    19    6   30 1   
    20    7    8 1   
    21    7    9 1   
    22    7   31 1   
    23    8   32 1   
    24    9   10 2   
    25    9   11 1   
    26   11   12 1   
    27   11   33 1   
    28   12   13 ar  
    29   12   18 ar  
    30   13   14 ar  
    31   13   34 1   
    32   14   15 ar  
    33   14   35 1   
    34   15   16 1   
    35   15   17 ar  
    36   16   36 1   
    37   16   37 1   
    38   16   38 1   
    39   17   18 ar  
    40   17   39 1   
    41   18   19 1   
    42   19   40 1   
    43   19   41 1   
    44   19   42 1   
@<TRIPOS>SUBSTRUCTURE
     1 3E3         1 TEMP              0 ****  ****    0 ROOT
