@<TRIPOS>MOLECULE
3E3
   44    44     1     0     0
SMALL
bcc


@<TRIPOS>ATOM
      1 N1         -0.1400    0.1350   -0.0030 n4        1 3E3     -0.836600
      2 C7          1.3650    0.1790   -0.0310 c3        1 3E3      0.101500
      3 C8          1.9470    0.0800    1.3790 c3        1 3E3     -0.119400
      4 C9          1.4270    1.1150    2.3650 c3        1 3E3     -0.076700
      5 C11         2.2030    0.9850    3.6640 c3        1 3E3     -0.101600
      6 C10         1.5420    2.5260    1.8310 c3        1 3E3     -0.101600
      7 C12         1.8840   -0.9760   -0.9340 c3        1 3E3      0.046100
      8 O2          1.2630   -2.1760   -0.5350 oh        1 3E3     -0.612800
      9 C13         3.4210   -1.0760   -0.8190 c         1 3E3      0.636100
     10 O1          3.8650   -1.9400   -0.0400 o         1 3E3     -0.575100
     11 N2          4.1560   -0.1970   -1.5650 n         1 3E3     -0.434100
     12 C14         5.5710   -0.1180   -1.6150 ca        1 3E3      0.011600
     13 C21         6.3960   -1.1450   -1.1180 ca        1 3E3     -0.128000
     14 C20         7.7800   -1.0270   -1.1870 ca        1 3E3     -0.111000
     15 C18         8.3770    0.1020   -1.7530 ca        1 3E3     -0.060300
     16 C19         9.8510    0.2160   -1.8390 c3        1 3E3     -0.062800
     17 C17         7.5590    1.1200   -2.2520 ca        1 3E3     -0.109000
     18 C15         6.1670    1.0340   -2.1950 ca        1 3E3     -0.099300
     19 C16         5.3520    2.1420   -2.7490 c3        1 3E3     -0.057800
     20 H30        -0.4950    0.8510    0.6380 hn        1 3E3      0.464800
     21 H31         1.6590    1.1690   -0.4940 hx        1 3E3      0.110700
     22 H32         1.7720   -0.9540    1.7840 hc        1 3E3      0.098700
     23 H33         3.0630    0.2030    1.2800 hc        1 3E3      0.098700
     24 H34         0.3450    0.9000    2.5990 hc        1 3E3      0.029700
     25 H35         1.7840    1.6820    4.4300 hc        1 3E3      0.051200
     26 H36         3.2790    1.2390    3.5060 hc        1 3E3      0.051200
     27 H37         2.1370   -0.0580    4.0570 hc        1 3E3      0.051200
     28 H38         0.8520    2.6930    0.9690 hc        1 3E3      0.051200
     29 H39         2.5870    2.7380    1.4960 hc        1 3E3      0.051200
     30 H40         1.2790    3.2610    2.6320 hc        1 3E3      0.051200
     31 H41         1.5620   -0.8050   -2.0020 h1        1 3E3      0.092700
     32 H42         1.8990   -2.7270   -0.0430 ho        1 3E3      0.471000
     33 H43         3.6740    0.3840   -2.2160 hn        1 3E3      0.322500
     34 H44         5.9620   -2.0530   -0.6670 ha        1 3E3      0.167000
     35 H45         8.4100   -1.8400   -0.7890 ha        1 3E3      0.150000
     36 H46        10.2060   -0.1880   -2.8220 hc        1 3E3      0.055700
     37 H47        10.3470   -0.3660   -1.0230 hc        1 3E3      0.055700
     38 H48        10.1760    1.2820   -1.7620 hc        1 3E3      0.055700
     39 H49         8.0230    2.0130   -2.7020 ha        1 3E3      0.146000
     40 H50         6.0050    2.9760   -3.1100 hc        1 3E3      0.045033
     41 H51         4.7410    1.7900   -3.6180 hc        1 3E3      0.045033
     42 H52         4.6650    2.5610   -1.9720 hc        1 3E3      0.045033
     43 H2         -0.5140    0.2880   -0.9410 hn        1 3E3      0.464800
     44 H13        -0.4300   -0.7980    0.3220 hn        1 3E3      0.464800
@<TRIPOS>BOND
     1    1    2 1   
     2    1   20 1   
     3    1   43 1   
     4    1   44 1   
     5    2    3 1   
     6    2    7 1   
     7    2   21 1   
     8    3    4 1   
     9    3   22 1   
    10    3   23 1   
    11    4    5 1   
    12    4    6 1   
    13    4   24 1   
    14    5   25 1   
    15    5   26 1   
    16    5   27 1   
    17    6   28 1   
    18    6   29 1   
    19    6   30 1   
    20    7    8 1   
    21    7    9 1   
    22    7   31 1   
    23    8   32 1   
    24    9   10 2   
    25    9   11 1   
    26   11   12 1   
    27   11   33 1   
    28   12   13 ar  
    29   12   18 ar  
    30   13   14 ar  
    31   13   34 1   
    32   14   15 ar  
    33   14   35 1   
    34   15   16 1   
    35   15   17 ar  
    36   16   36 1   
    37   16   37 1   
    38   16   38 1   
    39   17   18 ar  
    40   17   39 1   
    41   18   19 1   
    42   19   40 1   
    43   19   41 1   
    44   19   42 1   
@<TRIPOS>SUBSTRUCTURE
     1 3E3         1 TEMP              0 ****  ****    0 ROOT
