@<TRIPOS>MOLECULE
3E3
   45    45     1     0     0
SMALL
bcc


@<TRIPOS>ATOM
      1 N1          1.0990    1.4450    0.4310 n4        1 3E3     -0.837600
      2 C7          2.2470    0.4930    0.2350 c3        1 3E3      0.139500
      3 C8          2.4040   -0.4300    1.4480 c3        1 3E3     -0.122400
      4 C9          2.4330    0.2760    2.7980 c3        1 3E3     -0.078700
      5 C11         2.6990   -0.7600    3.8790 c3        1 3E3     -0.105600
      6 C10         3.4840    1.3640    2.8560 c3        1 3E3     -0.105600
      7 C12         2.0350   -0.3190   -1.0840 c3        1 3E3      0.082100
      8 O2          0.7280   -0.8440   -1.0090 oh        1 3E3     -0.575800
      9 C13         3.0280   -1.4820   -1.1790 c         1 3E3      0.490100
     10 O1          2.9880   -2.5020   -0.5100 o         1 3E3     -0.352100
     11 N2          4.1060   -1.4200   -2.2270 n4        1 3E3     -0.527200
     12 C14         5.0890   -0.3620   -1.9770 ca        1 3E3     -0.122400
     13 C21         5.9630   -0.5000   -0.8790 ca        1 3E3     -0.099000
     14 C20         6.9620    0.4410   -0.6750 ca        1 3E3     -0.117000
     15 C18         7.1160    1.5240   -1.5570 ca        1 3E3      0.024700
     16 C19         8.2090    2.4990   -1.3580 c3        1 3E3     -0.092800
     17 C17         6.2390    1.6500   -2.6420 ca        1 3E3     -0.123000
     18 C15         5.2250    0.7180   -2.8780 ca        1 3E3     -0.034300
     19 C16         4.3640    0.8650   -4.0760 c3        1 3E3     -0.092800
     20 H30         0.2270    0.9060    0.5400 hn        1 3E3      0.478467
     21 H31         3.1820    1.1220    0.1120 hx        1 3E3      0.125700
     22 H32         3.3780   -0.9780    1.3210 hc        1 3E3      0.097200
     23 H33         1.5820   -1.1980    1.4420 hc        1 3E3      0.097200
     24 H34         1.4210    0.7240    3.0130 hc        1 3E3      0.043700
     25 H35         2.6520   -0.2760    4.8860 hc        1 3E3      0.057033
     26 H36         1.9330   -1.5720    3.8420 hc        1 3E3      0.057033
     27 H37         3.7110   -1.2130    3.7530 hc        1 3E3      0.057033
     28 H38         3.2640    2.1900    2.1380 hc        1 3E3      0.057033
     29 H39         4.4950    0.9510    2.6240 hc        1 3E3      0.057033
     30 H40         3.5190    1.8010    3.8860 hc        1 3E3      0.057033
     31 H41         2.1460    0.3630   -1.9760 h1        1 3E3      0.088700
     32 H42         0.5040   -1.2860   -1.8440 ho        1 3E3      0.468000
     33 H43         4.6090   -2.3280   -2.2340 hn        1 3E3      0.479300
     34 H44         5.8820   -1.3600   -0.1910 ha        1 3E3      0.161000
     35 H45         7.6560    0.3250    0.1760 ha        1 3E3      0.184000
     36 H46         7.9440    3.5020   -1.7770 hc        1 3E3      0.085033
     37 H47         8.4560    2.6170   -0.2730 hc        1 3E3      0.085033
     38 H48         9.1330    2.1380   -1.8850 hc        1 3E3      0.085033
     39 H49         6.3660    2.4950   -3.3430 ha        1 3E3      0.182000
     40 H50         4.5770    0.0520   -4.8190 hc        1 3E3      0.070033
     41 H51         3.2780    0.8420   -3.8100 hc        1 3E3      0.070033
     42 H52         4.5620    1.8400   -4.5950 hc        1 3E3      0.070033
     43 H2          1.2650    1.9950    1.2860 hn        1 3E3      0.478467
     44 H13         1.0050    2.0740   -0.3700 hn        1 3E3      0.478467
     45 H22         3.6810   -1.2800   -3.1540 hn        1 3E3      0.479300
@<TRIPOS>BOND
     1    1    2 1   
     2    1   20 1   
     3    1   43 1   
     4    1   44 1   
     5    2    3 1   
     6    2    7 1   
     7    2   21 1   
     8    3    4 1   
     9    3   22 1   
    10    3   23 1   
    11    4    5 1   
    12    4    6 1   
    13    4   24 1   
    14    5   25 1   
    15    5   26 1   
    16    5   27 1   
    17    6   28 1   
    18    6   29 1   
    19    6   30 1   
    20    7    8 1   
    21    7    9 1   
    22    7   31 1   
    23    8   32 1   
    24    9   10 2   
    25    9   11 1   
    26   11   12 1   
    27   11   33 1   
    28   11   45 1   
    29   12   13 ar  
    30   12   18 ar  
    31   13   14 ar  
    32   13   34 1   
    33   14   15 ar  
    34   14   35 1   
    35   15   16 1   
    36   15   17 ar  
    37   16   36 1   
    38   16   37 1   
    39   16   38 1   
    40   17   18 ar  
    41   17   39 1   
    42   18   19 1   
    43   19   40 1   
    44   19   41 1   
    45   19   42 1   
@<TRIPOS>SUBSTRUCTURE
     1 3E3         1 TEMP              0 ****  ****    0 ROOT
