@<TRIPOS>MOLECULE
3E4
   75    80     1     0     0
SMALL
bcc


@<TRIPOS>ATOM
      1 C21         0.3770   -0.6020   -1.0800 c3        1 3E4     -0.103400
      2 C22         1.8820   -0.5270   -0.9350 c3        1 3E4     -0.096900
      3 C23         2.2720    0.8410   -0.3670 c3        1 3E4      0.115500
      4 N6          3.7710    0.9680   -0.2500 nz        1 3E4     -0.843600
      5 C24         1.5970    1.0700    0.9890 c3        1 3E4     -0.096900
      6 C25         0.0930    0.9890    0.8260 c3        1 3E4     -0.103400
      7 C20        -0.3140   -0.3940    0.2810 c3        1 3E4      0.214500
      8 N4         -1.7530   -0.5210    0.2510 nu        1 3E4     -0.818900
      9 C12        -2.3450   -1.7910    0.0380 ca        1 3E4      0.848900
     10 N2         -3.6610   -1.7770   -0.4040 nb        1 3E4     -0.715000
     11 N3         -1.6190   -2.9340    0.3400 nb        1 3E4     -0.758000
     12 C15        -2.2880   -4.0960    0.2440 ca        1 3E4      0.458200
     13 C13        -3.6300   -4.1860   -0.1510 ca        1 3E4     -0.387600
     14 C11        -4.2870   -2.9730   -0.4730 cp        1 3E4      0.559800
     15 C14        -5.6840   -3.0220   -0.9250 cp        1 3E4     -0.310800
     16 C16        -6.0390   -3.8180   -2.0230 ca        1 3E4     -0.046000
     17 C17        -7.3600   -3.8370   -2.4620 ca        1 3E4     -0.283300
     18 C18        -8.3040   -3.0450   -1.7820 ca        1 3E4      0.451200
     19 N5         -8.0130   -2.2820   -0.7160 nb        1 3E4     -0.703000
     20 C19        -6.7200   -2.2790   -0.2920 ca        1 3E4      0.661600
     21 O1         -6.3430   -1.5700    0.8370 os        1 3E4     -0.356400
     22 C4         -7.2940   -0.7150    1.4130 ca        1 3E4      0.085100
     23 C5         -7.3140    0.6190    1.0560 ca        1 3E4     -0.038300
     24 C26        -6.4580    1.1760   -0.0160 c3        1 3E4     -0.061800
     25 C6         -8.1990    1.4930    1.7340 ca        1 3E4     -0.160000
     26 C3         -8.1330   -1.2340    2.4430 ca        1 3E4     -0.011000
     27 C10        -8.1000   -2.6080    2.8020 ca        1 3E4     -0.111000
     28 C9         -8.9070   -3.0930    3.8010 ca        1 3E4     -0.119000
     29 C8         -9.7790   -2.2190    4.4880 ca        1 3E4     -0.123000
     30 C7         -9.8290   -0.8850    4.1600 ca        1 3E4     -0.119000
     31 C2         -9.0110   -0.3520    3.1260 ca        1 3E4     -0.046000
     32 C1         -9.0390    1.0410    2.7450 ca        1 3E4      0.175600
     33 N1         -9.9330    1.9250    3.3750 nu        1 3E4     -0.780500
     34 S1         -9.6610    3.4590    3.8480 sy        1 3E4      1.510200
     35 O2         -8.6610    4.0690    3.0600 o         1 3E4     -0.641800
     36 O3        -10.8950    4.1280    3.9020 o         1 3E4     -0.641800
     37 C27        -9.0400    3.2790    5.4240 ca        1 3E4     -0.364500
     38 C32        -7.7640    3.8070    5.6790 ca        1 3E4     -0.020000
     39 C31        -7.1950    3.7590    6.9470 ca        1 3E4     -0.155000
     40 C30        -7.8970    3.1740    8.0010 ca        1 3E4     -0.058000
     41 C29        -9.1630    2.6350    7.7790 ca        1 3E4     -0.149000
     42 C28        -9.7210    2.6880    6.4980 ca        1 3E4      0.129400
     43 Cl1       -11.2650    2.0110    6.2720 cl        1 3E4     -0.078400
     44 H1          0.0220    0.1660   -1.8160 hc        1 3E4      0.077450
     45 H2          0.1100   -1.6140   -1.4870 hc        1 3E4      0.077450
     46 H3          2.3580   -0.6830   -1.9390 hc        1 3E4      0.069200
     47 H4          2.2310   -1.3460   -0.2500 hc        1 3E4      0.069200
     48 H5          1.9450    1.6510   -1.0880 hx        1 3E4      0.112700
     49 H6          4.1290    0.2550    0.3930 hn        1 3E4      0.457800
     50 H7          4.2020    0.8330   -1.1690 hn        1 3E4      0.457800
     51 H9          1.8670    2.0810    1.3950 hc        1 3E4      0.069200
     52 H10         1.9350    0.2940    1.7260 hc        1 3E4      0.069200
     53 H11        -0.2630    1.8000    0.1390 hc        1 3E4      0.077450
     54 H12        -0.3850    1.1580    1.8290 hc        1 3E4      0.077450
     55 H13         0.0860   -1.1750    0.9980 h1        1 3E4      0.093700
     56 H14        -2.2260    0.2340   -0.2040 hn        1 3E4      0.427800
     57 H15        -1.7040   -5.0010    0.5000 h4        1 3E4      0.032100
     58 H16        -4.1530   -5.1470   -0.2060 ha        1 3E4      0.166000
     59 H17        -5.2690   -4.4170   -2.5340 ha        1 3E4      0.144000
     60 H18        -7.6640   -4.4490   -3.3210 ha        1 3E4      0.156000
     61 H19        -9.3630   -3.0190   -2.1020 h4        1 3E4      0.037100
     62 H20        -5.6910    0.4320   -0.3470 hc        1 3E4      0.054700
     63 H21        -7.0880    1.4580   -0.8970 hc        1 3E4      0.054700
     64 H22        -5.9340    2.0950    0.3470 hc        1 3E4      0.054700
     65 H23        -8.1910    2.5560    1.4310 ha        1 3E4      0.173000
     66 H24        -7.4110   -3.2710    2.2570 ha        1 3E4      0.140000
     67 H25        -8.8850   -4.1580    4.0760 ha        1 3E4      0.137000
     68 H26       -10.4180   -2.6200    5.2900 ha        1 3E4      0.138000
     69 H27       -10.5090   -0.2280    4.7230 ha        1 3E4      0.133000
     70 H28       -10.8230    1.5100    3.5510 hn        1 3E4      0.462800
     71 H29        -7.2040    4.2760    4.8480 ha        1 3E4      0.168000
     72 H30        -6.1960    4.1860    7.1190 ha        1 3E4      0.144000
     73 H31        -7.4560    3.1370    9.0100 ha        1 3E4      0.145000
     74 H32        -9.7220    2.1740    8.6090 ha        1 3E4      0.158000
     75 H63         4.0140    1.8940    0.1110 hn        1 3E4      0.457800
@<TRIPOS>BOND
     1    1    2 1   
     2    1    7 1   
     3    1   44 1   
     4    1   45 1   
     5    2    3 1   
     6    2   46 1   
     7    2   47 1   
     8    3    4 1   
     9    3    5 1   
    10    3   48 1   
    11    4   49 1   
    12    4   50 1   
    13    4   75 1   
    14    5    6 1   
    15    5   51 1   
    16    5   52 1   
    17    6    7 1   
    18    6   53 1   
    19    6   54 1   
    20    7    8 1   
    21    7   55 1   
    22    8    9 1   
    23    8   56 1   
    24    9   10 ar  
    25    9   11 ar  
    26   10   14 ar  
    27   11   12 ar  
    28   12   13 ar  
    29   12   57 1   
    30   13   14 ar  
    31   13   58 1   
    32   14   15 1   
    33   15   16 ar  
    34   15   20 ar  
    35   16   17 ar  
    36   16   59 1   
    37   17   18 ar  
    38   17   60 1   
    39   18   19 ar  
    40   18   61 1   
    41   19   20 ar  
    42   20   21 1   
    43   21   22 1   
    44   22   23 ar  
    45   22   26 ar  
    46   23   24 1   
    47   23   25 ar  
    48   24   62 1   
    49   24   63 1   
    50   24   64 1   
    51   25   32 ar  
    52   25   65 1   
    53   26   27 ar  
    54   26   31 ar  
    55   27   28 ar  
    56   27   66 1   
    57   28   29 ar  
    58   28   67 1   
    59   29   30 ar  
    60   29   68 1   
    61   30   31 ar  
    62   30   69 1   
    63   31   32 ar  
    64   32   33 1   
    65   33   34 1   
    66   33   70 1   
    67   34   35 2   
    68   34   36 2   
    69   34   37 1   
    70   37   38 ar  
    71   37   42 ar  
    72   38   39 ar  
    73   38   71 1   
    74   39   40 ar  
    75   39   72 1   
    76   40   41 ar  
    77   40   73 1   
    78   41   42 ar  
    79   41   74 1   
    80   42   43 1   
@<TRIPOS>SUBSTRUCTURE
     1 3E4         1 TEMP              0 ****  ****    0 ROOT
