@<TRIPOS>MOLECULE
3E4
   74    79     1     0     0
SMALL
bcc


@<TRIPOS>ATOM
      1 C21         0.3230   -0.5480   -0.9190 c3        1 3E4     -0.094900
      2 C22         1.8220   -0.4350   -0.7630 c3        1 3E4     -0.073400
      3 C23         2.2090    0.9490   -0.2180 c3        1 3E4      0.169500
      4 N6          3.6510    1.0900   -0.0890 n3        1 3E4     -0.913800
      5 C24         1.4980    1.1700    1.1270 c3        1 3E4     -0.073400
      6 C25        -0.0020    1.0610    0.9660 c3        1 3E4     -0.094900
      7 C20        -0.3820   -0.3320    0.4310 c3        1 3E4      0.208500
      8 N4         -1.8270   -0.4730    0.3750 nh        1 3E4     -0.816900
      9 C12        -2.4170   -1.7290    0.1500 ca        1 3E4      0.867900
     10 N2         -3.7200   -1.7180   -0.3450 nb        1 3E4     -0.735000
     11 N3         -1.7170   -2.8810    0.4980 nb        1 3E4     -0.740000
     12 C15        -2.3850   -4.0370    0.3770 ca        1 3E4      0.461200
     13 C13        -3.7080   -4.1280   -0.0840 ca        1 3E4     -0.413600
     14 C11        -4.3410   -2.9130   -0.4360 cp        1 3E4      0.546800
     15 C14        -5.7200   -2.9600   -0.9490 cp        1 3E4     -0.285800
     16 C16        -6.0190   -3.6960   -2.1000 ca        1 3E4     -0.050000
     17 C17        -7.3250   -3.7160   -2.5870 ca        1 3E4     -0.285300
     18 C18        -8.3080   -2.9840   -1.8980 ca        1 3E4      0.438200
     19 N5         -8.0690   -2.2730   -0.7820 nb        1 3E4     -0.708000
     20 C19        -6.7920   -2.2700   -0.3170 ca        1 3E4      0.651600
     21 O1         -6.4640   -1.6120    0.8600 os        1 3E4     -0.352400
     22 C4         -7.4400   -0.7850    1.4330 ca        1 3E4      0.091100
     23 C5         -7.5360    0.5390    1.0510 ca        1 3E4     -0.035300
     24 C26        -6.7320    1.1130   -0.0520 c3        1 3E4     -0.063800
     25 C6         -8.4460    1.3810    1.7360 ca        1 3E4     -0.165000
     26 C3         -8.2240   -1.3210    2.4970 ca        1 3E4     -0.011000
     27 C10        -8.1140   -2.6870    2.8780 ca        1 3E4     -0.106000
     28 C9         -8.8640   -3.1900    3.9110 ca        1 3E4     -0.125000
     29 C8         -9.7520   -2.3440    4.6130 ca        1 3E4     -0.125000
     30 C7         -9.8750   -1.0200    4.2640 ca        1 3E4     -0.122000
     31 C2         -9.1190   -0.4690    3.1930 ca        1 3E4     -0.046000
     32 C1         -9.2250    0.9130    2.7870 ca        1 3E4      0.168600
     33 N1        -10.1300    1.7720    3.4390 nh        1 3E4     -0.778500
     34 S1         -9.9240    3.3380    3.8240 sy        1 3E4      1.510200
     35 O2         -9.2440    4.0400    2.8070 o         1 3E4     -0.644800
     36 O3        -11.1790    3.8600    4.1900 o         1 3E4     -0.644800
     37 C27        -8.9010    3.2820    5.1840 ca        1 3E4     -0.364500
     38 C32        -7.6610    3.9340    5.0880 ca        1 3E4     -0.017000
     39 C31        -6.7750    3.9760    6.1600 ca        1 3E4     -0.153000
     40 C30        -7.1130    3.3590    7.3640 ca        1 3E4     -0.059000
     41 C29        -8.3350    2.7010    7.4900 ca        1 3E4     -0.151000
     42 C28        -9.2140    2.6640    6.4040 ca        1 3E4      0.131400
     43 CL1       -10.6910    1.8410    6.5990 cl        1 3E4     -0.081400
     44 H1          0.0720   -1.5670   -1.3170 hc        1 3E4      0.047950
     45 H2         -0.0410    0.2080   -1.6630 hc        1 3E4      0.047950
     46 H3          2.3090   -0.6020   -1.7590 hc        1 3E4      0.051700
     47 H4          2.1940   -1.2310   -0.0660 hc        1 3E4      0.051700
     48 H5          1.7910    1.7190   -0.9430 h1        1 3E4      0.005700
     49 H6          3.8790    2.0060    0.2420 hn        1 3E4      0.350300
     50 H7          4.0930    0.9340   -0.9720 hn        1 3E4      0.350300
     51 H9          1.7490    2.1870    1.5280 hc        1 3E4      0.051700
     52 H10         1.8590    0.4130    1.8710 hc        1 3E4      0.051700
     53 H11        -0.4920    1.2340    1.9600 hc        1 3E4      0.047950
     54 H12        -0.3670    1.8540    0.2620 hc        1 3E4      0.047950
     55 H13         0.0130   -1.1000    1.1620 h1        1 3E4      0.090700
     56 H14        -2.2950    0.2900   -0.0710 hn        1 3E4      0.421800
     57 H15        -1.8180   -4.9420    0.6640 h4        1 3E4      0.025100
     58 H16        -4.2280   -5.0870   -0.1630 ha        1 3E4      0.154000
     59 H17        -5.2190   -4.2500   -2.6160 ha        1 3E4      0.147000
     60 H18        -7.5850   -4.2830   -3.4900 ha        1 3E4      0.149000
     61 H19        -9.3550   -2.9600   -2.2520 h4        1 3E4      0.028100
     62 H20        -5.9060    0.4200   -0.3500 hc        1 3E4      0.057700
     63 H21        -7.3860    1.2960   -0.9430 hc        1 3E4      0.057700
     64 H22        -6.2850    2.0890    0.2600 hc        1 3E4      0.057700
     65 H23        -8.5090    2.4330    1.4000 ha        1 3E4      0.173000
     66 H24        -7.4090   -3.3250    2.3230 ha        1 3E4      0.145000
     67 H25        -8.7810   -4.2470    4.2050 ha        1 3E4      0.135000
     68 H26       -10.3420   -2.7580    5.4440 ha        1 3E4      0.133000
     69 H27       -10.5640   -0.3860    4.8430 ha        1 3E4      0.129000
     70 H28       -10.9700    1.3110    3.7160 hn        1 3E4      0.461800
     71 H29        -7.3880    4.4260    4.1350 ha        1 3E4      0.171000
     72 H30        -5.8110    4.4950    6.0560 ha        1 3E4      0.147000
     73 H31        -6.4170    3.3880    8.2170 ha        1 3E4      0.143000
     74 H32        -8.6050    2.2120    8.4380 ha        1 3E4      0.155000
@<TRIPOS>BOND
     1    1    2 1   
     2    1    7 1   
     3    1   44 1   
     4    1   45 1   
     5    2    3 1   
     6    2   46 1   
     7    2   47 1   
     8    3    4 1   
     9    3    5 1   
    10    3   48 1   
    11    4   49 1   
    12    4   50 1   
    13    5    6 1   
    14    5   51 1   
    15    5   52 1   
    16    6    7 1   
    17    6   53 1   
    18    6   54 1   
    19    7    8 1   
    20    7   55 1   
    21    8    9 1   
    22    8   56 1   
    23    9   10 ar  
    24    9   11 ar  
    25   10   14 ar  
    26   11   12 ar  
    27   12   13 ar  
    28   12   57 1   
    29   13   14 ar  
    30   13   58 1   
    31   14   15 1   
    32   15   16 ar  
    33   15   20 ar  
    34   16   17 ar  
    35   16   59 1   
    36   17   18 ar  
    37   17   60 1   
    38   18   19 ar  
    39   18   61 1   
    40   19   20 ar  
    41   20   21 1   
    42   21   22 1   
    43   22   23 ar  
    44   22   26 ar  
    45   23   24 1   
    46   23   25 ar  
    47   24   62 1   
    48   24   63 1   
    49   24   64 1   
    50   25   32 ar  
    51   25   65 1   
    52   26   27 ar  
    53   26   31 ar  
    54   27   28 ar  
    55   27   66 1   
    56   28   29 ar  
    57   28   67 1   
    58   29   30 ar  
    59   29   68 1   
    60   30   31 ar  
    61   30   69 1   
    62   31   32 ar  
    63   32   33 1   
    64   33   34 1   
    65   33   70 1   
    66   34   35 2   
    67   34   36 2   
    68   34   37 1   
    69   37   38 ar  
    70   37   42 ar  
    71   38   39 ar  
    72   38   71 1   
    73   39   40 ar  
    74   39   72 1   
    75   40   41 ar  
    76   40   73 1   
    77   41   42 ar  
    78   41   74 1   
    79   42   43 1   
@<TRIPOS>SUBSTRUCTURE
     1 3E4         1 TEMP              0 ****  ****    0 ROOT
