@<TRIPOS>MOLECULE
3E9
   51    50     1     0     0
SMALL
bcc


@<TRIPOS>ATOM
      1 C1          0.0000    0.0000    0.0000 c3        1 3E9      0.304400
      2 O1          1.4290    0.0000    0.0000 os        1 3E9     -0.499200
      3 C2         -0.5100    0.0000    1.4430 c3        1 3E9     -0.058400
      4 C3         -2.0390    0.0010    1.4420 c3        1 3E9     -0.052700
      5 C4         -2.5510   -1.3050    0.8310 c3        1 3E9     -0.013100
      6 C5         -2.5490    0.1270    2.8790 c3        1 3E9     -0.021400
      7 C6         -4.0750    0.2520    2.8700 c3        1 3E9     -0.007200
      8 C7         -4.5770    0.3760    4.2850 c2        1 3E9     -0.162200
      9 C8         -5.2700    1.4280    4.6450 c2        1 3E9     -0.189400
     10 C10        -5.4530    2.5750    3.6850 c3        1 3E9      0.065100
     11 C9         -5.8870    1.4900    6.0190 c3        1 3E9      0.036800
     12 C11        -4.9480    2.2400    6.9660 c3        1 3E9      0.026800
     13 C12        -5.5640    2.3020    8.3400 c2        1 3E9     -0.258200
     14 C13        -4.9280    1.7950    9.3660 c2        1 3E9     -0.259400
     15 C14        -3.6440    1.0340    9.1560 c3        1 3E9      0.088600
     16 C15        -5.4800    1.9720   10.7570 c3        1 3E9      0.088600
     17 PA          2.3060   -0.0010   -1.3500 p5        1 3E9      0.913800
     18 O1A         2.0610    1.3760   -2.1500 o         1 3E9     -0.704500
     19 O2A         1.9020   -1.1430   -2.2010 o         1 3E9     -0.704500
     20 O3A         3.8670   -0.1340   -0.9770 os        1 3E9     -0.466800
     21 PB          5.1910   -0.4920   -1.8180 p5        1 3E9      0.793900
     22 O1B         6.4950   -0.0850   -0.9680 o         1 3E9     -0.708167
     23 O2B         5.2220   -2.0730   -2.1240 o         1 3E9     -0.708167
     24 O3B         5.1820    0.2560   -3.0960 o         1 3E9     -0.708167
     25 H1         -0.3610    0.8850   -0.5110 h1        1 3E9     -0.030800
     26 H2         -0.3610   -0.8840   -0.5110 h1        1 3E9     -0.030800
     27 H3         -0.1490   -0.8850    1.9530 hc        1 3E9      0.008700
     28 H4         -0.1490    0.8840    1.9540 hc        1 3E9      0.008700
     29 H5         -2.3990    0.8380    0.8570 hc        1 3E9      0.020700
     30 H6         -3.2170   -1.7950    1.5310 hc        1 3E9      0.002700
     31 H7         -3.0860   -1.0900   -0.0860 hc        1 3E9      0.002700
     32 H8         -1.7120   -1.9560    0.6160 hc        1 3E9      0.002700
     33 H9         -2.1170    1.0070    3.3400 hc        1 3E9      0.012200
     34 H10        -2.2630   -0.7530    3.4430 hc        1 3E9      0.012200
     35 H11        -4.5070   -0.6280    2.4090 hc        1 3E9      0.019700
     36 H12        -4.3610    1.1320    2.3070 hc        1 3E9      0.019700
     37 H13        -4.4470   -0.4470    4.9770 ha        1 3E9      0.097000
     38 H14        -5.9590    2.2230    2.7940 hc        1 3E9      0.002033
     39 H15        -4.4850    2.9770    3.4150 hc        1 3E9      0.002033
     40 H16        -6.0470    3.3490    4.1560 hc        1 3E9      0.002033
     41 H17        -6.8360    2.0090    5.9650 hc        1 3E9      0.003200
     42 H18        -6.0460    0.4850    6.3890 hc        1 3E9      0.003200
     43 H19        -3.9990    1.7210    7.0180 hc        1 3E9      0.017200
     44 H20        -4.7900    3.2460    6.5950 hc        1 3E9      0.017200
     45 H21        -6.5240    2.7840    8.4820 ha        1 3E9      0.088000
     46 H22        -3.3010    0.6350   10.1040 hc        1 3E9     -0.012967
     47 H23        -3.8160    0.2190    8.4630 hc        1 3E9     -0.012967
     48 H24        -2.8910    1.7000    8.7510 hc        1 3E9     -0.012967
     49 H25        -6.0500    2.8920   10.8050 hc        1 3E9     -0.012967
     50 H26        -4.6640    2.0150   11.4680 hc        1 3E9     -0.012967
     51 H27        -6.1250    1.1350   10.9990 hc        1 3E9     -0.012967
@<TRIPOS>BOND
     1    1    2 1   
     2    1    3 1   
     3    1   25 1   
     4    1   26 1   
     5    2   17 1   
     6    3    4 1   
     7    3   27 1   
     8    3   28 1   
     9    4    5 1   
    10    4    6 1   
    11    4   29 1   
    12    5   30 1   
    13    5   31 1   
    14    5   32 1   
    15    6    7 1   
    16    6   33 1   
    17    6   34 1   
    18    7    8 1   
    19    7   35 1   
    20    7   36 1   
    21    8    9 2   
    22    8   37 1   
    23    9   10 1   
    24    9   11 1   
    25   10   38 1   
    26   10   39 1   
    27   10   40 1   
    28   11   12 1   
    29   11   41 1   
    30   11   42 1   
    31   12   13 1   
    32   12   43 1   
    33   12   44 1   
    34   13   14 2   
    35   13   45 1   
    36   14   15 1   
    37   14   16 1   
    38   15   46 1   
    39   15   47 1   
    40   15   48 1   
    41   16   49 1   
    42   16   50 1   
    43   16   51 1   
    44   17   18 1   
    45   17   19 1   
    46   17   20 1   
    47   20   21 1   
    48   21   22 1   
    49   21   23 1   
    50   21   24 1   
@<TRIPOS>SUBSTRUCTURE
     1 3E9         1 TEMP              0 ****  ****    0 ROOT
