@<TRIPOS>MOLECULE
3EA
   56    48     1     0     0
SMALL
bcc


@<TRIPOS>ATOM
      1 C13        -3.6760   -2.6430    3.7620 c3        1 3EA     -0.210000
      2 C12        -2.6110   -3.4390    2.9950 c3        1 3EA     -0.157000
      3 C11        -3.1240   -3.7650    1.6090 c3        1 3EA     -0.113000
      4 C10        -1.9340   -4.1510    0.6970 c2        1 3EA     -0.082000
      5 C5         -1.5120   -5.4820    0.9070 c1        1 3EA      0.026000
      6 O4         -1.8900   -6.4360    1.8260 o         1 3EA      0.004300
      7 N3         -1.1450   -7.5920    1.5800 n2        1 3EA     -0.002300
      8 C2         -0.3260   -7.3490    0.5310 c1        1 3EA     -0.165000
      9 C1          0.6990   -8.4320    0.1780 c2        1 3EA      0.509000
     10 F34         0.5180   -9.4940    0.9700 f         1 3EA     -0.155000
     11 F33         0.5390   -8.8000   -1.1050 f         1 3EA     -0.155000
     12 F32         1.9400   -7.9480    0.3530 f         1 3EA     -0.155000
     13 C6         -0.5490   -6.0300    0.1020 c1        1 3EA     -0.152000
     14 C7          0.0210   -5.2630   -0.9370 c1        1 3EA     -0.121000
     15 C8         -0.3960   -3.9460   -1.1450 c1        1 3EA     -0.121000
     16 C9         -1.3700   -3.3930   -0.3310 c1        1 3EA      0.131000
     17 O14        -1.8070   -2.1170   -0.7830 os        1 3EA     -0.203000
     18 C15        -0.7580   -1.1540   -0.9020 c3        1 3EA     -0.023000
     19 C16        -1.3640    0.2430   -1.1120 c3        1 3EA     -0.172000
     20 C17        -0.2230    1.3020   -1.1420 c3        1 3EA     -0.017000
     21 O18        -0.7900    2.6160   -1.0960 os        1 3EA     -0.232000
     22 C19         0.1870    3.6710   -0.9730 c2        1 3EA     -0.012000
     23 C20         0.8270    4.1020    0.1810 c2        1 3EA     -0.118000
     24 C24         0.4860    4.2620   -2.1960 c1        1 3EA     -0.151000
     25 C23         1.4220    5.2790   -2.2630 c1        1 3EA     -0.119000
     26 C22         2.0700    5.7160   -1.0960 c1        1 3EA     -0.029000
     27 C21         1.7750    5.1320    0.1130 c1        1 3EA     -0.065000
     28 C25         2.5760    5.7160    1.0730 c1        1 3EA     -0.283000
     29 C26         3.3660    6.6620    0.4510 c1        1 3EA     -0.016000
     30 N27         3.0550    6.6620   -0.8850 n1        1 3EA     -0.109000
     31 C28         3.7120    7.5900   -1.7860 c2        1 3EA     -0.120000
     32 C29         3.2180    9.0070   -1.5060 c2        1 3EA      0.341000
     33 O31         2.9770    9.7940   -2.4680 o         1 3EA     -0.556500
     34 O30         3.1190    9.4220   -0.3040 o         1 3EA     -0.556500
     35 H131       -3.3870   -2.5220    4.6920 hc        1 3EA      0.073667
     36 H132       -3.7970   -1.7610    3.3370 hc        1 3EA      0.073667
     37 H133       -4.5260   -3.1330    3.7450 hc        1 3EA      0.073667
     38 H121       -2.4150   -4.2730    3.4750 hc        1 3EA      0.085500
     39 H122       -1.7940   -2.9060    2.9230 hc        1 3EA      0.085500
     40 H111       -3.7550   -4.5170    1.6610 hc        1 3EA      0.104000
     41 H112       -3.5770   -2.9870    1.2390 hc        1 3EA      0.104000
     42 H7          0.7110   -5.6550   -1.5130 ha        1 3EA      0.154500
     43 H8         -0.0660   -3.4480   -1.9110 ha        1 3EA      0.154500
     44 H151       -0.1930   -1.3810   -1.6650 h1        1 3EA      0.084000
     45 H152       -0.2180   -1.1570   -0.0830 h1        1 3EA      0.084000
     46 H161       -1.8460    0.2630   -1.9540 hc        1 3EA      0.109500
     47 H162       -1.9770    0.4460   -0.3800 hc        1 3EA      0.109500
     48 H171        0.3670    1.1710   -0.3640 h1        1 3EA      0.071000
     49 H172        0.2970    1.1990   -1.9690 h1        1 3EA      0.071000
     50 H20         0.6730    3.6380    1.0250 ha        1 3EA      0.126000
     51 H24         0.0620    3.9450   -3.0010 ha        1 3EA      0.126000
     52 H23         1.6300    5.6910   -3.1160 ha        1 3EA      0.134000
     53 H25         2.5830    5.4990    2.0230 DU        1 3EA      0.183500
     54 H26         4.0020    7.2500    0.8890 DU        1 3EA      0.183500
     55 H281        4.6930    7.5480   -1.6460 ha        1 3EA      0.081500
     56 H282        3.5040    7.3490   -2.7090 ha        1 3EA      0.081500
@<TRIPOS>BOND
     1    1    2 1   
     2    1   35 1   
     3    1   36 1   
     4    1   37 1   
     5    2    3 1   
     6    2   38 1   
     7    2   39 1   
     8    3    4 1   
     9    3   40 1   
    10    3   41 1   
    11    4    5 1   
    12    4   16 1   
    13    5   13 1   
    14    6    7 2   
    15    7    8 1   
    16    8   13 1   
    17    9   10 1   
    18    9   11 1   
    19    9   12 1   
    20   14   15 1   
    21   14   42 1   
    22   15   43 1   
    23   16   17 1   
    24   17   18 1   
    25   18   19 1   
    26   18   44 1   
    27   18   45 1   
    28   19   20 1   
    29   19   46 1   
    30   19   47 1   
    31   20   21 1   
    32   20   48 1   
    33   20   49 1   
    34   21   22 1   
    35   22   23 1   
    36   22   24 1   
    37   23   27 1   
    38   23   50 1   
    39   24   51 1   
    40   25   26 1   
    41   25   52 1   
    42   28   29 1   
    43   29   30 1   
    44   31   32 1   
    45   31   55 1   
    46   31   56 1   
    47   32   33 1   
    48   32   34 1   
@<TRIPOS>SUBSTRUCTURE
     1 3EA         1 TEMP              0 ****  ****    0 ROOT
