@<TRIPOS>MOLECULE
3EA
   56    59     1     0     0
SMALL
bcc


@<TRIPOS>ATOM
      1 C13         4.6620    5.2140    0.0150 c3        1 3EA     -0.092100
      2 C12         4.7080    3.7700    0.4420 c3        1 3EA     -0.078400
      3 C11         4.1610    2.8620   -0.6450 c3        1 3EA     -0.027100
      4 C10         4.2320    1.4310   -0.2590 ca        1 3EA     -0.089300
      5 C5          5.4340    0.7620   -0.0780 ca        1 3EA      0.071100
      6 O4          6.7480    1.2810   -0.2050 os        1 3EA      0.003400
      7 N3          7.6220    0.3240    0.0440 nc        1 3EA     -0.335200
      8 C2          6.9920   -0.8240    0.3370 cd        1 3EA      0.281900
      9 C1          7.7150   -2.1160    0.6720 c3        1 3EA      0.647600
     10 F34         8.5260   -2.0300    1.7760 f         1 3EA     -0.226300
     11 F33         6.8810   -3.1720    0.9410 f         1 3EA     -0.226300
     12 F32         8.5350   -2.5720   -0.3280 f         1 3EA     -0.226300
     13 C6          5.5470   -0.6190    0.2780 ca        1 3EA     -0.235900
     14 C7          4.3930   -1.3690    0.4630 ca        1 3EA     -0.025000
     15 C8          3.1650   -0.7380    0.2910 ca        1 3EA     -0.216000
     16 C9          3.0790    0.6270   -0.0620 ca        1 3EA      0.177100
     17 O14         1.8880    1.2860   -0.2440 os        1 3EA     -0.319900
     18 C15         0.6880    0.5140   -0.0660 c3        1 3EA      0.127400
     19 C16        -0.4560    1.4740   -0.3310 c3        1 3EA     -0.092400
     20 C17        -1.7750    0.7400   -0.1660 c3        1 3EA      0.133400
     21 O18        -2.8030    1.7060   -0.4130 os        1 3EA     -0.348900
     22 C19        -4.0800    1.1420   -0.3410 ca        1 3EA      0.031100
     23 C20        -4.8490    1.3850    0.7930 ca        1 3EA     -0.103000
     24 C24        -4.5700    0.4190   -1.4510 ca        1 3EA     -0.161000
     25 C23        -5.8610   -0.0780   -1.4500 ca        1 3EA     -0.117000
     26 C22        -6.6650    0.1510   -0.3220 ca        1 3EA     -0.073200
     27 C21        -6.1550    0.8980    0.8180 ca        1 3EA     -0.079800
     28 C25        -7.2210    0.9430    1.7810 cc        1 3EA     -0.268200
     29 C26        -8.3050    0.2500    1.2300 cd        1 3EA     -0.046100
     30 N27        -7.9790   -0.2330   -0.0340 na        1 3EA     -0.016400
     31 C28        -8.8380   -0.9530   -0.9310 c3        1 3EA     -0.111700
     32 C29       -10.0010   -1.7800   -0.2940 c         1 3EA      0.920600
     33 O31       -10.2790   -2.8490   -0.8970 o         1 3EA     -0.821300
     34 O30       -10.6060   -1.3290    0.7150 o         1 3EA     -0.821300
     35 H131        5.2760    5.3740   -0.9040 hc        1 3EA      0.033700
     36 H132        3.6130    5.5280   -0.2040 hc        1 3EA      0.033700
     37 H133        5.0650    5.8680    0.8260 hc        1 3EA      0.033700
     38 H121        5.7660    3.4730    0.6740 hc        1 3EA      0.046200
     39 H122        4.1080    3.6340    1.3800 hc        1 3EA      0.046200
     40 H111        3.0980    3.1460   -0.8700 hc        1 3EA      0.064700
     41 H112        4.7570    3.0120   -1.5860 hc        1 3EA      0.064700
     42 H7          4.4500   -2.4330    0.7380 ha        1 3EA      0.158000
     43 H8          2.2470   -1.3260    0.4370 ha        1 3EA      0.153000
     44 H151        0.6810   -0.3370   -0.7970 h1        1 3EA      0.045200
     45 H152        0.6520    0.1190    0.9830 h1        1 3EA      0.045200
     46 H161       -0.4080    2.3380    0.3810 hc        1 3EA      0.070200
     47 H162       -0.3770    1.8930   -1.3670 hc        1 3EA      0.070200
     48 H171       -1.8640   -0.1020   -0.9020 h1        1 3EA      0.032200
     49 H172       -1.8850    0.3340    0.8740 h1        1 3EA      0.032200
     50 H20        -4.4400    1.9530    1.6390 ha        1 3EA      0.130000
     51 H24        -3.9130    0.2650   -2.3170 ha        1 3EA      0.122000
     52 H23        -6.2510   -0.6410   -2.3100 ha        1 3EA      0.134000
     53 H25        -7.1870    1.4220    2.7520 ha        1 3EA      0.141000
     54 H26        -9.3030    0.0350    1.6430 h4        1 3EA      0.225000
     55 H281       -9.3160   -0.2160   -1.6380 h1        1 3EA      0.042200
     56 H282       -8.2020   -1.6600   -1.5330 h1        1 3EA      0.042200
@<TRIPOS>BOND
     1    1    2 1   
     2    1   35 1   
     3    1   36 1   
     4    1   37 1   
     5    2    3 1   
     6    2   38 1   
     7    2   39 1   
     8    3    4 1   
     9    3   40 1   
    10    3   41 1   
    11    4    5 ar  
    12    4   16 ar  
    13    5    6 1   
    14    5   13 ar  
    15    6    7 1   
    16    7    8 2   
    17    8    9 1   
    18    8   13 1   
    19    9   10 1   
    20    9   11 1   
    21    9   12 1   
    22   13   14 ar  
    23   14   15 ar  
    24   14   42 1   
    25   15   16 ar  
    26   15   43 1   
    27   16   17 1   
    28   17   18 1   
    29   18   19 1   
    30   18   44 1   
    31   18   45 1   
    32   19   20 1   
    33   19   46 1   
    34   19   47 1   
    35   20   21 1   
    36   20   48 1   
    37   20   49 1   
    38   21   22 1   
    39   22   23 ar  
    40   22   24 ar  
    41   23   27 ar  
    42   23   50 1   
    43   24   25 ar  
    44   24   51 1   
    45   25   26 ar  
    46   25   52 1   
    47   26   27 ar  
    48   26   30 1   
    49   27   28 1   
    50   28   29 2   
    51   28   53 1   
    52   29   30 1   
    53   29   54 1   
    54   30   31 1   
    55   31   32 1   
    56   31   55 1   
    57   31   56 1   
    58   32   33 1   
    59   32   34 1   
@<TRIPOS>SUBSTRUCTURE
     1 3EA         1 TEMP              0 ****  ****    0 ROOT
