@<TRIPOS>MOLECULE
3EA
   56    59     1     0     0
SMALL
bcc


@<TRIPOS>ATOM
      1 C13         0.0210    0.5760    0.4790 c3        1 3EA     -0.092100
      2 C12         1.4720    0.2140    0.2910 c3        1 3EA     -0.079400
      3 C11         2.2640    0.4560    1.5630 c3        1 3EA     -0.026100
      4 C10         3.6890    0.0690    1.4100 ca        1 3EA     -0.091300
      5 C5          4.0930   -1.2440    1.2190 ca        1 3EA      0.072100
      6 O4          3.2780   -2.4020    1.1290 os        1 3EA      0.002400
      7 N3          4.0430   -3.4630    0.9510 nc        1 3EA     -0.336200
      8 C2          5.3370   -3.1080    0.9120 cd        1 3EA      0.281900
      9 C1          6.4720   -4.0960    0.7200 c3        1 3EA      0.647600
     10 F34         6.4070   -4.7980   -0.4570 f         1 3EA     -0.226300
     11 F33         7.7190   -3.5240    0.7100 f         1 3EA     -0.226300
     12 F32         6.5440   -5.0590    1.6950 f         1 3EA     -0.226300
     13 C6          5.4540   -1.6610    1.0820 ca        1 3EA     -0.236900
     14 C7          6.4640   -0.7100    1.1350 ca        1 3EA     -0.024000
     15 C8          6.1040    0.6200    1.3260 ca        1 3EA     -0.216000
     16 C9          4.7520    1.0070    1.4620 ca        1 3EA      0.178100
     17 O14         4.3560    2.3080    1.6560 os        1 3EA     -0.320900
     18 C15         5.3970    3.2950    1.7480 c3        1 3EA      0.127400
     19 C16         4.6860    4.6150    1.9780 c3        1 3EA     -0.096400
     20 C17         5.7190    5.7120    2.1830 c3        1 3EA      0.134400
     21 O18         4.9880    6.9210    2.4020 os        1 3EA     -0.348900
     22 C19         5.6750    8.0670    1.9930 ca        1 3EA      0.052100
     23 C20         4.9350    9.0170    1.2980 ca        1 3EA     -0.119000
     24 C24         7.0360    8.2550    2.3290 ca        1 3EA     -0.191000
     25 C23         7.6960    9.4180    1.9800 ca        1 3EA     -0.081000
     26 C22         6.9670   10.4100    1.2970 ca        1 3EA     -0.058200
     27 C21         5.5730   10.2100    0.9450 ca        1 3EA     -0.088800
     28 C25         5.1590   11.3910    0.2390 cc        1 3EA     -0.239200
     29 C26         6.2670   12.2450    0.1880 cd        1 3EA     -0.102100
     30 N27         7.3590   11.6670    0.8300 na        1 3EA     -0.005400
     31 C28         8.6300   12.3010    1.0400 c3        1 3EA     -0.110700
     32 C29         9.8670   11.5520    0.4390 c         1 3EA      0.916600
     33 O31        10.3700   10.6270    1.1310 o         1 3EA     -0.819300
     34 O30        10.3020   11.9750   -0.6620 o         1 3EA     -0.819300
     35 H131       -0.5470    0.3960   -0.4650 hc        1 3EA      0.033367
     36 H132       -0.4380   -0.0390    1.2900 hc        1 3EA      0.033367
     37 H133       -0.0840    1.6540    0.7540 hc        1 3EA      0.033367
     38 H121        1.5610   -0.8670    0.0000 hc        1 3EA      0.046700
     39 H122        1.9080    0.8230   -0.5430 hc        1 3EA      0.046700
     40 H111        2.1900    1.5390    1.8500 hc        1 3EA      0.064200
     41 H112        1.8150   -0.1470    2.3990 hc        1 3EA      0.064200
     42 H7          7.5200   -1.0020    1.0300 ha        1 3EA      0.158000
     43 H8          6.8990    1.3790    1.3690 ha        1 3EA      0.154000
     44 H151        6.0730    3.0420    2.6070 h1        1 3EA      0.046200
     45 H152        5.9810    3.3100    0.7910 h1        1 3EA      0.046200
     46 H161        4.0200    4.5450    2.8750 hc        1 3EA      0.069200
     47 H162        4.0370    4.8620    1.0990 hc        1 3EA      0.069200
     48 H171        6.3920    5.8030    1.2920 h1        1 3EA      0.039200
     49 H172        6.3400    5.5070    3.0960 h1        1 3EA      0.039200
     50 H20         3.8830    8.8400    1.0450 ha        1 3EA      0.129000
     51 H24         7.5710    7.4600    2.8660 ha        1 3EA      0.121000
     52 H23         8.7730    9.5750    2.1820 ha        1 3EA      0.200000
     53 H25         4.1770   11.5780   -0.1800 ha        1 3EA      0.137000
     54 H26         6.3560   13.2280   -0.2760 h4        1 3EA      0.157000
     55 H281        8.7950   12.3970    2.1500 h1        1 3EA      0.041200
     56 H282        8.5880   13.3260    0.5810 h1        1 3EA      0.041200
@<TRIPOS>BOND
     1    1    2 1   
     2    1   35 1   
     3    1   36 1   
     4    1   37 1   
     5    2    3 1   
     6    2   38 1   
     7    2   39 1   
     8    3    4 1   
     9    3   40 1   
    10    3   41 1   
    11    4    5 ar  
    12    4   16 ar  
    13    5    6 1   
    14    5   13 ar  
    15    6    7 1   
    16    7    8 2   
    17    8    9 1   
    18    8   13 1   
    19    9   10 1   
    20    9   11 1   
    21    9   12 1   
    22   13   14 ar  
    23   14   15 ar  
    24   14   42 1   
    25   15   16 ar  
    26   15   43 1   
    27   16   17 1   
    28   17   18 1   
    29   18   19 1   
    30   18   44 1   
    31   18   45 1   
    32   19   20 1   
    33   19   46 1   
    34   19   47 1   
    35   20   21 1   
    36   20   48 1   
    37   20   49 1   
    38   21   22 1   
    39   22   23 ar  
    40   22   24 ar  
    41   23   27 ar  
    42   23   50 1   
    43   24   25 ar  
    44   24   51 1   
    45   25   26 ar  
    46   25   52 1   
    47   26   27 ar  
    48   26   30 1   
    49   27   28 1   
    50   28   29 2   
    51   28   53 1   
    52   29   30 1   
    53   29   54 1   
    54   30   31 1   
    55   31   32 1   
    56   31   55 1   
    57   31   56 1   
    58   32   33 1   
    59   32   34 1   
@<TRIPOS>SUBSTRUCTURE
     1 3EA         1 TEMP              0 ****  ****    0 ROOT
