@<TRIPOS>MOLECULE
3EA
   56    59     1     0     0
SMALL
bcc


@<TRIPOS>ATOM
      1 C13        -0.1080    0.2580    1.4020 c3        1 3EA     -0.092100
      2 C12         1.2880   -0.0740    0.9440 c3        1 3EA     -0.078400
      3 C11         2.3140    0.3090    1.9950 c3        1 3EA     -0.027100
      4 C10         3.6940   -0.0450    1.5790 ca        1 3EA     -0.089300
      5 C5          4.1130   -1.3570    1.4140 ca        1 3EA      0.071100
      6 O4          3.3540   -2.5430    1.5870 os        1 3EA      0.003400
      7 N3          4.1180   -3.5910    1.3390 nc        1 3EA     -0.335200
      8 C2          5.3570   -3.2010    1.0040 cd        1 3EA      0.281900
      9 C1          6.4760   -4.1670    0.6570 c3        1 3EA      0.647600
     10 F34         6.2050   -4.9690   -0.4220 f         1 3EA     -0.226300
     11 F33         7.6650   -3.5580    0.3440 f         1 3EA     -0.226300
     12 F32         6.7920   -5.0380    1.6690 f         1 3EA     -0.226300
     13 C6          5.4360   -1.7420    1.0300 ca        1 3EA     -0.235900
     14 C7          6.3890   -0.7590    0.7980 ca        1 3EA     -0.025000
     15 C8          6.0110    0.5710    0.9530 ca        1 3EA     -0.216000
     16 C9          4.6990    0.9260    1.3340 ca        1 3EA      0.177100
     17 O14         4.2870    2.2260    1.5000 os        1 3EA     -0.319900
     18 C15         5.2710    3.2500    1.2740 c3        1 3EA      0.127400
     19 C16         4.5560    4.5640    1.5310 c3        1 3EA     -0.092400
     20 C17         5.5270    5.7120    1.3170 c3        1 3EA      0.133400
     21 O18         4.7840    6.9120    1.5590 os        1 3EA     -0.348900
     22 C19         5.5810    8.0540    1.4420 ca        1 3EA      0.031100
     23 C20         5.4600    8.8320    0.2930 ca        1 3EA     -0.103000
     24 C24         6.4140    8.4180    2.5220 ca        1 3EA     -0.161000
     25 C23         7.1510    9.5880    2.4770 ca        1 3EA     -0.117000
     26 C22         7.0510   10.3980    1.3340 ca        1 3EA     -0.073200
     27 C21         6.1890   10.0180    0.2250 ca        1 3EA     -0.079800
     28 C25         6.3250   11.0520   -0.7650 cc        1 3EA     -0.268200
     29 C26         7.2290   11.9930   -0.2570 cd        1 3EA     -0.046100
     30 N27         7.6740   11.6060    1.0040 na        1 3EA     -0.016400
     31 C28         8.5700   12.3280    1.8620 c3        1 3EA     -0.111700
     32 C29         9.5880   13.2950    1.1770 c         1 3EA      0.920600
     33 O31        10.7070   13.3740    1.7490 o         1 3EA     -0.821300
     34 O30         9.2350   13.9550    0.1640 o         1 3EA     -0.821300
     35 H131       -0.8490   -0.0270    0.6170 hc        1 3EA      0.033700
     36 H132       -0.3580   -0.2930    2.3410 hc        1 3EA      0.033700
     37 H133       -0.2080    1.3530    1.6010 hc        1 3EA      0.033700
     38 H121        1.3690   -1.1740    0.7330 hc        1 3EA      0.046200
     39 H122        1.5120    0.4680   -0.0120 hc        1 3EA      0.046200
     40 H111        2.2470    1.4120    2.1990 hc        1 3EA      0.064700
     41 H112        2.0780   -0.2270    2.9550 hc        1 3EA      0.064700
     42 H7          7.4150   -1.0270    0.5010 ha        1 3EA      0.158000
     43 H8          6.7610    1.3550    0.7700 ha        1 3EA      0.153000
     44 H151        6.1270    3.1070    1.9850 h1        1 3EA      0.045200
     45 H152        5.6360    3.1870    0.2160 h1        1 3EA      0.045200
     46 H161        4.1590    4.5890    2.5780 hc        1 3EA      0.070200
     47 H162        3.6810    4.6680    0.8400 hc        1 3EA      0.070200
     48 H171        5.9170    5.7200    0.2650 h1        1 3EA      0.032200
     49 H172        6.3900    5.6520    2.0300 h1        1 3EA      0.032200
     50 H20         4.8020    8.5230   -0.5280 ha        1 3EA      0.130000
     51 H24         6.4630    7.7610    3.4010 ha        1 3EA      0.122000
     52 H23         7.8020    9.8800    3.3130 ha        1 3EA      0.134000
     53 H25         5.8230   11.0910   -1.7240 ha        1 3EA      0.141000
     54 H26         7.6200   12.9220   -0.7000 h4        1 3EA      0.225000
     55 H281        9.1570   11.5810    2.4650 h1        1 3EA      0.042200
     56 H282        7.9580   12.9550    2.5720 h1        1 3EA      0.042200
@<TRIPOS>BOND
     1    1    2 1   
     2    1   35 1   
     3    1   36 1   
     4    1   37 1   
     5    2    3 1   
     6    2   38 1   
     7    2   39 1   
     8    3    4 1   
     9    3   40 1   
    10    3   41 1   
    11    4    5 ar  
    12    4   16 ar  
    13    5    6 1   
    14    5   13 ar  
    15    6    7 1   
    16    7    8 2   
    17    8    9 1   
    18    8   13 1   
    19    9   10 1   
    20    9   11 1   
    21    9   12 1   
    22   13   14 ar  
    23   14   15 ar  
    24   14   42 1   
    25   15   16 ar  
    26   15   43 1   
    27   16   17 1   
    28   17   18 1   
    29   18   19 1   
    30   18   44 1   
    31   18   45 1   
    32   19   20 1   
    33   19   46 1   
    34   19   47 1   
    35   20   21 1   
    36   20   48 1   
    37   20   49 1   
    38   21   22 1   
    39   22   23 ar  
    40   22   24 ar  
    41   23   27 ar  
    42   23   50 1   
    43   24   25 ar  
    44   24   51 1   
    45   25   26 ar  
    46   25   52 1   
    47   26   27 ar  
    48   26   30 1   
    49   27   28 1   
    50   28   29 2   
    51   28   53 1   
    52   29   30 1   
    53   29   54 1   
    54   30   31 1   
    55   31   32 1   
    56   31   55 1   
    57   31   56 1   
    58   32   33 1   
    59   32   34 1   
@<TRIPOS>SUBSTRUCTURE
     1 3EA         1 TEMP              0 ****  ****    0 ROOT
