@<TRIPOS>MOLECULE
3EB
   22    21     1     0     0
SMALL
bcc


@<TRIPOS>ATOM
      1 C           0.3900   -1.0740   -0.1060 c         1 3EB      0.904600
      2 OXT         1.3520   -0.3420   -0.4850 o         1 3EB     -0.864300
      3 CA         -0.5170   -0.5860    1.0330 c3        1 3EB     -0.182400
      4 OAB        -3.2730    3.4060    7.7330 o         1 3EB     -0.828800
      5 OAD        -1.6890    2.4890    9.0080 o         1 3EB     -0.828800
      6 CAE        -1.2950   -0.6020    4.0930 ce        1 3EB     -0.133000
      7 CAF        -1.9170   -0.5040    5.2810 cf        1 3EB     -0.005700
      8 CAG        -0.5650    0.4050    3.3440 ce        1 3EB     -0.075200
      9 CAH        -2.0370    0.5890    6.1450 ch        1 3EB     -0.270300
     10 CAM        -0.6290    1.7180    3.6080 c2        1 3EB     -0.228000
     11 CAN        -2.1870    1.4720    6.9490 cg        1 3EB     -0.074200
     12 O           0.1210   -2.1900   -0.6430 o         1 3EB     -0.864300
     13 C2          0.2860   -0.1200    2.2270 c3        1 3EB     -0.033200
     14 HA1C       -0.0700    2.4530    3.0150 ha        1 3EB      0.113500
     15 HA2C       -1.1380    0.2600    0.6410 hc        1 3EB      0.022700
     16 H21C       -1.2110   -1.4120    1.3300 hc        1 3EB      0.022700
     17 H22C        1.0060    0.6700    1.8810 hc        1 3EB      0.043200
     18 HAE         0.9000   -0.9780    2.6120 hc        1 3EB      0.043200
     19 HAF        -1.3210   -1.5880    3.5880 ha        1 3EB      0.114000
     20 HAH        -2.4180   -1.4150    5.6720 ha        1 3EB      0.098000
     21 HAM        -1.2370    2.1290    4.4260 ha        1 3EB      0.113500
     22 CAL        -2.3930    2.5260    7.9570 c         1 3EB      0.912800
@<TRIPOS>BOND
     1    1    2 1   
     2    1    3 1   
     3    1   12 1   
     4    3   13 1   
     5    3   15 1   
     6    3   16 1   
     7    4   22 1   
     8    5   22 1   
     9    6    7 2   
    10    6    8 1   
    11    6   19 1   
    12    7    9 1   
    13    7   20 1   
    14    8   10 2   
    15    8   13 1   
    16    9   11 3   
    17   10   14 1   
    18   10   21 1   
    19   11   22 1   
    20   13   17 1   
    21   13   18 1   
@<TRIPOS>SUBSTRUCTURE
     1 3EB         1 TEMP              0 ****  ****    0 ROOT
