@<TRIPOS>MOLECULE
3EB
   22    21     1     0     0
SMALL
bcc


@<TRIPOS>ATOM
      1 C           0.3760   -1.2220   -0.0340 c         1 3EB      0.903600
      2 OXT         1.2620   -2.0510    0.3280 o         1 3EB     -0.863800
      3 CA         -0.5220   -0.5750    1.0310 c3        1 3EB     -0.182400
      4 OAB        -3.4970    3.3010    7.6660 o         1 3EB     -0.828800
      5 OAD        -1.7660    2.6630    8.9180 o         1 3EB     -0.828800
      6 CAE        -1.1390   -0.6050    4.1460 ce        1 3EB     -0.132000
      7 CAF        -1.7320   -0.5270    5.3490 cf        1 3EB     -0.006700
      8 CAG        -0.5640    0.4470    3.3270 ce        1 3EB     -0.072200
      9 CAH        -1.9640    0.5840    6.1670 ch        1 3EB     -0.269300
     10 CAM        -0.7600    1.7550    3.5510 c2        1 3EB     -0.232000
     11 CAN        -2.2000    1.4810    6.9330 cg        1 3EB     -0.075200
     12 O           0.1740   -0.9160   -1.2480 o         1 3EB     -0.863800
     13 C2          0.2860   -0.0240    2.1860 c3        1 3EB     -0.035200
     14 HA1C       -0.3160    2.5230    2.9070 ha        1 3EB      0.112000
     15 HA2C       -1.1270    0.2400    0.5600 hc        1 3EB      0.022700
     16 H21C       -1.2310   -1.3580    1.4020 hc        1 3EB      0.022700
     17 H22C        0.9210    0.8230    1.8130 hc        1 3EB      0.043700
     18 HAE         0.9850   -0.8290    2.5440 hc        1 3EB      0.043700
     19 HAF        -1.0530   -1.6110    3.6870 ha        1 3EB      0.117000
     20 HAH        -2.1020   -1.4730    5.7990 ha        1 3EB      0.098000
     21 HAM        -1.3700    2.1290    4.3840 ha        1 3EB      0.112000
     22 CAL        -2.5040    2.5530    7.8960 c         1 3EB      0.911800
@<TRIPOS>BOND
     1    1    2 1   
     2    1    3 1   
     3    1   12 1   
     4    3   13 1   
     5    3   15 1   
     6    3   16 1   
     7    4   22 1   
     8    5   22 1   
     9    6    7 2   
    10    6    8 1   
    11    6   19 1   
    12    7    9 1   
    13    7   20 1   
    14    8   10 2   
    15    8   13 1   
    16    9   11 3   
    17   10   14 1   
    18   10   21 1   
    19   11   22 1   
    20   13   17 1   
    21   13   18 1   
@<TRIPOS>SUBSTRUCTURE
     1 3EB         1 TEMP              0 ****  ****    0 ROOT
