@<TRIPOS>MOLECULE
3EB
   22    22     1     0     0
SMALL
bcc


@<TRIPOS>ATOM
      1 C          -3.9700    0.0080    0.0410 c         1 3EB      0.902600
      2 OXT        -4.3150   -0.5650   -1.0350 o         1 3EB     -0.867800
      3 CA         -2.5140   -0.0900    0.5160 c3        1 3EB     -0.180400
      4 OAB         3.2770    2.0650   -0.6090 o         1 3EB     -0.851800
      5 OAD         4.5920    0.4190    0.1010 o         1 3EB     -0.851800
      6 CAE         0.0550   -1.7700    0.1100 ca        1 3EB     -0.152000
      7 CAF         1.3380   -2.2300    0.4010 ca        1 3EB     -0.175000
      8 CAG        -0.1500   -0.4380   -0.2760 ca        1 3EB     -0.084300
      9 CAH         2.4310   -1.3720    0.3020 ca        1 3EB     -0.129000
     10 CAM         0.9570    0.4160   -0.3690 ca        1 3EB     -0.110000
     11 CAN         2.2480   -0.0400   -0.0870 ca        1 3EB     -0.130600
     12 O          -4.7920    0.6380    0.7730 o         1 3EB     -0.867800
     13 C2         -1.5220    0.0340   -0.6200 c3        1 3EB     -0.027100
     14 HA1C       -2.3240    0.7030    1.2820 hc        1 3EB      0.023200
     15 HA2C       -2.3960   -1.0840    1.0200 hc        1 3EB      0.023200
     16 H21C       -1.9090   -0.5700   -1.4880 hc        1 3EB      0.046200
     17 H22C       -1.4820    1.1040   -0.9550 hc        1 3EB      0.046200
     18 HAE        -0.8060   -2.4490    0.1800 ha        1 3EB      0.115000
     19 HAF         1.4860   -3.2750    0.7060 ha        1 3EB      0.088000
     20 HAH         3.4510   -1.7170    0.5260 ha        1 3EB      0.133000
     21 HAM         0.8300    1.4680   -0.6710 ha        1 3EB      0.144000
     22 CAL         3.4500    0.8780   -0.2050 c         1 3EB      0.905200
@<TRIPOS>BOND
     1    1    2 1   
     2    1    3 1   
     3    1   12 1   
     4    3   13 1   
     5    3   14 1   
     6    3   15 1   
     7    4   22 1   
     8    5   22 1   
     9    6    7 ar  
    10    6    8 ar  
    11    6   18 1   
    12    7    9 ar  
    13    7   19 1   
    14    8   10 ar  
    15    8   13 1   
    16    9   11 ar  
    17    9   20 1   
    18   10   11 ar  
    19   10   21 1   
    20   11   22 1   
    21   13   16 1   
    22   13   17 1   
@<TRIPOS>SUBSTRUCTURE
     1 3EB         1 TEMP              0 ****  ****    0 ROOT
