@<TRIPOS>MOLECULE
3EB
   22    18     1     0     0
SMALL
bcc


@<TRIPOS>ATOM
      1 C           2.7520    0.3570   -2.5720 c1        1 3EB      0.322000
      2 OXT         3.1110    1.3910   -3.1930 os        1 3EB     -0.605000
      3 CA          1.9700    0.4830   -1.2830 c3        1 3EB     -0.209000
      4 OAB        -2.6580   -2.8650    2.0060 o         1 3EB     -0.586500
      5 OAD        -0.8580   -2.6500    3.2180 o         1 3EB     -0.586500
      6 CAE        -0.8040    1.4410    0.2570 c1        1 3EB     -0.163500
      7 CAF        -1.5580    1.3980    1.4190 c1        1 3EB     -0.163500
      8 CAG        -0.2700    0.2740   -0.2660 c1        1 3EB     -0.077000
      9 CAH        -1.7780    0.1870    2.0570 c1        1 3EB     -0.129000
     10 CAL        -1.6060   -2.2360    2.2940 c2        1 3EB      0.354000
     11 CAM        -0.4900   -0.9360    0.3720 c1        1 3EB     -0.110000
     12 CAN        -1.2450   -0.9800    1.5340 c1        1 3EB     -0.110000
     13 O           3.0240   -0.7820   -3.0330 o         1 3EB     -0.600000
     14 C2          0.4960    0.3120   -1.5700 c3        1 3EB     -0.113000
     15 HA1C        2.1260    1.3660   -0.8930 hc        1 3EB      0.062500
     16 HA2C        2.2630   -0.2070   -0.6550 hc        1 3EB      0.062500
     17 H21C        0.3530   -0.5250   -2.0560 hc        1 3EB      0.085500
     18 H22C        0.1800    1.0620   -2.1120 hc        1 3EB      0.085500
     19 HAE        -0.6480    2.2930   -0.1920 ha        1 3EB      0.101500
     20 HAF        -1.9330    2.2200    1.7880 ha        1 3EB      0.101500
     21 HAH        -2.3100    0.1570    2.8760 ha        1 3EB      0.133000
     22 HAM        -0.1150   -1.7580    0.0030 ha        1 3EB      0.144000
@<TRIPOS>BOND
     1    1    3 1   
     2    1   13 1   
     3    3   14 1   
     4    3   15 1   
     5    3   16 1   
     6    4   10 1   
     7    5   10 1   
     8    6    7 1   
     9    6   19 1   
    10    7   20 1   
    11    8   11 1   
    12    8   14 1   
    13    9   12 1   
    14    9   21 1   
    15   10   12 1   
    16   11   22 1   
    17   14   17 1   
    18   14   18 1   
@<TRIPOS>SUBSTRUCTURE
     1 3EB         1 TEMP              0 ****  ****    0 ROOT
