@<TRIPOS>MOLECULE
3EC
   23    23     1     0     0
SMALL
bcc


@<TRIPOS>ATOM
      1 OAI        -0.1460   -0.4910    0.2510 o         1 3EC     -0.501100
      2 CAL         1.0540   -0.2400    0.1550 c         1 3EC      0.490400
      3 CAK         1.9490   -0.0440    1.2860 cc        1 3EC      0.141200
      4 OAJ         1.4090   -0.1210    2.5750 os        1 3EC     -0.317800
      5 CAH         3.3100    0.2170    1.3570 cd        1 3EC     -0.194300
      6 CAG         3.6450    0.3070    2.7530 cd        1 3EC     -0.256300
      7 CAF         2.4670    0.0990    3.4590 cc        1 3EC      0.288000
      8 CAE         2.1360    0.0520    4.8820 c3        1 3EC     -0.050600
      9 SAD         2.4190    1.6640    5.5720 ss        1 3EC     -0.282200
     10 CAC         1.7310    1.4570    7.1890 c3        1 3EC     -0.020300
     11 CAB         2.0420    2.7360    7.9550 c3        1 3EC      0.168800
     12 NAA         1.4940    2.7350    9.2910 n3        1 3EC     -0.914800
     13 H1          1.5650   -0.1410   -0.8300 h4        1 3EC      0.012200
     14 H2          4.0030    0.3350    0.5270 ha        1 3EC      0.165000
     15 H3          4.6310    0.5070    3.1650 ha        1 3EC      0.173000
     16 H4          1.0680   -0.2530    5.0290 h1        1 3EC      0.087200
     17 H5          2.7850   -0.7010    5.3980 h1        1 3EC      0.087200
     18 H6          0.6290    1.2870    7.1190 h1        1 3EC      0.068200
     19 H7          2.1820    0.5720    7.6990 h1        1 3EC      0.068200
     20 H8          1.6770    3.6110    7.3360 h1        1 3EC      0.040700
     21 H9          3.1620    2.8390    8.0510 h1        1 3EC      0.040700
     22 H10         1.7020    3.5990    9.7500 hn        1 3EC      0.352300
     23 H11         0.5020    2.5990    9.2750 hn        1 3EC      0.352300
@<TRIPOS>BOND
     1    1    2 2   
     2    2    3 1   
     3    2   13 1   
     4    3    4 1   
     5    3    5 2   
     6    4    7 1   
     7    5    6 1   
     8    5   14 1   
     9    6    7 2   
    10    6   15 1   
    11    7    8 1   
    12    8    9 1   
    13    8   16 1   
    14    8   17 1   
    15    9   10 1   
    16   10   11 1   
    17   10   18 1   
    18   10   19 1   
    19   11   12 1   
    20   11   20 1   
    21   11   21 1   
    22   12   22 1   
    23   12   23 1   
@<TRIPOS>SUBSTRUCTURE
     1 3EC         1 TEMP              0 ****  ****    0 ROOT
