@<TRIPOS>MOLECULE
3EC
   24    24     1     0     0
SMALL
bcc


@<TRIPOS>ATOM
      1 OAI        -0.1740    2.3200    3.5820 o         1 3EC     -0.613100
      2 CAL         0.3930    1.7060    2.6650 c         1 3EC      0.535400
      3 CAK         1.5160    0.8220    2.9140 cc        1 3EC      0.104200
      4 OAJ         1.8240    0.5760    4.2690 os        1 3EC     -0.420800
      5 CAH         2.4140    0.1520    2.1000 cd        1 3EC     -0.122300
      6 CAG         3.3360   -0.5360    2.9700 cd        1 3EC     -0.237300
      7 CAF         2.9480   -0.2610    4.2710 cc        1 3EC      0.296000
      8 CAE         3.4420   -0.7000    5.5770 c3        1 3EC     -0.090600
      9 SAD         3.9780    0.5720    6.6760 ss        1 3EC     -0.167200
     10 CAC         2.4950    1.2380    7.3430 c3        1 3EC     -0.082300
     11 CAB         2.0750    2.5000    6.6030 c3        1 3EC      0.108800
     12 NAA         0.6420    2.5140    6.1970 nz        1 3EC     -0.837600
     13 H1          0.0810    1.8050    1.6020 h4        1 3EC      0.060200
     14 H2          2.4390    0.1380    1.0100 ha        1 3EC      0.191000
     15 H3          4.1740   -1.1540    2.6480 ha        1 3EC      0.193000
     16 H4          4.3640   -1.3290    5.4210 h1        1 3EC      0.118700
     17 H5          2.6690   -1.3480    6.0700 h1        1 3EC      0.118700
     18 H6          1.6870    0.4660    7.3690 h1        1 3EC      0.106200
     19 H7          2.7380    1.4980    8.4090 h1        1 3EC      0.106200
     20 H8          2.2570    3.4080    7.2480 hx        1 3EC      0.117200
     21 H9          2.6890    2.6020    5.6560 hx        1 3EC      0.117200
     22 H10         0.0300    2.4330    7.0110 hn        1 3EC      0.466467
     23 H11         0.4490    1.7320    5.5470 hn        1 3EC      0.466467
     24 HAA3        0.4240    3.3810    5.6910 hn        1 3EC      0.466467
@<TRIPOS>BOND
     1    1    2 2   
     2    2    3 1   
     3    2   13 1   
     4    3    4 1   
     5    3    5 2   
     6    4    7 1   
     7    5    6 1   
     8    5   14 1   
     9    6    7 2   
    10    6   15 1   
    11    7    8 1   
    12    8    9 1   
    13    8   16 1   
    14    8   17 1   
    15    9   10 1   
    16   10   11 1   
    17   10   18 1   
    18   10   19 1   
    19   11   12 1   
    20   11   20 1   
    21   11   21 1   
    22   12   22 1   
    23   12   23 1   
    24   12   24 1   
@<TRIPOS>SUBSTRUCTURE
     1 3EC         1 TEMP              0 ****  ****    0 ROOT
