@<TRIPOS>MOLECULE
3EE
   23    23     1     0     0
SMALL
bcc


@<TRIPOS>ATOM
      1 O1          0.5860    2.2610   -0.2360 o         1 3EE     -0.541100
      2 C2          1.3590    1.3110   -0.0720 c         1 3EE      0.592700
      3 C3          1.6670    0.7470    1.2810 c3        1 3EE     -0.304400
      4 C9          0.8490   -0.4630    1.6720 c         1 3EE      0.491100
      5 O2         -0.0560   -0.9060    0.9560 o         1 3EE     -0.608100
      6 C10         1.2760   -1.0570    3.0300 c         1 3EE      0.861600
      7 O3          0.6880   -0.6160    4.0500 o         1 3EE     -0.800300
      8 O4          2.2060   -1.9020    3.0020 o         1 3EE     -0.800300
      9 C1          2.0510    0.6640   -1.2180 ca        1 3EE     -0.211600
     10 C4          1.3430   -0.2150   -2.0800 ca        1 3EE      0.192600
     11 N          -0.0300   -0.4140   -1.9400 nh        1 3EE     -0.809200
     12 C6          2.0580   -0.8300   -3.1380 ca        1 3EE     -0.205000
     13 C8          3.4040   -0.5560   -3.3350 ca        1 3EE     -0.090000
     14 C7          4.0850    0.3190   -2.4890 ca        1 3EE     -0.192000
     15 C5          3.4050    0.9180   -1.4320 ca        1 3EE     -0.066000
     16 H1          2.7480    0.4440    1.3300 hc        1 3EE      0.094200
     17 H2          1.4810    1.5270    2.0690 hc        1 3EE      0.094200
     18 H4         -0.3340   -1.3190   -2.2260 hn        1 3EE      0.405800
     19 H5         -0.3960   -0.1530   -1.0430 hn        1 3EE      0.405800
     20 H6          1.5420   -1.5300   -3.8100 ha        1 3EE      0.124000
     21 H7          3.9400   -1.0400   -4.1650 ha        1 3EE      0.115000
     22 H8          5.1510    0.5270   -2.6480 ha        1 3EE      0.121000
     23 H9          3.9390    1.5960   -0.7490 ha        1 3EE      0.127000
@<TRIPOS>BOND
     1    1    2 2   
     2    2    3 1   
     3    2    9 1   
     4    3    4 1   
     5    3   16 1   
     6    3   17 1   
     7    4    5 2   
     8    4    6 1   
     9    6    7 1   
    10    6    8 1   
    11    9   10 ar  
    12    9   15 ar  
    13   10   11 1   
    14   10   12 ar  
    15   11   18 1   
    16   11   19 1   
    17   12   13 ar  
    18   12   20 1   
    19   13   14 ar  
    20   13   21 1   
    21   14   15 ar  
    22   14   22 1   
    23   15   23 1   
@<TRIPOS>SUBSTRUCTURE
     1 3EE         1 TEMP              0 ****  ****    0 ROOT
