@<TRIPOS>MOLECULE
3EE
   23    23     1     0     0
SMALL
bcc


@<TRIPOS>ATOM
      1 O1          0.5780    2.2360   -0.1000 o         1 3EE     -0.541100
      2 C2          1.3620    1.2850    0.0020 c         1 3EE      0.592700
      3 C3          1.7080    0.6640    1.3200 c3        1 3EE     -0.304400
      4 C9          0.9070   -0.5690    1.6760 c         1 3EE      0.491100
      5 O2         -0.0130   -0.9870    0.9650 o         1 3EE     -0.608100
      6 C10         1.3720   -1.2190    2.9960 c         1 3EE      0.861600
      7 O3          0.8110   -0.8250    4.0490 o         1 3EE     -0.800300
      8 O4          2.3030   -2.0590    2.9070 o         1 3EE     -0.800300
      9 C1          2.0280    0.6960   -1.1890 ca        1 3EE     -0.211600
     10 C4          1.3040   -0.1490   -2.0720 ca        1 3EE      0.192600
     11 N          -0.0630   -0.3650   -1.9060 nv        1 3EE     -0.809200
     12 C6          1.9960   -0.7110   -3.1740 ca        1 3EE     -0.205000
     13 C8          3.3350   -0.4180   -3.3930 ca        1 3EE     -0.090000
     14 C7          4.0310    0.4240   -2.5250 ca        1 3EE     -0.192000
     15 C5          3.3740    0.9690   -1.4250 ca        1 3EE     -0.066000
     16 H1          1.5370    1.4060    2.1470 hc        1 3EE      0.094200
     17 H2          2.7910    0.3660    1.3280 hc        1 3EE      0.094200
     18 H4         -0.4090   -0.1480   -0.9890 hn        1 3EE      0.405800
     19 H5         -0.3690   -1.2590   -2.2250 hn        1 3EE      0.405800
     20 H6          1.4670   -1.3840   -3.8640 ha        1 3EE      0.124000
     21 H7          3.8520   -0.8600   -4.2570 ha        1 3EE      0.115000
     22 H8          5.0920    0.6460   -2.7010 ha        1 3EE      0.121000
     23 H9          3.9220    1.6200   -0.7260 ha        1 3EE      0.127000
@<TRIPOS>BOND
     1    1    2 2   
     2    2    3 1   
     3    2    9 1   
     4    3    4 1   
     5    3   16 1   
     6    3   17 1   
     7    4    5 2   
     8    4    6 1   
     9    6    7 1   
    10    6    8 1   
    11    9   10 ar  
    12    9   15 ar  
    13   10   11 1   
    14   10   12 ar  
    15   11   18 1   
    16   11   19 1   
    17   12   13 ar  
    18   12   20 1   
    19   13   14 ar  
    20   13   21 1   
    21   14   15 ar  
    22   14   22 1   
    23   15   23 1   
@<TRIPOS>SUBSTRUCTURE
     1 3EE         1 TEMP              0 ****  ****    0 ROOT
