@<TRIPOS>MOLECULE
3EE
   23    23     1     0     0
SMALL
bcc


@<TRIPOS>ATOM
      1 O1          0.6400    2.2860   -0.1860 o         1 3EE     -0.541100
      2 C2          1.3990    1.3200   -0.0490 c         1 3EE      0.592700
      3 C3          1.7330    0.7410    1.2920 c3        1 3EE     -0.304400
      4 C9          0.9020   -0.4550    1.6990 c         1 3EE      0.491100
      5 O2         -0.0320   -0.8750    1.0070 o         1 3EE     -0.608100
      6 C10         1.3540   -1.0640    3.0420 c         1 3EE      0.861600
      7 O3          0.8090   -0.6130    4.0800 o         1 3EE     -0.800300
      8 O4          2.2610   -1.9340    2.9830 o         1 3EE     -0.800300
      9 C1          2.0450    0.6660   -1.2180 ca        1 3EE     -0.211600
     10 C4          1.2950   -0.1930   -2.0640 ca        1 3EE      0.192600
     11 N          -0.0760   -0.3670   -1.8870 nh        1 3EE     -0.809200
     12 C6          1.9690   -0.8160   -3.1460 ca        1 3EE     -0.205000
     13 C8          3.3140   -0.5670   -3.3790 ca        1 3EE     -0.090000
     14 C7          4.0350    0.2900   -2.5480 ca        1 3EE     -0.192000
     15 C5          3.3970    0.8950   -1.4680 ca        1 3EE     -0.066000
     16 H1          1.5850    1.5200    2.0890 hc        1 3EE      0.094200
     17 H2          2.8080    0.4150    1.3080 hc        1 3EE      0.094200
     18 H4         -0.4120   -0.1040   -0.9780 hn        1 3EE      0.405800
     19 H5         -0.4060   -1.2640   -2.1690 hn        1 3EE      0.405800
     20 H6          1.4190   -1.5020   -3.8070 ha        1 3EE      0.124000
     21 H7          3.8160   -1.0560   -4.2260 ha        1 3EE      0.115000
     22 H8          5.1000    0.4780   -2.7350 ha        1 3EE      0.121000
     23 H9          3.9640    1.5580   -0.7970 ha        1 3EE      0.127000
@<TRIPOS>BOND
     1    1    2 2   
     2    2    3 1   
     3    2    9 1   
     4    3    4 1   
     5    3   16 1   
     6    3   17 1   
     7    4    5 2   
     8    4    6 1   
     9    6    7 1   
    10    6    8 1   
    11    9   10 ar  
    12    9   15 ar  
    13   10   11 1   
    14   10   12 ar  
    15   11   18 1   
    16   11   19 1   
    17   12   13 ar  
    18   12   20 1   
    19   13   14 ar  
    20   13   21 1   
    21   14   15 ar  
    22   14   22 1   
    23   15   23 1   
@<TRIPOS>SUBSTRUCTURE
     1 3EE         1 TEMP              0 ****  ****    0 ROOT
