@<TRIPOS>MOLECULE
3EF
   88    76     1     0     0
SMALL
bcc


@<TRIPOS>ATOM
      1 OAB        -1.1790   -2.8900   -3.6390 o         1 3EF     -0.376000
      2 CAH         0.1590   -2.3200  -10.4780 c1        1 3EF     -0.130333
      3 CAK        -0.2780   -3.5200   -9.9000 c1        1 3EF     -0.130333
      4 CAL         0.2910   -1.1790   -9.6920 c1        1 3EF     -0.130333
      5 CAQ        -0.5810   -3.5700   -8.5420 c1        1 3EF     -0.130333
      6 CAR        -0.0120   -1.2310   -8.3300 c1        1 3EF     -0.105000
      7 CBB        -0.8650   -2.5050   -6.2720 c3        1 3EF      0.031000
      8 OBJ         0.2900   -2.6090   -5.4650 os        1 3EF     -0.281000
      9 CBM         0.0090   -2.7420   -4.0360 c1        1 3EF      0.371000
     10 CBP        -0.4480   -2.4250   -7.7570 c1        1 3EF     -0.107000
     11 OAD         2.2710   -0.8310   -0.2860 o         1 3EF     -1.141000
     12 PBY         0.9420   -0.9830   -0.9590 p3        1 3EF      2.811000
     13 OAG         0.8020    0.1170   -2.1250 o         1 3EF     -0.547500
     14 CBX         0.8130   -2.6730   -1.6960 c3        1 3EF     -0.693000
     15 NBI         1.0870   -2.6040   -3.0700 n2        1 3EF     -0.266000
     16 CBE         1.8160   -3.6010   -1.0230 c3        1 3EF     -0.177000
     17 CBQ         1.4890   -5.1090   -1.4040 c1        1 3EF     -0.068000
     18 CAS         2.3230   -5.8030   -2.2940 c1        1 3EF     -0.130333
     19 CAM         2.0550   -7.1420   -2.6010 c1        1 3EF     -0.130333
     20 CAI         0.9690   -7.7790   -2.0270 c1        1 3EF     -0.130333
     21 CAN         0.1380   -7.0840   -1.1390 c1        1 3EF     -0.130333
     22 CAT         0.4060   -5.7450   -0.8330 c1        1 3EF     -0.107000
     23 OAC        -1.9840    0.1910    2.5420 o         1 3EF     -0.428000
     24 CAJ         0.3370    9.5350    0.3660 c1        1 3EF     -0.130333
     25 CAO        -0.2920    8.8470   -0.6680 c1        1 3EF     -0.130333
     26 CAP         0.8890    8.8370    1.4330 c1        1 3EF     -0.130333
     27 CAU        -0.3670    7.4600   -0.6350 c1        1 3EF     -0.130333
     28 CAV         0.8160    7.4520    1.4710 c1        1 3EF     -0.091000
     29 CBA        -0.8650    4.2780    0.1320 c1        1 3EF     -0.186000
     30 CBC        -0.9780    1.6750    0.1920 c3        1 3EF     -0.088000
     31 CBF        -0.4260   -0.7430    0.2960 c3        1 3EF     -0.923000
     32 NBG         1.0730    4.6430    1.1220 n2        1 3EF     -0.040000
     33 OBK         0.8330    3.2720    1.1180 os        1 3EF     -0.077000
     34 CBN        -0.8390    0.5170    2.3880 c1        1 3EF      0.284000
     35 CBS        -0.3550    3.0580    0.5110 c2        1 3EF     -0.076000
     36 CBT         0.1860    6.7590    0.4360 c1        1 3EF     -0.030000
     37 CBU         0.0310    5.2500    0.5180 c2        1 3EF     -0.064000
     38 CBV        -0.2540    0.5930    0.9900 c3        1 3EF     -0.110000
     39 N          -0.0090    0.8020    3.5360 n2        1 3EF     -0.317000
     40 CA         -0.6100    1.0650    4.8070 c3        1 3EF     -0.068000
     41 C          -0.9620    2.5230    4.9020 c2        1 3EF      0.334000
     42 O          -0.0420    3.4110    4.8150 o         1 3EF     -0.568500
     43 CB          0.3720    0.7030    5.9270 c3        1 3EF     -0.116000
     44 CG         -0.4080    0.4450    7.2230 c2        1 3EF     -0.085000
     45 CD1        -1.1670    1.4640    7.7890 c2        1 3EF     -0.086000
     46 CD2        -0.2680   -0.7710    7.8920 c1        1 3EF     -0.106000
     47 CE1        -1.7860    1.2700    9.0230 c1        1 3EF     -0.214000
     48 CE2        -0.8870   -0.9630    9.1250 c1        1 3EF     -0.170000
     49 CZ         -1.6450    0.0550    9.6910 c1        1 3EF      0.051000
     50 OH         -2.3820   -0.1920   10.8760 o         1 3EF     -0.547500
     51 OXT        -2.1770    2.8770    5.0070 o         1 3EF     -0.568500
     52 HAH         0.2610   -2.2560  -11.4470 ha        1 3EF      0.128500
     53 HAK        -0.3690   -4.3040  -10.4380 ha        1 3EF      0.128500
     54 HAL         0.6050   -0.3160  -10.1040 ha        1 3EF      0.128500
     55 HAQ        -1.0270   -4.4030   -8.1520 ha        1 3EF      0.128500
     56 HAR         0.0810   -0.4280   -7.7770 ha        1 3EF      0.145000
     57 HBB        -1.4430   -3.3070   -6.1310 h1        1 3EF      0.114500
     58 HBBA       -1.3680   -1.6880   -6.0260 h1        1 3EF      0.114500
     59 HOAG        1.6070    0.3350   -2.4230 ho        1 3EF      0.239000
     60 HBX        -0.0840   -3.0150   -1.5620 h1        1 3EF      0.165000
     61 HNBI        1.9550   -2.5010   -3.3610 hn        1 3EF      0.223000
     62 HBE         2.7240   -3.3770   -1.3250 hc        1 3EF      0.138000
     63 HBEA        1.7590   -3.4930   -0.0540 hc        1 3EF      0.138000
     64 HAS         3.1120   -5.3370   -2.7110 ha        1 3EF      0.128500
     65 HAM         2.6570   -7.6340   -3.1620 ha        1 3EF      0.128500
     66 HAI         0.7770   -8.7350   -2.2460 ha        1 3EF      0.128500
     67 HAN        -0.6090   -7.5200   -0.7480 ha        1 3EF      0.128500
     68 HAT        -0.1740   -5.2540   -0.1770 ha        1 3EF      0.151000
     69 HAJ         0.3900   10.5430    0.3400 ha        1 3EF      0.128500
     70 HAO        -0.6810    9.3460   -1.4250 ha        1 3EF      0.128500
     71 HAP         1.3350    9.3310    2.1670 ha        1 3EF      0.128500
     72 HAU        -0.8190    6.9670   -1.3750 ha        1 3EF      0.128500
     73 HAV         1.2060    6.9620    2.2220 ha        1 3EF      0.207000
     74 HBAA       -1.6880    4.4240   -0.3150 DU        1 3EF      0.242000
     75 HBC        -1.9610    1.6800    0.4420 hc        1 3EF      0.112000
     76 HBCA       -0.8830    1.4860   -0.7940 hc        1 3EF      0.112000
     77 HBF        -1.3040   -0.7640   -0.1660 hc        1 3EF      0.172000
     78 HBFA       -0.3900   -1.4870    0.9830 hc        1 3EF      0.172000
     79 HBV         0.6930    0.8100    1.0470 hc        1 3EF      0.148000
     80 HN          0.9140    0.8180    3.4480 hn        1 3EF      0.246000
     81 HA         -1.4420    0.5150    4.9010 h1        1 3EF      0.121000
     82 HB          0.8830   -0.1280    5.6720 hc        1 3EF      0.090500
     83 HBA         1.0230    1.4730    6.0700 hc        1 3EF      0.090500
     84 HD1        -1.2650    2.3170    7.3210 ha        1 3EF      0.202000
     85 HD2         0.2880   -1.5190    7.4760 ha        1 3EF      0.126000
     86 HE1        -2.3230    1.9910    9.4220 ha        1 3EF      0.124000
     87 HE2        -0.7900   -1.8060    9.5900 ha        1 3EF      0.133000
     88 HOH        -1.9800    0.1960   11.5600 ho        1 3EF      0.239000
@<TRIPOS>BOND
     1    1    9 1   
     2    2    4 1   
     3    2   52 1   
     4    3    5 1   
     5    3   53 1   
     6    4   54 1   
     7    5   55 1   
     8    6   10 1   
     9    6   56 1   
    10    7    8 1   
    11    7   10 1   
    12    7   57 1   
    13    7   58 1   
    14    8    9 1   
    15   11   12 1   
    16   12   14 1   
    17   12   31 1   
    18   13   59 1   
    19   14   15 1   
    20   14   16 1   
    21   14   60 1   
    22   15   61 1   
    23   16   17 1   
    24   16   62 1   
    25   16   63 1   
    26   17   22 1   
    27   18   19 1   
    28   18   64 1   
    29   19   65 1   
    30   20   21 1   
    31   20   66 1   
    32   21   67 1   
    33   22   68 1   
    34   23   34 1   
    35   24   26 1   
    36   24   69 1   
    37   25   27 1   
    38   25   70 1   
    39   26   71 1   
    40   27   72 1   
    41   28   36 1   
    42   28   73 1   
    43   29   35 1   
    44   29   37 1   
    45   30   35 1   
    46   30   38 1   
    47   30   75 1   
    48   30   76 1   
    49   31   38 1   
    50   31   77 1   
    51   31   78 1   
    52   32   33 1   
    53   32   37 1   
    54   33   35 1   
    55   34   38 1   
    56   36   37 1   
    57   38   79 1   
    58   39   40 1   
    59   39   80 1   
    60   40   41 1   
    61   40   43 1   
    62   40   81 1   
    63   41   42 1   
    64   41   51 1   
    65   43   44 1   
    66   43   82 1   
    67   43   83 1   
    68   44   45 1   
    69   44   46 1   
    70   45   47 1   
    71   45   84 1   
    72   46   85 1   
    73   47   86 1   
    74   48   49 1   
    75   48   87 1   
    76   50   88 1   
@<TRIPOS>SUBSTRUCTURE
     1 3EF         1 TEMP              0 ****  ****    0 ROOT
