@<TRIPOS>MOLECULE
3EF
   90    91     1     0     0
SMALL
bcc


@<TRIPOS>ATOM
      1 OAB         2.6170   -1.5010    0.4900 os        1 3EF     -0.155000
      2 CAH         1.8660    1.4550   -4.2770 c3        1 3EF     -0.125000
      3 CAK         1.1630    1.9430   -3.0360 c2        1 3EF     -0.144000
      4 CAL         2.8530    0.3820   -3.8980 c2        1 3EF     -0.091000
      5 CAQ         1.0430    1.2190   -1.9010 c2        1 3EF     -0.142000
      6 CAR         2.3930   -0.3660   -2.9060 c1        1 3EF     -0.123000
      7 CBB         0.7150   -1.2600   -1.2770 c3        1 3EF      0.073000
      8 OBJ         0.4820   -0.9420    0.1340 os        1 3EF     -0.188000
      9 CBM         1.5170   -0.8970    0.9840 c2        1 3EF      0.409000
     10 CBP         1.4590   -0.1970   -1.9690 c2        1 3EF     -0.140000
     11 OAD         0.3490    2.4250    1.1740 o         1 3EF     -1.140000
     12 PBY         0.2080    1.9930    2.5620 p5        1 3EF      2.801000
     13 OAG        -1.2740    2.4230    3.0050 oh        1 3EF     -0.831000
     14 CBX         0.1660    0.2910    2.6540 c3        1 3EF     -0.665000
     15 NBI         1.4000   -0.2860    2.1720 n3        1 3EF     -0.233000
     16 CBE        -0.2210   -0.1650    4.0610 c3        1 3EF     -0.148000
     17 CBQ        -0.8710   -1.4960    4.0510 c2        1 3EF     -0.177000
     18 CAS         4.4120   -2.6880    1.4200 c2        1 3EF     -0.157000
     19 CAM         3.8010   -1.5130    1.2740 c2        1 3EF     -0.100000
     20 CAI        -3.8430   -0.0000    5.3300 c1        1 3EF     -0.158000
     21 CAN        -3.0350   -0.7880    4.9250 c1        1 3EF     -0.166000
     22 CAT        -2.1240   -1.7460    4.4570 c2        1 3EF     -0.017000
     23 CAJ         3.2730   11.4040    4.7550 ca        1 3EF     -0.105000
     24 CAO         4.2610   10.6080    5.3330 ca        1 3EF     -0.133500
     25 CAP         2.4830   10.8930    3.7240 ca        1 3EF     -0.133500
     26 CAU         4.4640    9.3030    4.8860 ca        1 3EF     -0.100500
     27 CAV         2.6800    9.5910    3.2710 ca        1 3EF     -0.100500
     28 CBA         4.5220    4.8240    1.0880 c2        1 3EF     -0.156000
     29 CBC         2.7310    4.3050    2.7420 c2        1 3EF     -0.070000
     30 NBG         4.6600    6.5590    3.8630 n2        1 3EF      0.000000
     31 OBK         4.8230    5.3570    3.3900 os        1 3EF     -0.143000
     32 CBN         3.6630    2.1750    3.6180 c2        1 3EF      0.358000
     33 CBS         4.0260    4.8390    2.3280 c2        1 3EF     -0.068000
     34 CBT         3.6730    8.7850    3.8520 ca        1 3EF     -0.064000
     35 CBU         3.8440    7.4260    3.3340 c2        1 3EF     -0.121000
     36 CBV         2.5210    3.0950    3.2900 c2        1 3EF     -0.095000
     37 N           4.6610    2.6360    4.4160 n         1 3EF     -0.377000
     38 CA         -0.1020    2.2050    8.7030 c2        1 3EF     -0.254000
     39 C           0.2290    2.3150    7.2820 c2        1 3EF      0.357000
     40 O           0.2760    3.5290    6.6510 oh        1 3EF     -0.311000
     41 CB          0.1610    3.1580    9.6120 c2        1 3EF     -0.029000
     42 CG         -0.1390    3.0470   11.0240 c2        1 3EF     -0.134000
     43 CD1        -0.7950    1.8160   11.5370 c3        1 3EF     -0.189000
     44 CD2         0.1780    4.0590   11.8820 c2        1 3EF     -0.078000
     45 CE1        -1.0850    1.7420   12.9560 c1        1 3EF     -0.098000
     46 CE2        -0.1080    3.9780   13.2830 c2        1 3EF     -0.112000
     47 CZ         -0.7170    2.8540   13.7830 c2        1 3EF      0.010000
     48 OH         -0.9800    2.8040   15.1280 oh        1 3EF     -0.237000
     49 OXT         0.4770    1.3810    6.5100 o         1 3EF     -0.355000
     50 HAH         2.4500    2.2970   -4.7380 hc        1 3EF      0.127000
     51 HAK         0.5870    1.6070   -0.9760 ha        1 3EF      0.190000
     52 HAL         1.1020    1.1200   -5.0280 hc        1 3EF      0.127000
     53 HAQ         0.7250    2.9500   -3.1160 ha        1 3EF      0.150000
     54 HAR         3.8510    0.3580   -4.3440 ha        1 3EF      0.167000
     55 HBB        -0.3570   -1.3210   -1.6260 h1        1 3EF      0.141500
     56 HBBA        1.2250   -2.2560   -1.3400 h1        1 3EF      0.141500
     57 HOAG       -1.8260    2.8060    2.3250 ho        1 3EF      0.290000
     58 HBX        -0.6770   -0.0520    1.9700 h1        1 3EF      0.181000
     59 HNBI        2.1680   -0.3660    2.8280 hn        1 3EF      0.308000
     60 HBE        -0.9150    0.6160    4.4860 hc        1 3EF      0.137000
     61 HBEA        0.6700   -0.2210    4.7530 hc        1 3EF      0.137000
     62 HAS        -0.2360   -2.3260    3.7000 ha        1 3EF      0.122000
     63 HAM         5.3920   -2.7460    1.9170 ha        1 3EF      0.157500
     64 HAI         4.0020   -3.6360    1.0460 ha        1 3EF      0.157500
     65 HAN        -4.5620    0.6940    5.6850 ha        1 3EF      0.231000
     66 HAT        -2.5130   -2.7840    4.4390 ha        1 3EF      0.150000
     67 HAU         5.2520    8.6880    5.3480 ha        1 3EF      0.140500
     68 HAV         2.0570    9.1970    2.4540 ha        1 3EF      0.140500
     69 HBAA        3.2170    7.1840    2.4460 h4        1 3EF      0.130000
     70 HBC         3.9890    4.3400    0.2580 ha        1 3EF      0.146000
     71 HBCA        5.4920    5.2810    0.8460 ha        1 3EF      0.146000
     72 HBV         1.8830    4.9850    2.5330 ha        1 3EF      0.151000
     73 HN          0.0200    4.2370    7.2590 ho        1 3EF      0.238000
     74 HA          5.4400    2.0520    4.6080 hn        1 3EF      0.248500
     75 HB          0.6530    4.1040    9.3100 ha        1 3EF      0.126000
     76 HBA        -0.5610    1.2390    8.9760 ha        1 3EF      0.171000
     77 HD1        -1.7790    1.6480   11.0010 hc        1 3EF      0.173500
     78 HD2         0.6680    4.9790   11.5220 ha        1 3EF      0.141000
     79 HE1        -0.1570    0.9090   11.2980 hc        1 3EF      0.173500
     80 HE2         0.1680    4.8230   13.9340 ha        1 3EF      0.164000
     81 HOH        -1.4070    1.9490   15.3070 ho        1 3EF      0.248000
     82 HAJ         3.1170   12.4350    5.1090 ha        1 3EF      0.142000
     83 HAO         4.8880   11.0110    6.1430 ha        1 3EF      0.141500
     84 HBI2        4.1420   -0.5150    1.5960 h4        1 3EF      0.205000
     85 H2          4.7190    3.5980    4.6620 hn        1 3EF      0.248500
     86 CBF         1.1920    2.6040    3.7250 c3        1 3EF     -0.890000
     87 OAC         3.6850    0.9820    3.2110 o         1 3EF     -0.483000
     88 HAP         1.7050   11.5210    3.2640 ha        1 3EF      0.141500
     89 HBF         0.6680    3.4550    4.2640 hc        1 3EF      0.196500
     90 HBFA        1.3520    1.8740    4.5780 hc        1 3EF      0.196500
@<TRIPOS>BOND
     1    1    9 1   
     2    1   19 1   
     3    2    3 1   
     4    2    4 1   
     5    2   50 1   
     6    2   52 1   
     7    3    5 1   
     8    3   53 1   
     9    4    6 1   
    10    4   54 1   
    11    5   10 1   
    12    5   51 1   
    13    6   10 1   
    14    7    8 1   
    15    7   10 1   
    16    7   55 1   
    17    7   56 1   
    18    8    9 1   
    19    9   15 1   
    20   11   12 1   
    21   12   13 1   
    22   12   14 1   
    23   12   86 1   
    24   13   57 1   
    25   14   15 1   
    26   14   16 1   
    27   14   58 1   
    28   15   59 1   
    29   16   17 1   
    30   16   60 1   
    31   16   61 1   
    32   17   22 1   
    33   17   62 1   
    34   18   19 1   
    35   18   63 1   
    36   18   64 1   
    37   19   84 1   
    38   20   21 1   
    39   20   65 1   
    40   21   22 1   
    41   22   66 1   
    42   23   24 1   
    43   23   25 1   
    44   23   82 1   
    45   24   26 1   
    46   24   83 1   
    47   25   27 1   
    48   25   88 1   
    49   26   34 1   
    50   26   67 1   
    51   27   34 1   
    52   27   68 1   
    53   28   33 1   
    54   28   70 1   
    55   28   71 1   
    56   29   33 1   
    57   29   36 1   
    58   29   72 1   
    59   30   31 1   
    60   30   35 1   
    61   31   33 1   
    62   32   36 1   
    63   32   37 1   
    64   32   87 1   
    65   34   35 1   
    66   35   69 1   
    67   36   86 1   
    68   37   74 1   
    69   37   85 1   
    70   38   39 1   
    71   38   41 1   
    72   38   76 1   
    73   39   40 1   
    74   39   49 1   
    75   40   73 1   
    76   41   42 1   
    77   41   75 1   
    78   42   43 1   
    79   42   44 1   
    80   43   45 1   
    81   43   77 1   
    82   43   79 1   
    83   44   46 1   
    84   44   78 1   
    85   45   47 1   
    86   46   47 1   
    87   46   80 1   
    88   47   48 1   
    89   48   81 1   
    90   86   89 1   
    91   86   90 1   
@<TRIPOS>SUBSTRUCTURE
     1 3EF         1 TEMP              0 ****  ****    0 ROOT
