@<TRIPOS>MOLECULE
3EF
   88    92     1     0     0
SMALL
bcc


@<TRIPOS>ATOM
      1 OAB         4.2100    0.4120   -1.2840 o         1 3EF     -0.601000
      2 CAH         7.5810    4.6960   -0.3600 ca        1 3EF     -0.120000
      3 CAK         8.0830    3.9510    0.7080 ca        1 3EF     -0.136000
      4 CAL         6.7080    4.1030   -1.2730 ca        1 3EF     -0.136000
      5 CAQ         7.7140    2.6160    0.8630 ca        1 3EF     -0.105500
      6 CAR         6.3400    2.7670   -1.1220 ca        1 3EF     -0.105500
      7 CBB         6.4730    0.5780    0.0910 c3        1 3EF      0.192700
      8 OBJ         5.2050    0.4230    0.7500 os        1 3EF     -0.427900
      9 CBM         4.0830    0.4170   -0.0460 c         1 3EF      0.713100
     10 CBP         6.8440    2.0170   -0.0530 ca        1 3EF     -0.125300
     11 OAD        -0.0850    1.7790    0.5430 o         1 3EF     -0.853300
     12 PBY         0.6300    1.0490   -0.5000 p5        1 3EF      1.510100
     13 OAG         1.5290    2.0470   -1.3920 oh        1 3EF     -0.795400
     14 CBX         1.7160   -0.1220    0.0920 c3        1 3EF     -0.222500
     15 NBI         2.8840    0.5180    0.6710 n         1 3EF     -0.456900
     16 CBE         0.9010   -0.9270    1.1090 c3        1 3EF     -0.067100
     17 CBQ         1.6610   -2.0580    1.6990 ca        1 3EF     -0.084300
     18 CAS         2.3870   -1.8920    2.8840 ca        1 3EF     -0.121500
     19 CAM         3.1040   -2.9600    3.4210 ca        1 3EF     -0.130500
     20 CAI         3.0920   -4.2010    2.7850 ca        1 3EF     -0.134000
     21 CAN         2.3560   -4.3750    1.6120 ca        1 3EF     -0.130500
     22 CAT         1.6410   -3.3090    1.0690 ca        1 3EF     -0.121500
     23 CAJ        -3.0330    7.9950   -0.0660 ca        1 3EF     -0.130000
     24 CAO        -3.8650    7.7510   -1.1570 ca        1 3EF     -0.141500
     25 CAP        -2.2200    6.9750    0.4290 ca        1 3EF     -0.141500
     26 CAU        -3.8900    6.4920   -1.7550 ca        1 3EF     -0.102500
     27 CAV        -2.2380    5.7130   -0.1610 ca        1 3EF     -0.102500
     28 CBA        -2.7100    2.9030   -1.1780 cc        1 3EF     -0.360600
     29 CBC        -2.7100    0.4600   -2.1880 c3        1 3EF     -0.147700
     30 NBG        -3.4430    3.8440   -3.1340 nd        1 3EF     -0.373300
     31 OBK        -3.3210    2.5490   -3.3240 os        1 3EF     -0.117100
     32 CBN        -1.8920   -1.5400   -0.9620 c         1 3EF      0.639100
     33 CBS        -2.8680    1.9190   -2.1340 cd        1 3EF      0.273000
     34 CBT        -3.0760    5.4630   -1.2580 ca        1 3EF     -0.118500
     35 CBU        -3.0910    4.1410   -1.8610 cc        1 3EF      0.362800
     36 CBV        -1.6720   -0.0290   -1.1770 c3        1 3EF     -0.122700
     37 N          -3.0250   -1.9100   -0.2590 n         1 3EF     -0.476900
     38 CA         -3.7130   -3.1470   -0.6080 c3        1 3EF     -0.072300
     39 C          -4.9060   -2.8880   -1.6090 c         1 3EF      0.905600
     40 O          -5.1670   -1.6910   -1.9190 o         1 3EF     -0.824300
     41 CB         -4.2880   -3.8610    0.6210 c3        1 3EF     -0.033100
     42 CG         -3.2620   -4.5750    1.4250 ca        1 3EF     -0.076300
     43 CD1        -2.7150   -5.7770    0.9520 ca        1 3EF     -0.096000
     44 CD2        -2.8450   -4.0790    2.6650 ca        1 3EF     -0.096000
     45 CE1        -1.7780   -6.4810    1.7000 ca        1 3EF     -0.186500
     46 CE2        -1.9070   -4.7680    3.4300 ca        1 3EF     -0.186500
     47 CZ         -1.3790   -5.9700    2.9450 ca        1 3EF      0.097100
     48 OH         -0.4580   -6.7160    3.6560 oh        1 3EF     -0.513100
     49 OXT        -5.5110   -3.9050   -2.0310 o         1 3EF     -0.824300
     50 HAH         7.8690    5.7500   -0.4790 ha        1 3EF      0.129000
     51 HAK         8.7670    4.4180    1.4310 ha        1 3EF      0.132000
     52 HAL         6.3040    4.6900   -2.1110 ha        1 3EF      0.132000
     53 HAQ         8.1050    2.0330    1.7110 ha        1 3EF      0.143500
     54 HAR         5.6440    2.2930   -1.8340 ha        1 3EF      0.143500
     55 HBB         7.1720    0.0430    0.7910 h1        1 3EF      0.073700
     56 HBBA        6.4550    0.0680   -0.9090 h1        1 3EF      0.073700
     57 HOAG        2.4290    1.8140   -1.6010 ho        1 3EF      0.478000
     58 HBX         2.0430   -0.8400   -0.7200 h1        1 3EF      0.110700
     59 HNBI        3.0050    0.3370    1.6540 hn        1 3EF      0.313500
     60 HBE         0.5320   -0.2250    1.9070 hc        1 3EF      0.093200
     61 HBEA       -0.0010   -1.3260    0.5620 hc        1 3EF      0.093200
     62 HAS         2.3800   -0.9220    3.4030 ha        1 3EF      0.146000
     63 HAM         3.6740   -2.8240    4.3510 ha        1 3EF      0.131000
     64 HAI         3.6560   -5.0430    3.2100 ha        1 3EF      0.125000
     65 HAN         2.3290   -5.3580    1.1190 ha        1 3EF      0.131000
     66 HAT         1.0380   -3.4480    0.1550 ha        1 3EF      0.146000
     67 HAP        -1.5610    7.1640    1.2890 ha        1 3EF      0.127000
     68 HAU        -4.5500    6.3050   -2.6160 ha        1 3EF      0.152500
     69 HAV        -1.5920    4.9100    0.2300 ha        1 3EF      0.152500
     70 HBAA       -2.3660    2.8140   -0.1490 ha        1 3EF      0.202000
     71 HBC        -3.7230   -0.0220   -2.0060 hc        1 3EF      0.119200
     72 HBCA       -2.4070    0.1470   -3.2250 hc        1 3EF      0.119200
     73 HBV        -1.8510    0.5010   -0.1930 hc        1 3EF      0.093700
     74 HN         -3.6910   -1.1640   -0.1430 hn        1 3EF      0.297500
     75 HA         -2.9840   -3.8380   -1.1210 h1        1 3EF      0.077700
     76 HB         -4.8470   -3.1320    1.2660 hc        1 3EF      0.065700
     77 HBA        -5.0360   -4.6060    0.2270 hc        1 3EF      0.065700
     78 HD1        -3.0340   -6.1600   -0.0300 ha        1 3EF      0.139500
     79 HD2        -3.2590   -3.1300    3.0390 ha        1 3EF      0.139500
     80 HE1        -1.3480   -7.4230    1.3360 ha        1 3EF      0.128500
     81 HE2        -1.5800   -4.3700    4.4010 ha        1 3EF      0.128500
     82 HOH        -0.2100   -6.2010    4.4360 ho        1 3EF      0.408000
     83 HAJ        -3.0170    8.9890    0.4040 ha        1 3EF      0.122000
     84 CBF        -0.2600    0.2710   -1.6390 c3        1 3EF     -0.454600
     85 OAC        -1.0160   -2.3600   -1.3190 o         1 3EF     -0.641100
     86 HAO        -4.5070    8.5530   -1.5500 ha        1 3EF      0.127000
     87 HBF        -0.3170    0.9080   -2.5680 hc        1 3EF      0.132200
     88 HBFA        0.1990   -0.6900   -2.0100 hc        1 3EF      0.132200
@<TRIPOS>BOND
     1    1    9 2   
     2    2    3 ar  
     3    2    4 ar  
     4    2   50 1   
     5    3    5 ar  
     6    3   51 1   
     7    4    6 ar  
     8    4   52 1   
     9    5   10 ar  
    10    5   53 1   
    11    6   10 ar  
    12    6   54 1   
    13    7    8 1   
    14    7   10 1   
    15    7   55 1   
    16    7   56 1   
    17    8    9 1   
    18    9   15 1   
    19   11   12 2   
    20   12   13 1   
    21   12   14 1   
    22   12   84 1   
    23   13   57 1   
    24   14   15 1   
    25   14   16 1   
    26   14   58 1   
    27   15   59 1   
    28   16   17 1   
    29   16   60 1   
    30   16   61 1   
    31   17   18 ar  
    32   17   22 ar  
    33   18   19 ar  
    34   18   62 1   
    35   19   20 ar  
    36   19   63 1   
    37   20   21 ar  
    38   20   64 1   
    39   21   22 ar  
    40   21   65 1   
    41   22   66 1   
    42   23   24 ar  
    43   23   25 ar  
    44   23   83 1   
    45   24   26 ar  
    46   24   86 1   
    47   25   27 ar  
    48   25   67 1   
    49   26   34 ar  
    50   26   68 1   
    51   27   34 ar  
    52   27   69 1   
    53   28   33 2   
    54   28   35 1   
    55   28   70 1   
    56   29   33 1   
    57   29   36 1   
    58   29   71 1   
    59   29   72 1   
    60   30   31 1   
    61   30   35 2   
    62   31   33 1   
    63   32   36 1   
    64   32   37 1   
    65   32   85 2   
    66   34   35 1   
    67   36   73 1   
    68   36   84 1   
    69   37   38 1   
    70   37   74 1   
    71   38   39 1   
    72   38   41 1   
    73   38   75 1   
    74   39   40 1   
    75   39   49 1   
    76   41   42 1   
    77   41   76 1   
    78   41   77 1   
    79   42   43 ar  
    80   42   44 ar  
    81   43   45 ar  
    82   43   78 1   
    83   44   46 ar  
    84   44   79 1   
    85   45   47 ar  
    86   45   80 1   
    87   46   47 ar  
    88   46   81 1   
    89   47   48 1   
    90   48   82 1   
    91   84   87 1   
    92   84   88 1   
@<TRIPOS>SUBSTRUCTURE
     1 3EF         1 TEMP              0 ****  ****    0 ROOT
