@<TRIPOS>MOLECULE
3EG
   15    14     1     0     0
SMALL
bcc


@<TRIPOS>ATOM
      1 C          -2.1830    0.0890   -0.2440 c         1 3EG      0.893600
      2 N          -0.5090   -1.7160    0.4240 n3        1 3EG     -0.889800
      3 O          -3.0280   -0.8390   -0.3730 o         1 3EG     -0.832800
      4 CA         -0.7690   -0.2890    0.3260 c3        1 3EG      0.009500
      5 CB          0.2690    0.4540   -0.5060 c3        1 3EG     -0.086400
      6 FAC         2.3330   -0.8790   -0.2520 f         1 3EG     -0.261967
      7 FAD         2.5820    1.2500   -0.4650 f         1 3EG     -0.261967
      8 FAE         1.8530    0.4450    1.3990 f         1 3EG     -0.261967
      9 CG          1.7080    0.3080    0.0420 c3        1 3EG      0.620900
     10 OXT        -2.3860    1.3030   -0.5200 o         1 3EG     -0.832800
     11 H          -1.3440   -2.1460    0.7890 hn        1 3EG      0.337300
     12 H2         -0.3770   -2.0870   -0.5000 hn        1 3EG      0.337300
     13 HA         -0.7320    0.1160    1.3800 h1        1 3EG      0.057700
     14 HB          0.2750    0.0870   -1.5620 hc        1 3EG      0.085700
     15 HBA        -0.0040    1.5420   -0.5040 hc        1 3EG      0.085700
@<TRIPOS>BOND
     1    1    3 1   
     2    1    4 1   
     3    1   10 1   
     4    2    4 1   
     5    2   11 1   
     6    2   12 1   
     7    4    5 1   
     8    4   13 1   
     9    5    9 1   
    10    5   14 1   
    11    5   15 1   
    12    6    9 1   
    13    7    9 1   
    14    8    9 1   
@<TRIPOS>SUBSTRUCTURE
     1 3EG         1 TEMP              0 ****  ****    0 ROOT
