@<TRIPOS>MOLECULE
3EH
   71    67     1     0     0
SMALL
bcc


@<TRIPOS>ATOM
      1 C1         -0.8040   -0.2330   -0.1040 c2        1 3EH     -0.154000
      2 C2          0.2970   -1.6520    2.7830 c1        1 3EH      0.230000
      3 C3         -0.3700    1.0210    0.1140 c2        1 3EH     -0.060000
      4 C4          1.2530   -0.6410    2.2050 c3        1 3EH     -0.342000
      5 C5          0.2880    1.4980    1.3060 c2        1 3EH     -0.119000
      6 C6          0.9760    0.7980    2.2440 c2        1 3EH      0.075000
      7 C7         -2.8000   -3.5470   -2.8770 c2        1 3EH     -0.111000
      8 N10        -1.8610   -1.7860   -1.6110 n2        1 3EH     -0.105000
      9 C11        -1.0920   -5.1400   -1.4480 c1        1 3EH     -0.929000
     10 C12        -1.4650   -0.5670   -1.3650 c2        1 3EH     -0.034000
     11 C15        -3.6000    3.7640   -5.6020 ca        1 3EH      0.002000
     12 C16        -2.0870    4.2760   -3.7900 ca        1 3EH     -0.105500
     13 C17        -3.5100    2.3900   -5.2890 ca        1 3EH     -0.139500
     14 C18        -2.0010    2.9210   -3.4770 ca        1 3EH     -0.115000
     15 C19        -2.7130    1.9810   -4.2250 ca        1 3EH     -0.105500
     16 C24         0.0290    3.6110    2.4260 c1        1 3EH     -0.018000
     17 O28        -5.2770    5.3440   -8.5140 os        1 3EH     -0.193000
     18 C30        -2.8540    6.2500  -11.4190 c3        1 3EH     -0.255000
     19 C31        -5.3130    9.8770   -8.0150 c3        1 3EH     -0.158000
     20 C33        -6.7750    9.9810  -11.7140 c1        1 3EH     -0.223000
     21 C34        -7.5980   10.0740  -10.8520 c1        1 3EH     -0.223000
     22 C35        -2.6920   10.6230   -9.6200 c3        1 3EH     -0.246000
     23 C36        -3.6850    9.4870   -9.7850 c3        1 3EH     -0.104000
     24 O27        -3.8260    6.4250   -7.1580 o         1 3EH     -0.280000
     25 C26        -4.3670    5.3370   -7.2900 c2        1 3EH      0.406000
     26 C29        -5.4730    6.4310   -9.1660 c2        1 3EH      0.198000
     27 N32        -4.3090    8.9920   -8.5650 n7        1 3EH     -0.320000
     28 C14        -2.8820    4.7100   -4.8500 ca        1 3EH     -0.139500
     29 N8         -2.4890   -2.1120   -2.7810 n         1 3EH     -0.136000
     30 S9         -2.3320   -4.6210   -1.4640 ss        1 3EH      1.296000
     31 O22         0.2380    2.9300    1.3720 os        1 3EH     -0.029000
     32 O23         1.4560    1.5120    3.3250 oh        1 3EH     -0.269000
     33 C25         1.5860   -1.4040    3.4630 c3        1 3EH     -0.369000
     34 H1         -0.6980   -1.0300    0.6530 ha        1 3EH      0.166000
     35 H2         -0.5200    1.8110   -0.6490 ha        1 3EH      0.139000
     36 H3          1.7820   -0.9320    1.2670 hc        1 3EH      0.174000
     37 H4         -0.1090   -5.5560   -1.4280 ha        1 3EH      0.221000
     38 H5         -1.6050    0.2800   -2.0770 h4        1 3EH      0.144000
     39 H6         -1.5250    5.0180   -3.2000 ha        1 3EH      0.185500
     40 H7         -4.0640    1.6340   -5.8680 ha        1 3EH      0.150000
     41 H8         -1.3700    2.5900   -2.6370 ha        1 3EH      0.147000
     42 H9         -2.2640    4.2310    2.1660 ha        1 3EH      0.004500
     43 H10        -0.1320    3.1500    3.4190 ha        1 3EH      0.065000
     44 H11        -2.4090    3.6450    2.4760 ha        1 3EH      0.004500
     45 H12        -3.0590    7.0030  -12.2120 hc        1 3EH      0.065500
     46 H13        -6.1510    6.3010  -10.0420 h4        1 3EH      0.237500
     47 H14        -5.7300    9.4150   -7.0820 h1        1 3EH      0.090333
     48 H15        -1.9210    6.5200  -10.8790 hc        1 3EH      0.065500
     49 H16        -4.9980    7.4550   -8.8800 h4        1 3EH      0.237500
     50 H17        -6.1410   10.0080   -8.7630 h1        1 3EH      0.090333
     51 H18        -8.3430   10.1750  -10.1020 ha        1 3EH      0.224000
     52 H19        -4.5040    9.8120  -10.4910 h1        1 3EH      0.094500
     53 H20        -6.0590    9.9160  -12.4960 ha        1 3EH      0.224000
     54 H21        -3.1840   11.5290   -9.1910 hc        1 3EH      0.092000
     55 H22        -3.6000    8.8050   -7.8720 hn        1 3EH      0.180000
     56 H23        -3.1540    8.6060  -10.2550 h1        1 3EH      0.094500
     57 H24        -2.2730   10.8920  -10.6200 hc        1 3EH      0.092000
     58 H25        -1.8480   10.3280   -8.9520 hc        1 3EH      0.092000
     59 H26        -3.7060    6.2330  -10.6990 hc        1 3EH      0.065500
     60 H27        -2.7420    5.2450  -11.8800 hc        1 3EH      0.065500
     61 H29        -5.0250    3.4310   -7.0880 hn        1 3EH      0.282000
     62 H30        -2.9340    5.7850   -5.0840 ha        1 3EH      0.150000
     63 H31        -2.6500    0.8930   -3.9780 ha        1 3EH      0.185500
     64 H32        -3.3030   -1.6380   -4.6120 ha        1 3EH      0.086000
     65 H33         2.3930   -2.1620    3.4330 hc        1 3EH      0.166500
     66 H34         2.2840    1.0970    3.6130 ho        1 3EH      0.236000
     67 H35         1.5800   -0.8790    4.4400 hc        1 3EH      0.166500
     68 C13        -2.7900   -1.2270   -3.7210 c1        1 3EH     -0.211000
     69 H321       -4.9090   10.8940   -7.7580 h1        1 3EH      0.090333
     70 O21        -3.4040   -3.8970   -3.8930 o         1 3EH     -0.273000
     71 N20        -4.4610    4.1480   -6.6730 ns        1 3EH     -0.219000
@<TRIPOS>BOND
     1    1    3 1   
     2    1   10 1   
     3    1   34 1   
     4    2    4 1   
     5    2   33 1   
     6    3    5 1   
     7    3   35 1   
     8    4    6 1   
     9    4   33 1   
    10    4   36 1   
    11    5    6 1   
    12    5   31 1   
    13    6   32 1   
    14    7   29 1   
    15    7   30 1   
    16    7   70 1   
    17    8   10 1   
    18    8   29 1   
    19    9   30 1   
    20    9   37 1   
    21   10   38 1   
    22   11   13 1   
    23   11   28 1   
    24   11   71 1   
    25   12   14 1   
    26   12   28 1   
    27   12   39 1   
    28   13   15 1   
    29   13   40 1   
    30   14   15 1   
    31   14   41 1   
    32   15   63 1   
    33   16   31 1   
    34   16   43 1   
    35   17   25 1   
    36   17   26 1   
    37   18   45 1   
    38   18   48 1   
    39   18   59 1   
    40   18   60 1   
    41   19   27 1   
    42   19   47 1   
    43   19   50 1   
    44   19   69 1   
    45   20   21 1   
    46   20   53 1   
    47   21   51 1   
    48   22   23 1   
    49   22   54 1   
    50   22   57 1   
    51   22   58 1   
    52   23   27 1   
    53   23   52 1   
    54   23   56 1   
    55   24   25 1   
    56   25   71 1   
    57   26   46 1   
    58   26   49 1   
    59   27   55 1   
    60   28   62 1   
    61   29   68 1   
    62   32   66 1   
    63   33   65 1   
    64   33   67 1   
    65   42   44 1   
    66   61   71 1   
    67   64   68 1   
@<TRIPOS>SUBSTRUCTURE
     1 3EH         1 TEMP              0 ****  ****    0 ROOT
