@<TRIPOS>MOLECULE
3EH
   71    67     1     0     0
SMALL
bcc


@<TRIPOS>ATOM
      1 C1         -0.2990    0.2510    0.1220 c2        1 3EH     -0.155000
      2 C2          2.6750    0.1220    1.7210 c1        1 3EH      0.220000
      3 C3         -1.1150    0.0520    1.1720 c2        1 3EH     -0.051000
      4 C4          1.6200    0.8280    2.5320 c3        1 3EH     -0.337000
      5 C5         -0.6900   -0.1780    2.5340 c2        1 3EH     -0.113000
      6 C6          0.4930    0.1090    3.1340 c2        1 3EH      0.062000
      7 C7         -1.7010    0.4880   -4.0160 c2        1 3EH     -0.110000
      8 N10        -2.0080    0.5200   -1.5740 n2        1 3EH     -0.038000
      9 C11         0.0090   -1.4070   -5.0360 c1        1 3EH     -0.863000
     10 C12        -0.7430    0.4560   -1.2520 c2        1 3EH     -0.119000
     11 C15        -4.0380    4.6740   -4.2080 ca        1 3EH     -0.032000
     12 C16        -4.5130    4.6910   -1.8470 ca        1 3EH     -0.105000
     13 C17        -3.8590    3.2820   -4.1750 ca        1 3EH     -0.119000
     14 C18        -4.3360    3.3070   -1.8010 ca        1 3EH     -0.074000
     15 C19        -4.0120    2.6020   -2.9640 ca        1 3EH     -0.060000
     16 C24        -1.6650   -1.6560    4.1610 c1        1 3EH     -0.012000
     17 O28        -3.4500    7.1810   -7.4730 o         1 3EH     -0.456000
     18 C30        -3.7860    4.6440  -10.1940 c3        1 3EH     -0.278000
     19 C31        -2.3060    7.9720   -9.4270 c3        1 3EH     -0.301000
     20 C33        -3.4980   10.5520  -12.1890 c2        1 3EH     -0.224000
     21 C34        -4.3330   11.5510  -11.9340 c2        1 3EH     -0.224000
     22 C35        -5.3160    7.7030  -11.6580 c3        1 3EH     -0.194000
     23 C36        -6.3190    7.3890  -12.6600 c1        1 3EH     -0.071000
     24 O27        -2.5920    4.5410   -7.3480 o         1 3EH      0.048000
     25 C26        -3.1860    4.9620   -6.4300 c1        1 3EH      0.474000
     26 C29        -3.3030    8.0670   -8.3320 c2        1 3EH      0.272000
     27 N32        -5.5640    8.5730  -10.5270 n3        1 3EH     -0.396000
     28 C14        -4.3640    5.3930   -3.0410 ca        1 3EH     -0.112000
     29 N8         -2.4550    0.6560   -2.8290 n         1 3EH     -0.257000
     30 S9         -0.1870   -0.5620   -4.0010 ss        1 3EH      1.204000
     31 O22        -1.7680   -0.7120    3.3170 os        1 3EH     -0.027000
     32 O23         0.6410   -0.3130    4.4430 oh        1 3EH     -0.268000
     33 C25         3.0210    0.6400    3.0600 c3        1 3EH     -0.367000
     34 H1          0.8000    0.2450    0.2340 ha        1 3EH      0.154000
     35 H2         -2.2160    0.0260    1.0490 ha        1 3EH      0.160000
     36 H3          1.3230    1.8470    2.1920 hc        1 3EH      0.168000
     37 H4          0.1610   -2.0790   -5.8530 ha        1 3EH      0.226000
     38 H5          0.1030    0.5480   -1.9710 h4        1 3EH      0.108000
     39 H6         -4.7720    5.2420   -0.9280 ha        1 3EH      0.166000
     40 H7         -3.5880    2.7010   -5.0760 ha        1 3EH      0.179000
     41 H8         -4.4490    2.7680   -0.8450 ha        1 3EH      0.171000
     42 H9         -2.5830   -3.5040    2.9600 ha        1 3EH      0.004000
     43 H10        -0.7090   -2.1690    4.3790 ha        1 3EH      0.063000
     44 H11        -1.9550   -3.5900    2.7180 ha        1 3EH      0.004000
     45 H12        -4.8870    4.4920  -10.2200 hc        1 3EH      0.069750
     46 H13        -3.9360    8.9830   -8.3100 h4        1 3EH      0.127000
     47 H14        -1.7100    8.9180   -9.4840 hc        1 3EH      0.123667
     48 H15        -3.4040    4.7620  -11.2320 hc        1 3EH      0.069750
     49 H16        -2.8560    7.8460  -10.3970 hc        1 3EH      0.123667
     50 H17        -3.0000    9.9780  -11.3940 ha        1 3EH      0.113000
     51 H18        -4.5830   11.8730  -10.9140 ha        1 3EH      0.113000
     52 H19        -4.8200   12.1330  -12.7290 ha        1 3EH      0.113000
     53 H20        -3.2350   10.2420  -13.2100 ha        1 3EH      0.113000
     54 H21        -6.4800    8.4250  -10.1530 hn        1 3EH      0.149000
     55 H22        -5.4780    9.5380  -10.7930 hn        1 3EH      0.149000
     56 H23        -7.3150    7.8450  -12.5730 ha        1 3EH      0.052000
     57 H24        -4.4230    8.1070  -12.2390 h1        1 3EH      0.153000
     58 H25        -4.9880    6.6910  -11.2470 h1        1 3EH      0.153000
     59 H26        -3.5460    5.5570   -9.6010 hc        1 3EH      0.069750
     60 H27        -3.2990    3.7620   -9.7200 hc        1 3EH      0.069750
     61 H29        -4.2730    6.3400   -5.5140 hn        1 3EH      0.338000
     62 H30        -4.5060    6.4840   -3.0560 ha        1 3EH      0.154000
     63 H31        -4.2420    0.6840   -3.9160 h1        1 3EH      0.125000
     64 H32        -4.4580    0.6800   -2.0990 h1        1 3EH      0.125000
     65 H33         3.6810    1.5230    3.1690 hc        1 3EH      0.167500
     66 H34         1.1830    0.3440    4.9080 ho        1 3EH      0.234000
     67 H35         3.1990   -0.0850    3.8830 hc        1 3EH      0.167500
     68 C13        -3.8460    1.1060   -2.9460 c3        1 3EH      0.017000
     69 H321       -1.6110    7.1080   -9.2910 hc        1 3EH      0.123667
     70 O21        -2.1530    0.9930   -5.0640 o         1 3EH     -0.378000
     71 N20        -3.9210    5.3880   -5.4470 nh        1 3EH     -0.157000
@<TRIPOS>BOND
     1    1    3 1   
     2    1   10 1   
     3    1   34 1   
     4    2    4 1   
     5    2   33 1   
     6    3    5 1   
     7    3   35 1   
     8    4    6 1   
     9    4   33 1   
    10    4   36 1   
    11    5    6 1   
    12    5   31 1   
    13    6   32 1   
    14    7   29 1   
    15    7   30 1   
    16    7   70 1   
    17    8   10 1   
    18    8   29 1   
    19    9   30 1   
    20    9   37 1   
    21   10   38 1   
    22   11   13 1   
    23   11   28 1   
    24   11   71 1   
    25   12   14 1   
    26   12   28 1   
    27   12   39 1   
    28   13   15 1   
    29   13   40 1   
    30   14   15 1   
    31   14   41 1   
    32   15   68 1   
    33   16   31 1   
    34   16   43 1   
    35   17   26 1   
    36   18   45 1   
    37   18   48 1   
    38   18   59 1   
    39   18   60 1   
    40   19   26 1   
    41   19   47 1   
    42   19   49 1   
    43   19   69 1   
    44   20   21 1   
    45   20   50 1   
    46   20   53 1   
    47   21   51 1   
    48   21   52 1   
    49   22   23 1   
    50   22   27 1   
    51   22   57 1   
    52   22   58 1   
    53   23   56 1   
    54   24   25 1   
    55   25   71 1   
    56   26   46 1   
    57   27   54 1   
    58   27   55 1   
    59   28   62 1   
    60   29   68 1   
    61   32   66 1   
    62   33   65 1   
    63   33   67 1   
    64   42   44 1   
    65   61   71 1   
    66   63   68 1   
    67   64   68 1   
@<TRIPOS>SUBSTRUCTURE
     1 3EH         1 TEMP              0 ****  ****    0 ROOT
