@<TRIPOS>MOLECULE
3EJ
   49    52     1     0     0
SMALL
bcc


@<TRIPOS>ATOM
      1 C1          1.7440    1.1020    0.5190 ca        1 3EJ     -0.073500
      2 C2          1.9180    2.4610    0.2230 ca        1 3EJ     -0.119600
      3 C3          1.5970    3.4360    1.1750 ca        1 3EJ     -0.073500
      4 C4          1.1080    3.0510    2.4220 ca        1 3EJ     -0.119500
      5 C5          0.9390    1.6950    2.7210 ca        1 3EJ     -0.097300
      6 C6          1.2520    0.7220    1.7660 ca        1 3EJ     -0.119500
      7 C7          2.4380    2.8300   -1.0990 c         1 3EJ      0.648700
      8 O8          2.5750    4.1710   -1.3180 oh        1 3EJ     -0.605100
      9 O9          2.7670    2.0870   -2.0310 o         1 3EJ     -0.547000
     10 C10         0.4500    1.2820    4.0760 c3        1 3EJ      0.112600
     11 N11        -0.9910    1.5190    4.2680 na        1 3EJ      0.203900
     12 N12        -1.9580    0.5850    4.0360 nc        1 3EJ     -0.140800
     13 N13        -3.0870    1.1260    4.2050 nd        1 3EJ     -0.358000
     14 C14        -2.8580    2.5030    4.5510 cd        1 3EJ      0.525500
     15 N15        -1.5060    2.7220    4.5750 nc        1 3EJ     -0.470800
     16 C16        -3.9100    3.4680    4.8310 ca        1 3EJ     -0.084500
     17 C17        -3.5900    4.8000    5.1430 ca        1 3EJ     -0.164300
     18 C18        -4.6410    5.7000    5.4090 ca        1 3EJ      0.348800
     19 N19        -5.9490    5.3460    5.3720 nb        1 3EJ     -0.648000
     20 C20        -6.2330    4.0700    5.0650 ca        1 3EJ      0.387200
     21 C21        -5.2580    3.0910    4.7890 ca        1 3EJ     -0.190300
     22 C22        -4.2500    7.1250    5.7240 c         1 3EJ      0.566600
     23 N23        -5.1080    7.8870    6.4890 n         1 3EJ     -0.534900
     24 C24        -4.8440    9.2790    6.7460 c3        1 3EJ      0.126300
     25 C25        -5.4180   10.2310    5.7320 ca        1 3EJ     -0.100300
     26 O26        -3.1390    7.5540    5.3490 o         1 3EJ     -0.611100
     27 C27        -4.8430   10.3140    4.4600 ca        1 3EJ     -0.126000
     28 C28        -5.3490   11.2120    3.5210 ca        1 3EJ     -0.107000
     29 C29        -6.4270   12.0350    3.8380 ca        1 3EJ     -0.160000
     30 C30        -7.0040   11.9500    5.1180 ca        1 3EJ      0.119900
     31 C31        -6.5000   11.0440    6.0690 ca        1 3EJ     -0.156000
     32 F32        -8.0530   12.7460    5.4390 f         1 3EJ     -0.142900
     33 H1          1.9960    0.3440   -0.2410 ha        1 3EJ      0.163000
     34 H3          1.7320    4.5020    0.9320 ha        1 3EJ      0.163000
     35 H4          0.8510    3.8170    3.1710 ha        1 3EJ      0.151000
     36 H6          1.1090   -0.3450    1.9940 ha        1 3EJ      0.151000
     37 H10         1.0000    1.8650    4.8700 h1        1 3EJ      0.090200
     38 H10A        0.6330    0.1810    4.2410 h1        1 3EJ      0.090200
     39 H17        -2.5500    5.1600    5.1760 ha        1 3EJ      0.184000
     40 H20        -7.3080    3.8130    5.0380 h4        1 3EJ      0.032100
     41 H21        -5.5650    2.0630    4.5470 ha        1 3EJ      0.170000
     42 HN23       -6.0520    7.5900    6.5880 hn        1 3EJ      0.327500
     43 H24        -3.7240    9.4300    6.7810 h1        1 3EJ      0.072700
     44 H24A       -5.2670    9.5160    7.7650 h1        1 3EJ      0.072700
     45 H27        -3.9880    9.6640    4.2100 ha        1 3EJ      0.159000
     46 H28        -4.8940   11.2740    2.5210 ha        1 3EJ      0.140000
     47 H29        -6.8310   12.7470    3.1040 ha        1 3EJ      0.148000
     48 H31        -6.9620   10.9900    7.0650 ha        1 3EJ      0.147000
     49 H232        2.9210    4.3140   -2.2150 ho        1 3EJ      0.450000
@<TRIPOS>BOND
     1    1    2 ar  
     2    1    6 ar  
     3    1   33 1   
     4    2    3 ar  
     5    2    7 1   
     6    3    4 ar  
     7    3   34 1   
     8    4    5 ar  
     9    4   35 1   
    10    5    6 ar  
    11    5   10 1   
    12    6   36 1   
    13    7    8 1   
    14    7    9 2   
    15    8   49 1   
    16   10   11 1   
    17   10   37 1   
    18   10   38 1   
    19   11   12 1   
    20   11   15 1   
    21   12   13 2   
    22   13   14 1   
    23   14   15 2   
    24   14   16 1   
    25   16   17 ar  
    26   16   21 ar  
    27   17   18 ar  
    28   17   39 1   
    29   18   19 ar  
    30   18   22 1   
    31   19   20 ar  
    32   20   21 ar  
    33   20   40 1   
    34   21   41 1   
    35   22   23 1   
    36   22   26 2   
    37   23   24 1   
    38   23   42 1   
    39   24   25 1   
    40   24   43 1   
    41   24   44 1   
    42   25   27 ar  
    43   25   31 ar  
    44   27   28 ar  
    45   27   45 1   
    46   28   29 ar  
    47   28   46 1   
    48   29   30 ar  
    49   29   47 1   
    50   30   31 ar  
    51   30   32 1   
    52   31   48 1   
@<TRIPOS>SUBSTRUCTURE
     1 3EJ         1 TEMP              0 ****  ****    0 ROOT
