@<TRIPOS>MOLECULE
3EJ
   48    51     1     0     0
SMALL
bcc


@<TRIPOS>ATOM
      1 C1         -6.5580    0.6480    1.4990 ca        1 3EJ     -0.117000
      2 C2         -7.3500    0.9410    0.3830 ca        1 3EJ     -0.097600
      3 C3         -7.2490    0.1350   -0.7560 ca        1 3EJ     -0.117000
      4 C4         -6.3760   -0.9500   -0.7810 ca        1 3EJ     -0.125000
      5 C5         -5.5950   -1.2450    0.3430 ca        1 3EJ     -0.177300
      6 C6         -5.6840   -0.4350    1.4820 ca        1 3EJ     -0.125000
      7 C7         -8.3130    2.1230    0.4100 c         1 3EJ      0.905200
      8 O8         -8.3500    2.8240    1.4590 o         1 3EJ     -0.822800
      9 O9         -9.0180    2.3280   -0.6170 o         1 3EJ     -0.822800
     10 C10        -4.7030   -2.4370    0.3430 c3        1 3EJ      0.130600
     11 N11        -3.3050   -2.1340   -0.0550 na        1 3EJ      0.231900
     12 N12        -2.7390   -2.5330   -1.2280 nc        1 3EJ     -0.164800
     13 N13        -1.5700   -2.0500   -1.3040 nd        1 3EJ     -0.364000
     14 C14        -1.3580   -1.2740   -0.1200 cd        1 3EJ      0.488500
     15 N15        -2.4900   -1.3470    0.6550 nc        1 3EJ     -0.459800
     16 C16        -0.1470   -0.5310    0.1820 ca        1 3EJ     -0.063500
     17 C17         1.0680   -0.8520   -0.4470 ca        1 3EJ     -0.160300
     18 C18         2.2080   -0.0900   -0.1300 ca        1 3EJ      0.340800
     19 N19         2.1990    0.9350    0.7590 nb        1 3EJ     -0.662000
     20 C20         1.0300    1.2180    1.3550 ca        1 3EJ      0.384200
     21 C21        -0.1700    0.5240    1.1030 ca        1 3EJ     -0.196300
     22 C22         3.4990   -0.4700   -0.8120 c         1 3EJ      0.571600
     23 N23         4.3750    0.5480   -1.1440 n         1 3EJ     -0.542900
     24 C24         5.6840    0.2700   -1.6700 c3        1 3EJ      0.122300
     25 C25         6.8130    0.5530   -0.7160 ca        1 3EJ     -0.087300
     26 O26         3.7180   -1.6560   -1.1280 o         1 3EJ     -0.603100
     27 C27         7.0460    1.8600   -0.2760 ca        1 3EJ     -0.138000
     28 C28         8.1060    2.1310    0.5870 ca        1 3EJ     -0.106000
     29 C29         8.9470    1.1090    1.0180 ca        1 3EJ     -0.165000
     30 C30         8.7130   -0.2050    0.5750 ca        1 3EJ      0.121900
     31 C31         7.6400   -0.4870   -0.2910 ca        1 3EJ     -0.147000
     32 F32         9.5250   -1.2090    0.9880 f         1 3EJ     -0.143900
     33 H1         -6.6480    1.2980    2.3850 ha        1 3EJ      0.158000
     34 H3         -7.8770    0.3830   -1.6280 ha        1 3EJ      0.158000
     35 H4         -6.3000   -1.5770   -1.6800 ha        1 3EJ      0.113500
     36 H6         -5.0610   -0.6570    2.3590 ha        1 3EJ      0.113500
     37 H10        -4.6470   -2.8850    1.3770 h1        1 3EJ      0.072200
     38 H10A       -5.0840   -3.2160   -0.3770 h1        1 3EJ      0.072200
     39 H17         1.1450   -1.6810   -1.1680 ha        1 3EJ      0.183000
     40 H20         1.0510    2.0540    2.0770 h4        1 3EJ      0.027100
     41 H21        -1.0970    0.8170    1.6190 ha        1 3EJ      0.171000
     42 HN23        4.2530    1.4370   -0.7150 hn        1 3EJ      0.321500
     43 H24         5.7230   -0.8090   -2.0020 h1        1 3EJ      0.072200
     44 H24A        5.8290    0.9220   -2.5820 h1        1 3EJ      0.072200
     45 H27         6.3910    2.6770   -0.6140 ha        1 3EJ      0.137000
     46 H28         8.2820    3.1610    0.9330 ha        1 3EJ      0.136000
     47 H29         9.7860    1.3140    1.6980 ha        1 3EJ      0.145000
     48 H31         7.4600   -1.5220   -0.6180 ha        1 3EJ      0.157000
@<TRIPOS>BOND
     1    1    2 ar  
     2    1    6 ar  
     3    1   33 1   
     4    2    3 ar  
     5    2    7 1   
     6    3    4 ar  
     7    3   34 1   
     8    4    5 ar  
     9    4   35 1   
    10    5    6 ar  
    11    5   10 1   
    12    6   36 1   
    13    7    8 1   
    14    7    9 1   
    15   10   11 1   
    16   10   37 1   
    17   10   38 1   
    18   11   12 1   
    19   11   15 1   
    20   12   13 2   
    21   13   14 1   
    22   14   15 2   
    23   14   16 1   
    24   16   17 ar  
    25   16   21 ar  
    26   17   18 ar  
    27   17   39 1   
    28   18   19 ar  
    29   18   22 1   
    30   19   20 ar  
    31   20   21 ar  
    32   20   40 1   
    33   21   41 1   
    34   22   23 1   
    35   22   26 2   
    36   23   24 1   
    37   23   42 1   
    38   24   25 1   
    39   24   43 1   
    40   24   44 1   
    41   25   27 ar  
    42   25   31 ar  
    43   27   28 ar  
    44   27   45 1   
    45   28   29 ar  
    46   28   46 1   
    47   29   30 ar  
    48   29   47 1   
    49   30   31 ar  
    50   30   32 1   
    51   31   48 1   
@<TRIPOS>SUBSTRUCTURE
     1 3EJ         1 TEMP              0 ****  ****    0 ROOT
