@<TRIPOS>MOLECULE
3EJ
   49    52     1     0     0
SMALL
bcc


@<TRIPOS>ATOM
      1 C1          0.2110    1.7190   -0.4640 ca        1 3EJ     -0.073500
      2 C2          1.6000    1.8360   -0.5910 ca        1 3EJ     -0.118600
      3 C3          2.4330    1.5700    0.5040 ca        1 3EJ     -0.073500
      4 C4          1.8750    1.1850    1.7210 ca        1 3EJ     -0.119500
      5 C5          0.4880    1.0590    1.8470 ca        1 3EJ     -0.096300
      6 C6         -0.3420    1.3310    0.7540 ca        1 3EJ     -0.119500
      7 C7          2.2170    2.2380   -1.8620 c         1 3EJ      0.648700
      8 O8          3.4170    2.3700   -2.1260 o         1 3EJ     -0.546000
      9 O9          1.3420    2.4960   -2.8780 oh        1 3EJ     -0.606100
     10 C10        -0.1070    0.6050    3.1450 c3        1 3EJ      0.112600
     11 N11        -0.7420    1.6950    3.9040 na        1 3EJ      0.201900
     12 N12        -0.1050    2.4350    4.8570 nc        1 3EJ     -0.139800
     13 N13        -0.8870    3.3450    5.2500 nd        1 3EJ     -0.349000
     14 C14        -2.1090    3.2140    4.5020 cd        1 3EJ      0.526500
     15 N15        -1.9790    2.1540    3.6450 nc        1 3EJ     -0.478800
     16 C16        -3.2710    4.0740    4.6640 ca        1 3EJ     -0.084500
     17 C17        -3.1710    5.2790    5.3790 ca        1 3EJ     -0.154300
     18 C18        -4.3260    6.0770    5.5130 ca        1 3EJ      0.349800
     19 N19        -5.5270    5.7420    4.9820 nb        1 3EJ     -0.647000
     20 C20        -5.5980    4.5890    4.2970 ca        1 3EJ      0.387200
     21 C21        -4.5060    3.7190    4.1100 ca        1 3EJ     -0.200300
     22 C22        -4.1710    7.3740    6.2710 c         1 3EJ      0.565600
     23 N23        -5.2680    7.8680    6.9500 n         1 3EJ     -0.535900
     24 C24        -5.2210    9.1440    7.6140 c3        1 3EJ      0.126300
     25 C25        -5.6150   10.3190    6.7600 ca        1 3EJ     -0.100300
     26 O26        -3.0540    7.9270    6.3250 o         1 3EJ     -0.604100
     27 C27        -4.7430   10.7700    5.7630 ca        1 3EJ     -0.126000
     28 C28        -5.0840   11.8740    4.9840 ca        1 3EJ     -0.107000
     29 C29        -6.2910   12.5390    5.1860 ca        1 3EJ     -0.160000
     30 C30        -7.1670   12.0830    6.1890 ca        1 3EJ      0.119900
     31 C31        -6.8290   10.9680    6.9780 ca        1 3EJ     -0.157000
     32 F32        -8.3440   12.7210    6.3970 f         1 3EJ     -0.142900
     33 H1         -0.4370    1.9350   -1.3290 ha        1 3EJ      0.163000
     34 H3          3.5250    1.6710    0.3920 ha        1 3EJ      0.163000
     35 H4          2.5300    0.9850    2.5830 ha        1 3EJ      0.149500
     36 H6         -1.4350    1.2430    0.8590 ha        1 3EJ      0.149500
     37 H10         0.6890    0.1570    3.8060 h1        1 3EJ      0.089200
     38 H10A       -0.8960   -0.1770    2.9460 h1        1 3EJ      0.089200
     39 H17        -2.2210    5.6200    5.8230 ha        1 3EJ      0.190000
     40 H20        -6.5880    4.3470    3.8720 h4        1 3EJ      0.031100
     41 H21        -4.6380    2.7880    3.5410 ha        1 3EJ      0.161000
     42 HN23       -6.1700    7.5270    6.7080 hn        1 3EJ      0.325500
     43 H24        -5.9100    9.0810    8.5060 h1        1 3EJ      0.072700
     44 H24A       -4.1680    9.3140    7.9890 h1        1 3EJ      0.072700
     45 H27        -3.7860   10.2450    5.6040 ha        1 3EJ      0.160000
     46 H28        -4.3950   12.2260    4.2010 ha        1 3EJ      0.140000
     47 H29        -6.5670   13.4110    4.5770 ha        1 3EJ      0.148000
     48 H31        -7.5250   10.6250    7.7570 ha        1 3EJ      0.146000
     49 H232        1.8410    2.7560   -3.6700 ho        1 3EJ      0.450000
@<TRIPOS>BOND
     1    1    2 ar  
     2    1    6 ar  
     3    1   33 1   
     4    2    3 ar  
     5    2    7 1   
     6    3    4 ar  
     7    3   34 1   
     8    4    5 ar  
     9    4   35 1   
    10    5    6 ar  
    11    5   10 1   
    12    6   36 1   
    13    7    8 2   
    14    7    9 1   
    15    9   49 1   
    16   10   11 1   
    17   10   37 1   
    18   10   38 1   
    19   11   12 1   
    20   11   15 1   
    21   12   13 2   
    22   13   14 1   
    23   14   15 2   
    24   14   16 1   
    25   16   17 ar  
    26   16   21 ar  
    27   17   18 ar  
    28   17   39 1   
    29   18   19 ar  
    30   18   22 1   
    31   19   20 ar  
    32   20   21 ar  
    33   20   40 1   
    34   21   41 1   
    35   22   23 1   
    36   22   26 2   
    37   23   24 1   
    38   23   42 1   
    39   24   25 1   
    40   24   43 1   
    41   24   44 1   
    42   25   27 ar  
    43   25   31 ar  
    44   27   28 ar  
    45   27   45 1   
    46   28   29 ar  
    47   28   46 1   
    48   29   30 ar  
    49   29   47 1   
    50   30   31 ar  
    51   30   32 1   
    52   31   48 1   
@<TRIPOS>SUBSTRUCTURE
     1 3EJ         1 TEMP              0 ****  ****    0 ROOT
