@<TRIPOS>MOLECULE
3EJ
   48    43     1     0     0
SMALL
bcc


@<TRIPOS>ATOM
      1 C1          3.9180   -6.9430   -1.3890 c1        1 3EJ     -0.118000
      2 C2          5.1370   -6.5310   -0.8730 c1        1 3EJ     -0.076000
      3 C3          5.1790   -5.5650    0.1200 c1        1 3EJ     -0.116000
      4 C4          4.0010   -5.0100    0.5970 c1        1 3EJ     -0.127000
      5 C5          2.7820   -5.4220    0.0820 c1        1 3EJ     -0.170000
      6 C6          2.7400   -6.3880   -0.9110 c2        1 3EJ     -0.122000
      7 C7          6.4250   -7.0660   -1.4610 c2        1 3EJ      0.355000
      8 O8          7.0140   -6.4280   -2.3730 o         1 3EJ     -0.557000
      9 O9          6.9070   -8.1500   -1.0400 o         1 3EJ     -0.557000
     10 C10         1.4930   -4.8450    0.6320 c2        1 3EJ      0.064000
     11 N11         1.2380   -3.5830    0.0210 na        1 3EJ     -0.127000
     12 N12         2.0870   -2.9010   -0.7650 n2        1 3EJ      0.003000
     13 N13         1.4960   -1.7410   -1.1060 n2        1 3EJ     -0.099000
     14 C14         0.2830   -1.7070   -0.5300 c2        1 3EJ     -0.147000
     15 N15         0.1230   -2.8450    0.1670 n2        1 3EJ     -0.025000
     16 C16        -0.6320   -0.6640   -0.6120 c1        1 3EJ      0.043000
     17 C17        -0.3970    0.5050    0.0510 c1        1 3EJ     -0.094000
     18 C18        -1.3030    1.5510   -0.0450 c1        1 3EJ     -0.079000
     19 N19        -2.4280    1.4110   -0.8010 n2        1 3EJ     -0.136000
     20 C20        -2.6640    0.2430   -1.4650 c1        1 3EJ     -0.081000
     21 C21        -1.7590   -0.8030   -1.3700 c1        1 3EJ     -0.129000
     22 C22        -1.0250    2.8620    0.6630 c1        1 3EJ      0.351000
     23 N23        -1.9490    3.9350    0.5600 n3        1 3EJ     -0.350000
     24 C24        -1.8000    5.0850    1.3860 c3        1 3EJ      0.004000
     25 C25        -2.8880    6.0880    1.0580 c2        1 3EJ     -0.089000
     26 O26        -0.0090    2.9960    1.3150 o         1 3EJ     -0.372000
     27 C27        -2.6360    7.1230    0.1710 c2        1 3EJ     -0.124000
     28 C28        -3.6220    8.0590   -0.0990 c1        1 3EJ     -0.107000
     29 C29        -4.8590    7.9600    0.5170 c1        1 3EJ     -0.163000
     30 C30        -5.1110    6.9250    1.4040 c1        1 3EJ      0.080000
     31 C31        -4.1260    5.9890    1.6750 c1        1 3EJ     -0.158000
     32 F32        -6.3130    6.8190    1.9860 f         1 3EJ     -0.113000
     33 H1          3.8870   -7.6460   -2.0650 ha        1 3EJ      0.158000
     34 H3          6.0350   -5.2960    0.5030 ha        1 3EJ      0.158000
     35 H4          4.0300   -4.3300    1.2970 ha        1 3EJ      0.113000
     36 H6          1.8810   -6.7010   -1.2520 ha        1 3EJ      0.114000
     37 H10         0.7530   -5.4570    0.4380 h4        1 3EJ      0.111000
     38 H10A        1.5750   -4.7290    1.6010 h4        1 3EJ      0.111000
     39 H17         0.4090    0.6050    0.5930 ha        1 3EJ      0.186000
     40 H20        -3.4700    0.1440   -2.0050 ha        1 3EJ      0.165000
     41 H21        -1.9280   -1.6390   -1.8450 ha        1 3EJ      0.172000
     42 HN23       -2.6260    3.8970   -0.0510 hn        1 3EJ      0.239000
     43 H24        -1.8720    4.8230    2.3270 h1        1 3EJ      0.109000
     44 H24A       -0.9240    5.4910    1.2260 h1        1 3EJ      0.109000
     45 H27        -1.7650    7.1930   -0.2630 ha        1 3EJ      0.164000
     46 H28        -3.4440    8.7880   -0.7230 ha        1 3EJ      0.140000
     47 H29        -5.5530    8.6190    0.3270 ha        1 3EJ      0.145000
     48 H31        -4.2920    5.2790    2.3230 ha        1 3EJ      0.144000
@<TRIPOS>BOND
     1    1    6 1   
     2    1   33 1   
     3    2    3 1   
     4    2    7 1   
     5    3   34 1   
     6    4    5 1   
     7    4   35 1   
     8    5    6 1   
     9    6   36 1   
    10    7    8 1   
    11    7    9 1   
    12   10   11 1   
    13   10   37 1   
    14   10   38 1   
    15   11   12 1   
    16   11   15 1   
    17   12   13 1   
    18   13   14 1   
    19   14   15 1   
    20   14   16 1   
    21   16   21 1   
    22   17   18 1   
    23   17   39 1   
    24   18   19 1   
    25   19   20 1   
    26   20   40 1   
    27   21   41 1   
    28   22   23 1   
    29   22   26 1   
    30   23   24 1   
    31   23   42 1   
    32   24   25 1   
    33   24   43 1   
    34   24   44 1   
    35   25   27 1   
    36   25   31 1   
    37   27   28 1   
    38   27   45 1   
    39   28   46 1   
    40   29   30 1   
    41   29   47 1   
    42   30   32 1   
    43   31   48 1   
@<TRIPOS>SUBSTRUCTURE
     1 3EJ         1 TEMP              0 ****  ****    0 ROOT
