@<TRIPOS>MOLECULE
3EK
   59    62     1     0     0
SMALL
bcc


@<TRIPOS>ATOM
      1 C1         -0.0740    0.1810    0.2790 c3        1 3EK     -0.092700
      2 C2          1.0640   -0.5940   -0.3630 c3        1 3EK     -0.076900
      3 C3          2.0770   -1.0200    0.6800 c3        1 3EK     -0.073400
      4 C4          1.4250   -1.5230    1.9630 c3        1 3EK     -0.102700
      5 C5         -0.0440   -1.8670    1.7620 c3        1 3EK     -0.073400
      6 C6         -0.8700   -0.7180    1.2200 c3        1 3EK     -0.076900
      7 C7         -1.0290    0.7610   -0.7730 c3        1 3EK      0.058300
      8 N8         -0.4890    1.8690   -1.5390 na        1 3EK     -0.045400
      9 N9         -0.4940    3.1460   -1.1370 nc        1 3EK     -0.488800
     10 C10         0.1790    3.8330   -2.1220 cd        1 3EK      0.550500
     11 N11         0.6310    2.9710   -3.1550 nd        1 3EK     -0.673000
     12 C12         0.2090    1.7550   -2.7620 cc        1 3EK      0.400400
     13 C13         0.4030    5.2760   -2.1210 ca        1 3EK     -0.072500
     14 C14         1.3460    5.8510   -2.9810 ca        1 3EK     -0.196300
     15 C15         1.5370    7.2520   -2.9530 ca        1 3EK      0.403600
     16 N16         0.8470    8.0660   -2.1210 nb        1 3EK     -0.660000
     17 C17        -0.0610    7.4960   -1.2970 ca        1 3EK      0.353800
     18 C18        -0.3240    6.1120   -1.2600 ca        1 3EK     -0.171300
     19 C19         2.5450    7.8570   -3.8780 c3        1 3EK     -0.148400
     20 C20        -0.8770    8.3650   -0.3690 c         1 3EK      0.566600
     21 O21        -2.0100    7.9900   -0.0040 o         1 3EK     -0.611100
     22 N22        -0.3010    9.5240    0.1150 ns        1 3EK     -0.536900
     23 C23        -1.0500   10.4480    0.9260 c3        1 3EK      0.129300
     24 C24        -1.7970   11.5050    0.1620 ca        1 3EK     -0.139300
     25 C25        -2.9380   11.1540   -0.5700 ca        1 3EK     -0.091000
     26 C26        -3.6590   12.1200   -1.2610 ca        1 3EK     -0.169000
     27 C27        -3.2340   13.4620   -1.2200 ca        1 3EK      0.128900
     28 C28        -2.0880   13.8210   -0.4870 ca        1 3EK     -0.169000
     29 C29        -1.3780   12.8370    0.1960 ca        1 3EK     -0.091000
     30 C30         1.5760   -0.5270    3.0820 c         1 3EK      0.634100
     31 O31         1.9220    0.6560    3.0510 o         1 3EK     -0.546000
     32 F32        -3.9300   14.4110   -1.8890 f         1 3EK     -0.142900
     33 O33         1.2960   -1.0460    4.3130 oh        1 3EK     -0.611100
     34 H1          0.3730    1.0210    0.8860 hc        1 3EK      0.093700
     35 H2          1.5770    0.0410   -1.1330 hc        1 3EK      0.046450
     36 H2A         0.6540   -1.4950   -0.8900 hc        1 3EK      0.046450
     37 H3          2.7510   -0.1530    0.9160 hc        1 3EK      0.059950
     38 H3A         2.7170   -1.8360    0.2530 hc        1 3EK      0.059950
     39 H4          1.9570   -2.4590    2.3020 hc        1 3EK      0.083700
     40 H5         -0.0960   -2.7320    1.0480 hc        1 3EK      0.059950
     41 H5A        -0.4770   -2.2090    2.7400 hc        1 3EK      0.059950
     42 H6         -1.7630   -1.1430    0.6910 hc        1 3EK      0.046450
     43 H6A        -1.2570   -0.0950    2.0690 hc        1 3EK      0.046450
     44 H7         -1.9670    1.1110   -0.2540 h1        1 3EK      0.071200
     45 H7A        -1.3030   -0.0430   -1.5140 h1        1 3EK      0.071200
     46 H12         0.3500    0.8080   -3.2920 h5        1 3EK      0.071100
     47 H14         1.9340    5.2330   -3.6750 ha        1 3EK      0.165000
     48 H18        -1.0920    5.7230   -0.5730 ha        1 3EK      0.183000
     49 H19         2.0790    8.6620   -4.4990 hc        1 3EK      0.054700
     50 H19A        2.9610    7.0750   -4.5600 hc        1 3EK      0.054700
     51 H19B        3.3860    8.3060   -3.2930 hc        1 3EK      0.054700
     52 HN22        1.4120   -0.3580    4.9900 ho        1 3EK      0.446000
     53 H23        -1.7940    9.8590    1.5400 h1        1 3EK      0.070200
     54 H23A       -0.3190   10.9410    1.6300 h1        1 3EK      0.070200
     55 H25        -3.2600   10.0980   -0.5920 ha        1 3EK      0.148500
     56 H26        -4.5560   11.8500   -1.8370 ha        1 3EK      0.148500
     57 H28        -1.7640   14.8700   -0.4610 ha        1 3EK      0.148500
     58 H29        -0.4810   13.1190    0.7700 ha        1 3EK      0.148500
     59 H222        0.4920    9.8930   -0.3590 hn        1 3EK      0.324500
@<TRIPOS>BOND
     1    1    2 1   
     2    1    6 1   
     3    1    7 1   
     4    1   34 1   
     5    2    3 1   
     6    2   35 1   
     7    2   36 1   
     8    3    4 1   
     9    3   37 1   
    10    3   38 1   
    11    4    5 1   
    12    4   30 1   
    13    4   39 1   
    14    5    6 1   
    15    5   40 1   
    16    5   41 1   
    17    6   42 1   
    18    6   43 1   
    19    7    8 1   
    20    7   44 1   
    21    7   45 1   
    22    8    9 1   
    23    8   12 1   
    24    9   10 2   
    25   10   11 1   
    26   10   13 1   
    27   11   12 2   
    28   12   46 1   
    29   13   14 ar  
    30   13   18 ar  
    31   14   15 ar  
    32   14   47 1   
    33   15   16 ar  
    34   15   19 1   
    35   16   17 ar  
    36   17   18 ar  
    37   17   20 1   
    38   18   48 1   
    39   19   49 1   
    40   19   50 1   
    41   19   51 1   
    42   20   21 2   
    43   20   22 1   
    44   22   23 1   
    45   22   59 1   
    46   23   24 1   
    47   23   53 1   
    48   23   54 1   
    49   24   25 ar  
    50   24   29 ar  
    51   25   26 ar  
    52   25   55 1   
    53   26   27 ar  
    54   26   56 1   
    55   27   28 ar  
    56   27   32 1   
    57   28   29 ar  
    58   28   57 1   
    59   29   58 1   
    60   30   31 2   
    61   30   33 1   
    62   33   52 1   
@<TRIPOS>SUBSTRUCTURE
     1 3EK         1 TEMP              0 ****  ****    0 ROOT
