@<TRIPOS>MOLECULE
3EK
   58    61     1     0     0
SMALL
bcc


@<TRIPOS>ATOM
      1 C1         -5.1740    0.1960   -0.6770 c3        1 3EK     -0.079700
      2 C2         -5.9980   -0.8250    0.0910 c3        1 3EK     -0.073400
      3 C3         -7.0850   -0.1540    0.9070 c3        1 3EK     -0.060900
      4 C4         -7.9810    0.7190    0.0510 c3        1 3EK     -0.189700
      5 C5         -7.1580    1.7280   -0.7260 c3        1 3EK     -0.060900
      6 C6         -6.0760    1.0610   -1.5500 c3        1 3EK     -0.073400
      7 C7         -4.1460   -0.4830   -1.5930 c3        1 3EK      0.045300
      8 N8         -3.0640   -1.1740   -0.9050 na        1 3EK     -0.024400
      9 N9         -1.8400   -0.6790   -0.7080 nc        1 3EK     -0.491800
     10 C10        -1.1750   -1.6470    0.0150 cd        1 3EK      0.523500
     11 N11        -1.9980   -2.7670    0.2850 nd        1 3EK     -0.684000
     12 C12        -3.1710   -2.4420   -0.2950 cc        1 3EK      0.402400
     13 C13         0.2100   -1.5400    0.4590 ca        1 3EK     -0.055500
     14 C14         0.6780   -2.3200    1.5220 ca        1 3EK     -0.199300
     15 C15         2.0250   -2.1880    1.9340 ca        1 3EK      0.398600
     16 N16         2.8880   -1.3290    1.3450 nb        1 3EK     -0.668000
     17 C17         2.4210   -0.5850    0.3150 ca        1 3EK      0.348800
     18 C18         1.1010   -0.6540   -0.1680 ca        1 3EK     -0.172300
     19 C19         2.4980   -3.0230    3.0810 c3        1 3EK     -0.147400
     20 C20         3.3580    0.3640   -0.3890 c         1 3EK      0.570600
     21 O21         3.2520    0.5610   -1.6170 o         1 3EK     -0.610100
     22 N22         4.2740    1.0570    0.3830 n         1 3EK     -0.541900
     23 C23         5.2550    1.9220   -0.2150 c3        1 3EK      0.130300
     24 C24         6.5490    1.2570   -0.5930 ca        1 3EK     -0.134300
     25 C25         6.5780    0.3610   -1.6680 ca        1 3EK     -0.091500
     26 C26         7.7700   -0.2430   -2.0530 ca        1 3EK     -0.170000
     27 C27         8.9540    0.0550   -1.3520 ca        1 3EK      0.122900
     28 C28         8.9310    0.9540   -0.2700 ca        1 3EK     -0.170000
     29 C29         7.7260    1.5460    0.1010 ca        1 3EK     -0.091500
     30 C30        -8.9950    1.4660    0.9590 c         1 3EK      0.915600
     31 O31        -8.5420    2.2560    1.8340 o         1 3EK     -0.840800
     32 F32        10.1210   -0.5260   -1.7200 f         1 3EK     -0.146900
     33 O33       -10.2220    1.2380    0.7670 o         1 3EK     -0.840800
     34 H1         -4.6450    0.8620    0.0600 hc        1 3EK      0.072700
     35 H2         -6.4640   -1.5460   -0.6320 hc        1 3EK      0.020950
     36 H2A        -5.3300   -1.4130    0.7740 hc        1 3EK      0.020950
     37 H3         -7.7050   -0.9400    1.4110 hc        1 3EK      0.049950
     38 H3A        -6.6260    0.4820    1.7100 hc        1 3EK      0.049950
     39 H4         -8.5570    0.0750   -0.6650 hc        1 3EK      0.034700
     40 H5         -7.8320    2.3100   -1.4060 hc        1 3EK      0.049950
     41 H5A        -6.7010    2.4520   -0.0000 hc        1 3EK      0.049950
     42 H6         -5.4570    1.8410   -2.0660 hc        1 3EK      0.020950
     43 H6A        -6.5470    0.4220   -2.3420 hc        1 3EK      0.020950
     44 H7         -4.6670   -1.2580   -2.2250 h1        1 3EK      0.066700
     45 H7A        -3.6960    0.2950   -2.2730 h1        1 3EK      0.066700
     46 H12        -4.0890   -3.0390   -0.3100 h5        1 3EK      0.078100
     47 H14         0.0160   -3.0300    2.0390 ha        1 3EK      0.166000
     48 H18         0.7960   -0.0290   -1.0220 ha        1 3EK      0.180000
     49 H19         3.5850   -3.2660    2.9990 hc        1 3EK      0.052367
     50 H19A        2.3310   -2.4660    4.0370 hc        1 3EK      0.052367
     51 H19B        1.9200   -3.9780    3.1180 hc        1 3EK      0.052367
     52 HN22        4.4770    0.7150    1.2940 hn        1 3EK      0.323500
     53 H23         4.8050    2.3780   -1.1460 h1        1 3EK      0.068700
     54 H23A        5.4630    2.7510    0.5220 h1        1 3EK      0.068700
     55 H25         5.6410    0.1380   -2.2090 ha        1 3EK      0.150000
     56 H26         7.7980   -0.9480   -2.8960 ha        1 3EK      0.146500
     57 H28         9.8600    1.1790    0.2710 ha        1 3EK      0.146500
     58 H29         7.7090    2.2480    0.9480 ha        1 3EK      0.150000
@<TRIPOS>BOND
     1    1    2 1   
     2    1    6 1   
     3    1    7 1   
     4    1   34 1   
     5    2    3 1   
     6    2   35 1   
     7    2   36 1   
     8    3    4 1   
     9    3   37 1   
    10    3   38 1   
    11    4    5 1   
    12    4   30 1   
    13    4   39 1   
    14    5    6 1   
    15    5   40 1   
    16    5   41 1   
    17    6   42 1   
    18    6   43 1   
    19    7    8 1   
    20    7   44 1   
    21    7   45 1   
    22    8    9 1   
    23    8   12 1   
    24    9   10 2   
    25   10   11 1   
    26   10   13 1   
    27   11   12 2   
    28   12   46 1   
    29   13   14 ar  
    30   13   18 ar  
    31   14   15 ar  
    32   14   47 1   
    33   15   16 ar  
    34   15   19 1   
    35   16   17 ar  
    36   17   18 ar  
    37   17   20 1   
    38   18   48 1   
    39   19   49 1   
    40   19   50 1   
    41   19   51 1   
    42   20   21 2   
    43   20   22 1   
    44   22   23 1   
    45   22   52 1   
    46   23   24 1   
    47   23   53 1   
    48   23   54 1   
    49   24   25 ar  
    50   24   29 ar  
    51   25   26 ar  
    52   25   55 1   
    53   26   27 ar  
    54   26   56 1   
    55   27   28 ar  
    56   27   32 1   
    57   28   29 ar  
    58   28   57 1   
    59   29   58 1   
    60   30   31 1   
    61   30   33 1   
@<TRIPOS>SUBSTRUCTURE
     1 3EK         1 TEMP              0 ****  ****    0 ROOT
