@<TRIPOS>MOLECULE
3EK
   59    62     1     0     0
SMALL
bcc


@<TRIPOS>ATOM
      1 C1         -0.2300    0.2710    0.0820 c3        1 3EK     -0.088700
      2 C2          1.2660   -0.0040    0.1050 c3        1 3EK     -0.074900
      3 C3          1.6690   -0.9270    1.2380 c3        1 3EK     -0.072400
      4 C4          0.8030   -0.7730    2.4820 c3        1 3EK     -0.100700
      5 C5         -0.6690   -1.0180    2.1780 c3        1 3EK     -0.072400
      6 C6         -0.9980   -0.8850    0.7040 c3        1 3EK     -0.074900
      7 C7         -0.7470    0.4970   -1.3440 c3        1 3EK      0.060300
      8 N8         -0.1600    1.6350   -2.0290 na        1 3EK     -0.045400
      9 N9         -0.3230    2.9110   -1.6600 nc        1 3EK     -0.490800
     10 C10         0.4230    3.6400   -2.5580 cd        1 3EK      0.548500
     11 N11         1.0720    2.8070   -3.5060 nd        1 3EK     -0.673000
     12 C12         0.6980    1.5650   -3.1490 cc        1 3EK      0.400400
     13 C13         0.5410    5.0960   -2.5510 ca        1 3EK     -0.073500
     14 C14         1.1210    5.7700   -3.6310 ca        1 3EK     -0.196300
     15 C15         1.2200    7.1800   -3.5890 ca        1 3EK      0.403600
     16 N16         0.7800    7.9110   -2.5390 nb        1 3EK     -0.660000
     17 C17         0.2220    7.2460   -1.5010 ca        1 3EK      0.353800
     18 C18         0.0750    5.8450   -1.4600 ca        1 3EK     -0.172300
     19 C19         1.8400    7.8910   -4.7500 c3        1 3EK     -0.148400
     20 C20        -0.3040    8.0170   -0.3130 c         1 3EK      0.566600
     21 O21        -1.1900    7.5130    0.4080 o         1 3EK     -0.612100
     22 N22         0.2740    9.2340   -0.0120 n         1 3EK     -0.536900
     23 C23        -0.2420   10.0650    1.0440 c3        1 3EK      0.129300
     24 C24        -1.3190   11.0280    0.6290 ca        1 3EK     -0.139300
     25 C25        -2.5980   10.5470    0.3270 ca        1 3EK     -0.090500
     26 C26        -3.6160   11.4220   -0.0340 ca        1 3EK     -0.169000
     27 C27        -3.3500   12.8040   -0.0920 ca        1 3EK      0.128900
     28 C28        -2.0670   13.2940    0.2100 ca        1 3EK     -0.169000
     29 C29        -1.0610   12.4000    0.5660 ca        1 3EK     -0.090500
     30 C30         1.0870    0.5550    3.1290 c         1 3EK      0.634100
     31 O31         2.1250    0.8980    3.7040 o         1 3EK     -0.553000
     32 F32        -4.3350   13.6660   -0.4410 f         1 3EK     -0.141900
     33 O33         0.0900    1.4820    3.0840 oh        1 3EK     -0.604100
     34 H1         -0.4340    1.1940    0.6990 hc        1 3EK      0.093700
     35 H2          1.8130    0.9710    0.2010 hc        1 3EK      0.046450
     36 H2A         1.5910   -0.4680   -0.8640 hc        1 3EK      0.046450
     37 H3          2.7420   -0.7370    1.5100 hc        1 3EK      0.058950
     38 H3A         1.5890   -1.9940    0.8980 hc        1 3EK      0.058950
     39 H4          1.1440   -1.5410    3.2390 hc        1 3EK      0.083700
     40 H5         -1.3030   -0.3020    2.7670 hc        1 3EK      0.058950
     41 H5A        -0.9400   -2.0540    2.5140 hc        1 3EK      0.058950
     42 H6         -0.7430   -1.8360    0.1670 hc        1 3EK      0.046450
     43 H6A        -2.1010   -0.7190    0.5880 hc        1 3EK      0.046450
     44 H7         -0.5300   -0.4110   -1.9740 h1        1 3EK      0.067200
     45 H7A        -1.8640    0.6500   -1.3020 h1        1 3EK      0.067200
     46 H12         0.9850    0.6270   -3.6340 h5        1 3EK      0.072100
     47 H14         1.4990    5.2230   -4.5080 ha        1 3EK      0.166000
     48 H18        -0.4070    5.3770   -0.5870 ha        1 3EK      0.183000
     49 H19         1.1530    8.6810   -5.1430 hc        1 3EK      0.055033
     50 H19A        2.7960    8.3800   -4.4370 hc        1 3EK      0.055033
     51 H19B        2.0600    7.1670   -5.5720 hc        1 3EK      0.055033
     52 HN22        0.8090    9.6930   -0.7140 hn        1 3EK      0.325500
     53 H23         0.6300   10.6400    1.4710 h1        1 3EK      0.069700
     54 H23A       -0.6570    9.3950    1.8540 h1        1 3EK      0.069700
     55 H25        -2.7910    9.4610    0.3770 ha        1 3EK      0.148500
     56 H26        -4.6220   11.0500   -0.2720 ha        1 3EK      0.149000
     57 H28        -1.8700   14.3740    0.1620 ha        1 3EK      0.149000
     58 H29        -0.0560   12.7840    0.8030 ha        1 3EK      0.148500
     59 H222        0.3840    2.2980    3.5240 ho        1 3EK      0.448000
@<TRIPOS>BOND
     1    1    2 1   
     2    1    6 1   
     3    1    7 1   
     4    1   34 1   
     5    2    3 1   
     6    2   35 1   
     7    2   36 1   
     8    3    4 1   
     9    3   37 1   
    10    3   38 1   
    11    4    5 1   
    12    4   30 1   
    13    4   39 1   
    14    5    6 1   
    15    5   40 1   
    16    5   41 1   
    17    6   42 1   
    18    6   43 1   
    19    7    8 1   
    20    7   44 1   
    21    7   45 1   
    22    8    9 1   
    23    8   12 1   
    24    9   10 2   
    25   10   11 1   
    26   10   13 1   
    27   11   12 2   
    28   12   46 1   
    29   13   14 ar  
    30   13   18 ar  
    31   14   15 ar  
    32   14   47 1   
    33   15   16 ar  
    34   15   19 1   
    35   16   17 ar  
    36   17   18 ar  
    37   17   20 1   
    38   18   48 1   
    39   19   49 1   
    40   19   50 1   
    41   19   51 1   
    42   20   21 2   
    43   20   22 1   
    44   22   23 1   
    45   22   52 1   
    46   23   24 1   
    47   23   53 1   
    48   23   54 1   
    49   24   25 ar  
    50   24   29 ar  
    51   25   26 ar  
    52   25   55 1   
    53   26   27 ar  
    54   26   56 1   
    55   27   28 ar  
    56   27   32 1   
    57   28   29 ar  
    58   28   57 1   
    59   29   58 1   
    60   30   31 2   
    61   30   33 1   
    62   33   59 1   
@<TRIPOS>SUBSTRUCTURE
     1 3EK         1 TEMP              0 ****  ****    0 ROOT
