@<TRIPOS>MOLECULE
3EK
   58    55     1     0     0
SMALL
bcc


@<TRIPOS>ATOM
      1 C1          0.6110    4.8370    1.1020 c3        1 3EK     -0.108000
      2 C2          0.3910    5.9910    2.0420 c3        1 3EK     -0.152500
      3 C3         -0.3350    7.1540    1.3920 c3        1 3EK     -0.144000
      4 C4          0.3330    7.6280    0.0730 c3        1 3EK     -0.180000
      5 C5          0.5420    6.3880   -0.8670 c3        1 3EK     -0.144000
      6 C6          1.2540    5.2400   -0.1860 c3        1 3EK     -0.152500
      7 C7         -0.7700    4.1790    0.7860 c3        1 3EK     -0.021000
      8 N8         -0.6690    2.7420    0.9430 n3        1 3EK     -0.117000
      9 N9         -1.0500    1.8170    0.0330 n2        1 3EK     -0.049000
     10 C10        -0.9230    0.6000    0.5990 c2        1 3EK     -0.117000
     11 N11        -0.4650    0.7700    1.8540 n2        1 3EK     -0.152000
     12 C12        -0.3080    2.0940    2.0660 c1        1 3EK     -0.104000
     13 C13        -1.2360   -0.6430   -0.0150 c1        1 3EK      0.052000
     14 C14        -2.4840   -0.8560   -0.5360 c1        1 3EK     -0.141000
     15 C15        -2.7890   -2.0740   -1.1390 c1        1 3EK     -0.021000
     16 N16        -1.8410   -3.0580   -1.2090 n1        1 3EK     -0.144000
     17 C17        -0.5970   -2.8480   -0.6890 c1        1 3EK     -0.074000
     18 C18        -0.2890   -1.6300   -0.0860 c1        1 3EK     -0.102000
     19 C19        -4.2070   -2.3500   -1.6200 c3        1 3EK     -0.173000
     20 C20         0.4410   -3.9720   -0.7120 c2        1 3EK      0.353000
     21 O21         1.5480   -3.7850   -0.2490 o         1 3EK     -0.373000
     22 N22         0.0710   -5.2770   -1.1780 n         1 3EK     -0.352000
     23 C23         1.0500   -6.1160   -1.8140 c3        1 3EK      0.007000
     24 C24         1.6090   -7.1050   -0.7980 c2        1 3EK     -0.127000
     25 C25         2.9540   -7.0620   -0.4560 c2        1 3EK     -0.085000
     26 C26         3.4860   -8.0220    0.3940 c1        1 3EK     -0.166000
     27 C27         2.6730   -9.0260    0.9030 c1        1 3EK      0.088000
     28 C28         1.3280   -9.0700    0.5620 c1        1 3EK     -0.173000
     29 C29         0.7960   -8.1090   -0.2890 c1        1 3EK     -0.098000
     30 C30        -0.4490    8.7520   -0.6070 c2        1 3EK      0.335000
     31 O31        -1.6210    8.5440   -1.0180 o         1 3EK     -0.575500
     32 F32         3.1860   -9.9490    1.7280 f         1 3EK     -0.112000
     33 O33         0.0960    9.8730   -0.7940 o         1 3EK     -0.575500
     34 H1          1.1780    4.1780    1.5420 hc        1 3EK      0.065000
     35 H2         -0.1350    5.6790    2.8050 hc        1 3EK      0.066750
     36 H2A         1.2610    6.3030    2.3650 hc        1 3EK      0.066750
     37 H3         -1.2530    6.8820    1.1990 hc        1 3EK      0.087000
     38 H3A        -0.3540    7.9020    2.0200 hc        1 3EK      0.087000
     39 H4          1.1850    8.0740    0.2550 hc        1 3EK      0.076000
     40 H5         -0.3320    6.0760   -1.1750 hc        1 3EK      0.087000
     41 H5A         1.0670    6.6670   -1.6440 hc        1 3EK      0.087000
     42 H6          2.1780    5.5060   -0.0070 hc        1 3EK      0.066750
     43 H6A         1.2590    4.4710   -0.7890 hc        1 3EK      0.066750
     44 H7         -1.4450    4.5270    1.4020 h1        1 3EK      0.128500
     45 H7A        -1.0280    4.3890   -0.1330 h1        1 3EK      0.128500
     46 H12         0.0120    2.5100    2.8900 DU        1 3EK      0.207000
     47 H14        -3.1590   -0.1550   -0.4860 ha        1 3EK      0.170000
     48 H18         0.5980   -1.4800    0.2850 ha        1 3EK      0.184000
     49 H19        -4.2790   -3.2870   -1.9060 hc        1 3EK      0.093333
     50 H19A       -4.8400   -2.1820   -0.8890 hc        1 3EK      0.093333
     51 H19B       -4.4170   -1.7610   -2.3760 hc        1 3EK      0.093333
     52 HN22       -0.7950   -5.5560   -1.1130 hn        1 3EK      0.237000
     53 H23         1.7770   -5.5610   -2.1640 h1        1 3EK      0.106500
     54 H23A        0.6290   -6.6070   -2.5520 h1        1 3EK      0.106500
     55 H25         3.5260   -6.3560   -0.8130 ha        1 3EK      0.166000
     56 H26         4.4210   -7.9610    0.6760 ha        1 3EK      0.149000
     57 H28         0.7570   -9.7760    0.9190 ha        1 3EK      0.144000
     58 H29        -0.1490   -8.1400   -0.5290 ha        1 3EK      0.133000
@<TRIPOS>BOND
     1    1    2 1   
     2    1    6 1   
     3    1    7 1   
     4    1   34 1   
     5    2    3 1   
     6    2   35 1   
     7    2   36 1   
     8    3    4 1   
     9    3   37 1   
    10    3   38 1   
    11    4    5 1   
    12    4   30 1   
    13    4   39 1   
    14    5    6 1   
    15    5   40 1   
    16    5   41 1   
    17    6   42 1   
    18    6   43 1   
    19    7    8 1   
    20    7   44 1   
    21    7   45 1   
    22    8    9 1   
    23    8   12 1   
    24    9   10 1   
    25   10   11 1   
    26   10   13 1   
    27   11   12 1   
    28   13   18 1   
    29   14   15 1   
    30   14   47 1   
    31   15   19 1   
    32   16   17 1   
    33   17   20 1   
    34   18   48 1   
    35   19   49 1   
    36   19   50 1   
    37   19   51 1   
    38   20   21 1   
    39   20   22 1   
    40   22   23 1   
    41   22   52 1   
    42   23   24 1   
    43   23   53 1   
    44   23   54 1   
    45   24   25 1   
    46   24   29 1   
    47   25   26 1   
    48   25   55 1   
    49   26   56 1   
    50   27   28 1   
    51   27   32 1   
    52   28   57 1   
    53   29   58 1   
    54   30   31 1   
    55   30   33 1   
@<TRIPOS>SUBSTRUCTURE
     1 3EK         1 TEMP              0 ****  ****    0 ROOT
