@<TRIPOS>MOLECULE
3EL
   72    77     1     0     0
SMALL
bcc


@<TRIPOS>ATOM
      1 C21        -0.8510    0.3520    1.0830 c3        1 3EL     -0.102900
      2 C22         0.4010   -0.4480    1.3750 c3        1 3EL     -0.096900
      3 C23         1.2250    0.2720    2.4460 c3        1 3EL      0.115500
      4 N6          2.4550   -0.5240    2.8050 n4        1 3EL     -0.843600
      5 C24         1.6020    1.6790    1.9710 c3        1 3EL     -0.096900
      6 C25         0.3420    2.4690    1.6830 c3        1 3EL     -0.102900
      7 C20        -0.4960    1.7700    0.5940 c3        1 3EL      0.203500
      8 N5         -1.6410    2.5840    0.2410 nh        1 3EL     -0.802900
      9 C15        -2.4300    2.1960   -0.8790 ca        1 3EL      0.836900
     10 N3         -3.7710    2.5410   -0.8230 nb        1 3EL     -0.713000
     11 N4         -1.8110    1.5850   -1.9580 nb        1 3EL     -0.744000
     12 C14        -2.5840    1.3790   -3.0390 ca        1 3EL      0.455200
     13 C13        -3.9450    1.7180   -3.0940 ca        1 3EL     -0.380600
     14 C12        -4.5090    2.2900   -1.9290 cp        1 3EL      0.553800
     15 C7         -5.9430    2.6120   -1.9020 cp        1 3EL     -0.300800
     16 C8         -6.4910    3.5300   -2.8040 ca        1 3EL     -0.044000
     17 C9         -7.8470    3.8440   -2.7240 ca        1 3EL     -0.276300
     18 C10        -8.6220    3.2270   -1.7240 ca        1 3EL      0.445200
     19 N2         -8.1400    2.3280   -0.8490 nb        1 3EL     -0.703000
     20 C11        -6.8210    2.0220   -0.9500 ca        1 3EL      0.653600
     21 O1         -6.2540    1.0380   -0.1520 os        1 3EL     -0.367400
     22 C3         -6.9390    0.6690    1.0110 ca        1 3EL      0.081100
     23 C4         -6.9410    1.5030    2.1060 ca        1 3EL     -0.096000
     24 C5         -7.4650    1.0480    3.3290 ca        1 3EL     -0.195000
     25 C1         -7.5100   -0.6350    1.0640 ca        1 3EL     -0.011000
     26 C19        -7.5350   -1.4790   -0.0800 ca        1 3EL     -0.112000
     27 C18        -8.1070   -2.7250   -0.0200 ca        1 3EL     -0.120000
     28 C17        -8.6800   -3.1770    1.1900 ca        1 3EL     -0.123000
     29 C16        -8.6610   -2.3820    2.3110 ca        1 3EL     -0.120000
     30 C2         -8.0660   -1.0890    2.2890 ca        1 3EL     -0.052000
     31 C6         -8.0150   -0.2280    3.4500 ca        1 3EL      0.192600
     32 N1         -8.4950   -0.6820    4.6850 nh        1 3EL     -0.770500
     33 S1         -9.0630    0.1800    5.9640 sy        1 3EL      1.518200
     34 O2         -9.1880   -0.7440    7.0240 o         1 3EL     -0.649800
     35 O3         -8.2600    1.3120    6.1990 o         1 3EL     -0.649800
     36 C26       -10.5820    0.6700    5.4640 ca        1 3EL     -0.403500
     37 C27       -11.7140   -0.1020    5.7640 ca        1 3EL     -0.009500
     38 C28       -12.9850    0.3150    5.3810 ca        1 3EL     -0.154500
     39 C29       -13.1450    1.5160    4.6880 ca        1 3EL     -0.055000
     40 C30       -12.0290    2.2990    4.3860 ca        1 3EL     -0.154500
     41 C31       -10.7610    1.8770    4.7730 ca        1 3EL     -0.009500
     42 H1         -1.4380   -0.1830    0.2890 hc        1 3EL      0.078450
     43 H2         -1.4930    0.4090    2.0010 hc        1 3EL      0.078450
     44 H3          1.0010   -0.5590    0.4320 hc        1 3EL      0.068950
     45 H4          0.1090   -1.4730    1.7280 hc        1 3EL      0.068950
     46 H5          0.6150    0.3500    3.3970 hx        1 3EL      0.113700
     47 H6          2.1810   -1.4520    3.1390 hn        1 3EL      0.457800
     48 H7          2.9820   -0.0380    3.5360 hn        1 3EL      0.457800
     49 H9          2.2280    1.6190    1.0410 hc        1 3EL      0.068950
     50 H10         2.1960    2.2130    2.7590 hc        1 3EL      0.068950
     51 H11        -0.2590    2.5870    2.6220 hc        1 3EL      0.078450
     52 H12         0.6350    3.4950    1.3340 hc        1 3EL      0.078450
     53 H13         0.1530    1.6710   -0.3280 h1        1 3EL      0.093700
     54 H14        -2.1920    2.8540    1.0340 hn        1 3EL      0.419800
     55 H15        -2.0770    0.9090   -3.9020 h4        1 3EL      0.033100
     56 H16        -4.5510    1.5350   -3.9880 ha        1 3EL      0.167000
     57 H17        -5.8490    4.0050   -3.5620 ha        1 3EL      0.150000
     58 H18        -8.3040    4.5630   -3.4160 ha        1 3EL      0.157000
     59 H19        -9.6980    3.4580   -1.6140 h4        1 3EL      0.035100
     60 H20        -6.5240    2.5200    2.0390 ha        1 3EL      0.152000
     61 H21        -7.4130    1.7350    4.1930 ha        1 3EL      0.173000
     62 H22        -7.0900   -1.1000   -1.0130 ha        1 3EL      0.145000
     63 H23        -8.1330   -3.3770   -0.9060 ha        1 3EL      0.139000
     64 H24        -9.1490   -4.1720    1.2210 ha        1 3EL      0.139000
     65 H25        -9.1370   -2.7640    3.2270 ha        1 3EL      0.130000
     66 H26        -8.5000   -1.6770    4.7620 hn        1 3EL      0.453800
     67 H27       -11.5900   -1.0430    6.3290 ha        1 3EL      0.152500
     68 H28       -13.8640   -0.3010    5.6280 ha        1 3EL      0.146500
     69 H29       -14.1500    1.8470    4.3830 ha        1 3EL      0.143000
     70 H30       -12.1520    3.2500    3.8450 ha        1 3EL      0.146500
     71 H31        -9.8790    2.5020    4.5460 ha        1 3EL      0.152500
     72 H63         3.0530   -0.6300    1.9800 hn        1 3EL      0.457800
@<TRIPOS>BOND
     1    1    2 1   
     2    1    7 1   
     3    1   42 1   
     4    1   43 1   
     5    2    3 1   
     6    2   44 1   
     7    2   45 1   
     8    3    4 1   
     9    3    5 1   
    10    3   46 1   
    11    4   47 1   
    12    4   48 1   
    13    4   72 1   
    14    5    6 1   
    15    5   49 1   
    16    5   50 1   
    17    6    7 1   
    18    6   51 1   
    19    6   52 1   
    20    7    8 1   
    21    7   53 1   
    22    8    9 1   
    23    8   54 1   
    24    9   10 ar  
    25    9   11 ar  
    26   10   14 ar  
    27   11   12 ar  
    28   12   13 ar  
    29   12   55 1   
    30   13   14 ar  
    31   13   56 1   
    32   14   15 1   
    33   15   16 ar  
    34   15   20 ar  
    35   16   17 ar  
    36   16   57 1   
    37   17   18 ar  
    38   17   58 1   
    39   18   19 ar  
    40   18   59 1   
    41   19   20 ar  
    42   20   21 1   
    43   21   22 1   
    44   22   23 ar  
    45   22   25 ar  
    46   23   24 ar  
    47   23   60 1   
    48   24   31 ar  
    49   24   61 1   
    50   25   26 ar  
    51   25   30 ar  
    52   26   27 ar  
    53   26   62 1   
    54   27   28 ar  
    55   27   63 1   
    56   28   29 ar  
    57   28   64 1   
    58   29   30 ar  
    59   29   65 1   
    60   30   31 ar  
    61   31   32 1   
    62   32   33 1   
    63   32   66 1   
    64   33   34 2   
    65   33   35 2   
    66   33   36 1   
    67   36   37 ar  
    68   36   41 ar  
    69   37   38 ar  
    70   37   67 1   
    71   38   39 ar  
    72   38   68 1   
    73   39   40 ar  
    74   39   69 1   
    75   40   41 ar  
    76   40   70 1   
    77   41   71 1   
@<TRIPOS>SUBSTRUCTURE
     1 3EL         1 TEMP              0 ****  ****    0 ROOT
