@<TRIPOS>MOLECULE
3EL
   72    77     1     0     0
SMALL
bcc


@<TRIPOS>ATOM
      1 C21        -0.8570    0.3810    1.1090 c3        1 3EL     -0.102900
      2 C22         0.3940   -0.4190    1.4020 c3        1 3EL     -0.096900
      3 C23         1.2040    0.2880    2.4930 c3        1 3EL      0.115500
      4 N6          2.4340   -0.5090    2.8520 nz        1 3EL     -0.843600
      5 C24         1.5810    1.7030    2.0430 c3        1 3EL     -0.096900
      6 C25         0.3210    2.4930    1.7540 c3        1 3EL     -0.102900
      7 C20        -0.5030    1.8070    0.6460 c3        1 3EL      0.203500
      8 N5         -1.6470    2.6230    0.2930 nu        1 3EL     -0.802900
      9 C15        -2.4240    2.2480   -0.8400 ca        1 3EL      0.836900
     10 N3         -3.7680    2.5830   -0.7910 nb        1 3EL     -0.714000
     11 N4         -1.7910    1.6590   -1.9240 nb        1 3EL     -0.744000
     12 C14        -2.5530    1.4660   -3.0140 ca        1 3EL      0.455200
     13 C13        -3.9150    1.7960   -3.0760 ca        1 3EL     -0.379600
     14 C12        -4.4940    2.3440   -1.9070 cp        1 3EL      0.553800
     15 C7         -5.9300    2.6550   -1.8880 cp        1 3EL     -0.300800
     16 C8         -6.4780    3.5830   -2.7800 ca        1 3EL     -0.044000
     17 C9         -7.8370    3.8860   -2.7060 ca        1 3EL     -0.276300
     18 C10        -8.6150    3.2470   -1.7230 ca        1 3EL      0.445200
     19 N2         -8.1340    2.3370   -0.8580 nb        1 3EL     -0.703000
     20 C11        -6.8120    2.0420   -0.9540 ca        1 3EL      0.652600
     21 O1         -6.2440    1.0500   -0.1670 os        1 3EL     -0.367400
     22 C3         -6.9340    0.6610    0.9870 ca        1 3EL      0.081100
     23 C4         -6.9370    1.4760    2.0970 ca        1 3EL     -0.096000
     24 C5         -7.4650    1.0000    3.3110 ca        1 3EL     -0.196000
     25 C1         -7.5070   -0.6430    1.0160 ca        1 3EL     -0.010000
     26 C19        -7.5300   -1.4670   -0.1430 ca        1 3EL     -0.112000
     27 C18        -8.1040   -2.7120   -0.1070 ca        1 3EL     -0.120000
     28 C17        -8.6810   -3.1850    1.0940 ca        1 3EL     -0.123000
     29 C16        -8.6640   -2.4100    2.2290 ca        1 3EL     -0.120000
     30 C2         -8.0670   -1.1180    2.2310 ca        1 3EL     -0.052000
     31 C6         -8.0170   -0.2770    3.4070 ca        1 3EL      0.193600
     32 N1         -8.5000   -0.7530    4.6330 nu        1 3EL     -0.770500
     33 S1         -9.0650    0.0870    5.9270 sy        1 3EL      1.518200
     34 O2         -9.1950   -0.8560    6.9710 o         1 3EL     -0.649800
     35 O3         -8.2580    1.2110    6.1840 o         1 3EL     -0.649800
     36 C26       -10.5830    0.5930    5.4360 ca        1 3EL     -0.403500
     37 C27       -11.7170   -0.1800    5.7210 ca        1 3EL     -0.009500
     38 C28       -12.9870    0.2480    5.3450 ca        1 3EL     -0.154500
     39 C29       -13.1410    1.4630    4.6750 ca        1 3EL     -0.055000
     40 C30       -12.0230    2.2470    4.3880 ca        1 3EL     -0.154500
     41 C31       -10.7560    1.8120    4.7680 ca        1 3EL     -0.009500
     42 H1         -1.4340   -0.1440    0.3010 hc        1 3EL      0.078450
     43 H2         -1.5100    0.4210    2.0210 hc        1 3EL      0.078450
     44 H3          1.0050   -0.5130    0.4640 hc        1 3EL      0.068700
     45 H4          0.1030   -1.4500    1.7360 hc        1 3EL      0.068700
     46 H5          0.5840    0.3490    3.4380 hx        1 3EL      0.113700
     47 H6          2.9510   -0.0320    3.5960 hn        1 3EL      0.457800
     48 H7          2.1600   -1.4430    3.1700 hn        1 3EL      0.457800
     49 H9          2.1640    2.2270    2.8450 hc        1 3EL      0.068700
     50 H10         2.2160    1.6590    1.1180 hc        1 3EL      0.068700
     51 H11        -0.2910    2.5950    2.6880 hc        1 3EL      0.078450
     52 H12         0.6140    3.5260    1.4240 hc        1 3EL      0.078450
     53 H13         0.1560    1.7250   -0.2710 h1        1 3EL      0.093700
     54 H14        -2.2080    2.8780    1.0850 hn        1 3EL      0.419800
     55 H15        -2.0340    1.0140   -3.8810 h4        1 3EL      0.033100
     56 H16        -4.5120    1.6230   -3.9790 ha        1 3EL      0.167000
     57 H17        -5.8330    4.0750   -3.5240 ha        1 3EL      0.150000
     58 H18        -8.2930    4.6120   -3.3910 ha        1 3EL      0.157000
     59 H19        -9.6940    3.4690   -1.6190 h4        1 3EL      0.035100
     60 H20        -6.5190    2.4930    2.0490 ha        1 3EL      0.152000
     61 H21        -7.4130    1.6710    4.1870 ha        1 3EL      0.173000
     62 H22        -7.0820   -1.0720   -1.0690 ha        1 3EL      0.145000
     63 H23        -8.1290   -3.3490   -1.0040 ha        1 3EL      0.139000
     64 H24        -9.1520   -4.1800    1.1060 ha        1 3EL      0.139000
     65 H25        -9.1430   -2.8070    3.1360 ha        1 3EL      0.130000
     66 H26        -8.5100   -1.7490    4.6910 hn        1 3EL      0.453800
     67 H27       -11.5980   -1.1320    6.2690 ha        1 3EL      0.152500
     68 H28       -13.8680   -0.3690    5.5800 ha        1 3EL      0.146500
     69 H29       -14.1450    1.8030    4.3760 ha        1 3EL      0.143000
     70 H30       -12.1410    3.2080    3.8650 ha        1 3EL      0.146500
     71 H31        -9.8720    2.4380    4.5520 ha        1 3EL      0.152500
     72 H63         3.0400   -0.6010    2.0320 hn        1 3EL      0.457800
@<TRIPOS>BOND
     1    1    2 1   
     2    1    7 1   
     3    1   42 1   
     4    1   43 1   
     5    2    3 1   
     6    2   44 1   
     7    2   45 1   
     8    3    4 1   
     9    3    5 1   
    10    3   46 1   
    11    4   47 1   
    12    4   48 1   
    13    4   72 1   
    14    5    6 1   
    15    5   49 1   
    16    5   50 1   
    17    6    7 1   
    18    6   51 1   
    19    6   52 1   
    20    7    8 1   
    21    7   53 1   
    22    8    9 1   
    23    8   54 1   
    24    9   10 ar  
    25    9   11 ar  
    26   10   14 ar  
    27   11   12 ar  
    28   12   13 ar  
    29   12   55 1   
    30   13   14 ar  
    31   13   56 1   
    32   14   15 1   
    33   15   16 ar  
    34   15   20 ar  
    35   16   17 ar  
    36   16   57 1   
    37   17   18 ar  
    38   17   58 1   
    39   18   19 ar  
    40   18   59 1   
    41   19   20 ar  
    42   20   21 1   
    43   21   22 1   
    44   22   23 ar  
    45   22   25 ar  
    46   23   24 ar  
    47   23   60 1   
    48   24   31 ar  
    49   24   61 1   
    50   25   26 ar  
    51   25   30 ar  
    52   26   27 ar  
    53   26   62 1   
    54   27   28 ar  
    55   27   63 1   
    56   28   29 ar  
    57   28   64 1   
    58   29   30 ar  
    59   29   65 1   
    60   30   31 ar  
    61   31   32 1   
    62   32   33 1   
    63   32   66 1   
    64   33   34 2   
    65   33   35 2   
    66   33   36 1   
    67   36   37 ar  
    68   36   41 ar  
    69   37   38 ar  
    70   37   67 1   
    71   38   39 ar  
    72   38   68 1   
    73   39   40 ar  
    74   39   69 1   
    75   40   41 ar  
    76   40   70 1   
    77   41   71 1   
@<TRIPOS>SUBSTRUCTURE
     1 3EL         1 TEMP              0 ****  ****    0 ROOT
