@<TRIPOS>MOLECULE
3EL
   71    76     1     0     0
SMALL
bcc


@<TRIPOS>ATOM
      1 C21        -0.5580    0.0320    0.8850 c3        1 3EL     -0.094900
      2 C22         0.7220   -0.7680    0.9690 c3        1 3EL     -0.073400
      3 C23         1.7050   -0.1190    1.9560 c3        1 3EL      0.169500
      4 N6          2.9330   -0.8910    2.0750 n3        1 3EL     -0.913800
      5 C24         1.9870    1.3220    1.5020 c3        1 3EL     -0.073400
      6 C25         0.7050    2.1210    1.4250 c3        1 3EL     -0.094900
      7 C20        -0.2700    1.4710    0.4250 c3        1 3EL      0.206500
      8 N5         -1.4590    2.2950    0.2740 nh        1 3EL     -0.814900
      9 C15        -2.3820    2.0320   -0.7540 ca        1 3EL      0.866900
     10 N3         -3.6710    2.5290   -0.5640 nb        1 3EL     -0.730000
     11 N4         -1.9510    1.3870   -1.9090 nb        1 3EL     -0.738000
     12 C14        -2.8470    1.2900   -2.9010 ca        1 3EL      0.460200
     13 C13        -4.1600    1.7820   -2.8170 ca        1 3EL     -0.414600
     14 C12        -4.5290    2.3930   -1.5970 cp        1 3EL      0.542800
     15 C7         -5.9000    2.9090   -1.4510 cp        1 3EL     -0.277800
     16 C8         -6.3790    3.8940   -2.3210 ca        1 3EL     -0.049000
     17 C9         -7.6740    4.3860   -2.1590 ca        1 3EL     -0.281300
     18 C10        -8.4600    3.8730   -1.1130 ca        1 3EL      0.436200
     19 N2         -8.0450    2.9190   -0.2610 nb        1 3EL     -0.714000
     20 C11        -6.7840    2.4450   -0.4360 ca        1 3EL      0.651600
     21 O1         -6.2950    1.4090    0.3460 os        1 3EL     -0.353400
     22 C3         -7.0110    1.0610    1.4960 ca        1 3EL      0.102100
     23 C4         -7.2180    1.9600    2.5180 ca        1 3EL     -0.107000
     24 C5         -7.8200    1.5300    3.7150 ca        1 3EL     -0.162000
     25 C1         -7.4040   -0.3060    1.6110 ca        1 3EL     -0.020000
     26 C19        -7.1840   -1.2320    0.5550 ca        1 3EL     -0.104000
     27 C18        -7.5730   -2.5420    0.6800 ca        1 3EL     -0.128000
     28 C17        -8.2020   -2.9790    1.8690 ca        1 3EL     -0.122000
     29 C16        -8.4210   -2.1030    2.9040 ca        1 3EL     -0.123000
     30 C2         -8.0240   -0.7390    2.8120 ca        1 3EL     -0.040000
     31 C6         -8.2290    0.2090    3.8810 ca        1 3EL      0.159600
     32 N1         -8.8240   -0.2040    5.0850 nh        1 3EL     -0.778500
     33 S1         -9.8970    0.6120    6.0060 sy        1 3EL      1.516200
     34 O2        -10.0850   -0.1540    7.1790 o         1 3EL     -0.651800
     35 O3         -9.5020    1.9520    6.1790 o         1 3EL     -0.651800
     36 C26       -11.3090    0.5750    5.0950 ca        1 3EL     -0.391500
     37 C27       -12.2520   -0.4440    5.2840 ca        1 3EL     -0.010500
     38 C28       -13.4360   -0.4680    4.5520 ca        1 3EL     -0.156500
     39 C29       -13.6940    0.5350    3.6160 ca        1 3EL     -0.062000
     40 C30       -12.7690    1.5610    3.4210 ca        1 3EL     -0.156500
     41 C31       -11.5870    1.5780    4.1570 ca        1 3EL     -0.010500
     42 H1         -1.0640    0.0470    1.8860 hc        1 3EL      0.048700
     43 H2         -1.2540   -0.4650    0.1590 hc        1 3EL      0.048700
     44 H3          0.4810   -1.8120    1.3010 hc        1 3EL      0.051200
     45 H4          1.1960   -0.8360   -0.0450 hc        1 3EL      0.051200
     46 H5          1.1720   -0.0520    2.9580 h1        1 3EL      0.006700
     47 H6          2.7250   -1.8260    2.3630 hn        1 3EL      0.350300
     48 H7          3.5440   -0.4650    2.7410 hn        1 3EL      0.350300
     49 H9          2.4900    1.3080    0.5000 hc        1 3EL      0.051200
     50 H10         2.6840    1.8200    2.2250 hc        1 3EL      0.051200
     51 H11         0.2310    2.1780    2.4400 hc        1 3EL      0.048700
     52 H12         0.9430    3.1670    1.0990 hc        1 3EL      0.048700
     53 H13         0.2490    1.4230   -0.5790 h1        1 3EL      0.089700
     54 H14        -1.8760    2.5650    1.1420 hn        1 3EL      0.422800
     55 H15        -2.4870    0.7830   -3.8160 h4        1 3EL      0.026100
     56 H16        -4.8680    1.6840   -3.6440 ha        1 3EL      0.154000
     57 H17        -5.7280    4.2780   -3.1210 ha        1 3EL      0.149000
     58 H18        -8.0720    5.1610   -2.8250 ha        1 3EL      0.150000
     59 H19        -9.4880    4.2400   -0.9400 h4        1 3EL      0.027100
     60 H20        -6.9170    3.0130    2.4110 ha        1 3EL      0.156000
     61 H21        -7.9580    2.2750    4.5200 ha        1 3EL      0.173000
     62 H22        -6.6900   -0.8690   -0.3600 ha        1 3EL      0.149000
     63 H23        -7.4040   -3.2600   -0.1360 ha        1 3EL      0.136000
     64 H24        -8.5150   -4.0300    1.9530 ha        1 3EL      0.134000
     65 H25        -8.9220   -2.4750    3.8100 ha        1 3EL      0.128000
     66 H26        -8.5580   -1.1270    5.3550 hn        1 3EL      0.456800
     67 H27       -12.0550   -1.2270    6.0380 ha        1 3EL      0.154000
     68 H28       -14.1670   -1.2740    4.7140 ha        1 3EL      0.142000
     69 H29       -14.6280    0.5170    3.0340 ha        1 3EL      0.137000
     70 H30       -12.9710    2.3550    2.6870 ha        1 3EL      0.142000
     71 H31       -10.8600    2.3970    4.0120 ha        1 3EL      0.154000
@<TRIPOS>BOND
     1    1    2 1   
     2    1    7 1   
     3    1   42 1   
     4    1   43 1   
     5    2    3 1   
     6    2   44 1   
     7    2   45 1   
     8    3    4 1   
     9    3    5 1   
    10    3   46 1   
    11    4   47 1   
    12    4   48 1   
    13    5    6 1   
    14    5   49 1   
    15    5   50 1   
    16    6    7 1   
    17    6   51 1   
    18    6   52 1   
    19    7    8 1   
    20    7   53 1   
    21    8    9 1   
    22    8   54 1   
    23    9   10 ar  
    24    9   11 ar  
    25   10   14 ar  
    26   11   12 ar  
    27   12   13 ar  
    28   12   55 1   
    29   13   14 ar  
    30   13   56 1   
    31   14   15 1   
    32   15   16 ar  
    33   15   20 ar  
    34   16   17 ar  
    35   16   57 1   
    36   17   18 ar  
    37   17   58 1   
    38   18   19 ar  
    39   18   59 1   
    40   19   20 ar  
    41   20   21 1   
    42   21   22 1   
    43   22   23 ar  
    44   22   25 ar  
    45   23   24 ar  
    46   23   60 1   
    47   24   31 ar  
    48   24   61 1   
    49   25   26 ar  
    50   25   30 ar  
    51   26   27 ar  
    52   26   62 1   
    53   27   28 ar  
    54   27   63 1   
    55   28   29 ar  
    56   28   64 1   
    57   29   30 ar  
    58   29   65 1   
    59   30   31 ar  
    60   31   32 1   
    61   32   33 1   
    62   32   66 1   
    63   33   34 2   
    64   33   35 2   
    65   33   36 1   
    66   36   37 ar  
    67   36   41 ar  
    68   37   38 ar  
    69   37   67 1   
    70   38   39 ar  
    71   38   68 1   
    72   39   40 ar  
    73   39   69 1   
    74   40   41 ar  
    75   40   70 1   
    76   41   71 1   
@<TRIPOS>SUBSTRUCTURE
     1 3EL         1 TEMP              0 ****  ****    0 ROOT
