@<TRIPOS>MOLECULE
3EP
   22    21     1     0     0
SMALL
bcc


@<TRIPOS>ATOM
      1 P1          0.1950   -0.2170   -0.1620 p3        1 3EP     -0.417700
      2 C1          1.9220   -0.0900   -0.0290 c3        1 3EP      0.016500
      3 C2          2.2620    0.0240    1.4240 c3        1 3EP     -0.086767
      4 C3         -0.0560   -0.1160   -1.8780 c3        1 3EP      0.016500
      5 C4          0.0040    1.3290   -2.2630 c3        1 3EP     -0.086767
      6 C5         -0.1030   -1.8920    0.1770 c3        1 3EP      0.016500
      7 C6         -1.5500   -1.9440    0.5430 c3        1 3EP     -0.086767
      8 H12         2.2140    0.8300   -0.5900 hc        1 3EP      0.048367
      9 H11         2.4220   -0.9640   -0.5050 hc        1 3EP      0.048367
     10 H23         1.3690    0.3470    2.0140 hc        1 3EP      0.037589
     11 H22         3.0730    0.7780    1.5870 hc        1 3EP      0.037589
     12 H21         2.6300   -0.9460    1.8470 hc        1 3EP      0.037589
     13 H32        -1.0650   -0.5480   -2.0800 hc        1 3EP      0.048367
     14 H31         0.7000   -0.7230   -2.4250 hc        1 3EP      0.048367
     15 H43        -0.7900    1.5770   -3.0120 hc        1 3EP      0.037589
     16 H42        -0.1510    1.9820   -1.3680 hc        1 3EP      0.037589
     17 H41         0.9870    1.5990   -2.7280 hc        1 3EP      0.037589
     18 H52         0.1310   -2.5330   -0.7030 hc        1 3EP      0.048367
     19 H51         0.5510   -2.1980    1.0260 hc        1 3EP      0.048367
     20 H63        -1.8730   -2.9800    0.8080 hc        1 3EP      0.037589
     21 H62        -2.1700   -1.5830   -0.3140 hc        1 3EP      0.037589
     22 H61        -1.7420   -1.2710    1.4140 hc        1 3EP      0.037589
@<TRIPOS>BOND
     1    1    2 1   
     2    1    4 1   
     3    1    6 1   
     4    2    3 1   
     5    2    8 1   
     6    2    9 1   
     7    3   10 1   
     8    3   11 1   
     9    3   12 1   
    10    4    5 1   
    11    4   13 1   
    12    4   14 1   
    13    5   15 1   
    14    5   16 1   
    15    5   17 1   
    16    6    7 1   
    17    6   18 1   
    18    6   19 1   
    19    7   20 1   
    20    7   21 1   
    21    7   22 1   
@<TRIPOS>SUBSTRUCTURE
     1 3EP         1 TEMP              0 ****  ****    0 ROOT
