@<TRIPOS>MOLECULE
3EP
   22    21     1     0     0
SMALL
bcc


@<TRIPOS>ATOM
      1 P1          0.0360   -0.0780   -0.0030 p3        1 3EP     -0.419700
      2 C1          1.4990    0.7230    0.4780 c3        1 3EP      0.014500
      3 C2          2.5880   -0.1290   -0.0870 c3        1 3EP     -0.086100
      4 C3         -1.1470    0.5780    1.0840 c3        1 3EP      0.014500
      5 C4         -1.1550   -0.3730    2.2360 c3        1 3EP     -0.086100
      6 C5         -0.3510    0.6860   -1.5120 c3        1 3EP      0.014500
      7 C6         -1.2980   -0.2620   -2.1730 c3        1 3EP     -0.086100
      8 H12         1.5360    0.7550    1.5910 hc        1 3EP      0.048700
      9 H11         1.5370    1.7660    0.0900 hc        1 3EP      0.048700
     10 H23         3.6000    0.2690    0.1690 hc        1 3EP      0.038033
     11 H22         2.4980   -1.1690    0.3110 hc        1 3EP      0.038033
     12 H21         2.4920   -0.1760   -1.2000 hc        1 3EP      0.038033
     13 H32        -0.8810    1.6130    1.3960 hc        1 3EP      0.048700
     14 H31        -2.1320    0.6050    0.5630 hc        1 3EP      0.048700
     15 H43        -1.9000   -0.0740    3.0140 hc        1 3EP      0.038033
     16 H42        -1.4040   -1.4000    1.8740 hc        1 3EP      0.038033
     17 H41        -0.1410   -0.4080    2.7040 hc        1 3EP      0.038033
     18 H52        -0.8050    1.6900   -1.3540 hc        1 3EP      0.048700
     19 H51         0.5880    0.8080   -2.1000 hc        1 3EP      0.048700
     20 H63        -1.6170    0.1050   -3.1790 hc        1 3EP      0.038033
     21 H62        -0.8100   -1.2600   -2.2910 hc        1 3EP      0.038033
     22 H61        -2.2060   -0.3960   -1.5340 hc        1 3EP      0.038033
@<TRIPOS>BOND
     1    1    2 1   
     2    1    4 1   
     3    1    6 1   
     4    2    3 1   
     5    2    8 1   
     6    2    9 1   
     7    3   10 1   
     8    3   11 1   
     9    3   12 1   
    10    4    5 1   
    11    4   13 1   
    12    4   14 1   
    13    5   15 1   
    14    5   16 1   
    15    5   17 1   
    16    6    7 1   
    17    6   18 1   
    18    6   19 1   
    19    7   20 1   
    20    7   21 1   
    21    7   22 1   
@<TRIPOS>SUBSTRUCTURE
     1 3EP         1 TEMP              0 ****  ****    0 ROOT
