@<TRIPOS>MOLECULE
3EP
   22    21     1     0     0
SMALL
bcc


@<TRIPOS>ATOM
      1 P1          0.0060   -0.0000   -0.0190 p3        1 3EP     -0.419700
      2 C1          1.8220   -0.0000   -0.0190 c3        1 3EP      0.014500
      3 C2          2.3260   -0.0000    1.4080 c3        1 3EP     -0.086100
      4 C3         -0.5990    1.4770   -0.8830 c3        1 3EP      0.014500
      5 C4         -1.4320    2.3110    0.0660 c3        1 3EP     -0.086100
      6 C5         -0.5990   -1.4870   -0.8660 c3        1 3EP      0.014500
      7 C6         -1.4460   -2.3010    0.0870 c3        1 3EP     -0.086100
      8 H12         2.1470    0.7970   -0.4790 hc        1 3EP      0.048700
      9 H11         2.1470   -0.7970   -0.4790 hc        1 3EP      0.048700
     10 H23         3.2600    0.2850    1.4230 hc        1 3EP      0.038033
     11 H22         2.2550   -0.9010    1.7780 hc        1 3EP      0.038033
     12 H21         1.7900    0.6150    1.9430 hc        1 3EP      0.038033
     13 H32        -1.1460    1.2070   -1.6450 hc        1 3EP      0.048700
     14 H31         0.1600    2.0040   -1.1980 hc        1 3EP      0.048700
     15 H43        -1.9730    1.7230    0.6260 hc        1 3EP      0.038033
     16 H42        -2.0160    2.9010   -0.4470 hc        1 3EP      0.038033
     17 H41        -0.8430    2.8470    0.6310 hc        1 3EP      0.038033
     18 H52        -1.1370   -1.2260   -1.6380 hc        1 3EP      0.048700
     19 H51         0.1600   -2.0230   -1.1650 hc        1 3EP      0.048700
     20 H63        -2.3610   -1.9620    0.0800 hc        1 3EP      0.038033
     21 H62        -1.0790   -2.2320    0.9890 hc        1 3EP      0.038033
     22 H61        -1.4440   -3.2360   -0.1940 hc        1 3EP      0.038033
@<TRIPOS>BOND
     1    1    2 1   
     2    1    4 1   
     3    1    6 1   
     4    2    3 1   
     5    2    8 1   
     6    2    9 1   
     7    3   10 1   
     8    3   11 1   
     9    3   12 1   
    10    4    5 1   
    11    4   13 1   
    12    4   14 1   
    13    5   15 1   
    14    5   16 1   
    15    5   17 1   
    16    6    7 1   
    17    6   18 1   
    18    6   19 1   
    19    7   20 1   
    20    7   21 1   
    21    7   22 1   
@<TRIPOS>SUBSTRUCTURE
     1 3EP         1 TEMP              0 ****  ****    0 ROOT
