@<TRIPOS>MOLECULE
3EP
   22    21     1     0     0
SMALL
bcc


@<TRIPOS>ATOM
      1 P1          0.1950   -0.2150   -0.1620 p3        1 3EP     -0.417700
      2 C1          1.9220   -0.0910   -0.0290 c3        1 3EP      0.016500
      3 C2          2.2620    0.0260    1.4240 c3        1 3EP     -0.086767
      4 C3         -0.0540   -0.1200   -1.8790 c3        1 3EP      0.016500
      5 C4          0.0090    1.3240   -2.2690 c3        1 3EP     -0.086767
      6 C5         -0.1050   -1.8890    0.1810 c3        1 3EP      0.016500
      7 C6         -1.5530   -1.9380    0.5460 c3        1 3EP     -0.086767
      8 H12         2.2160    0.8270   -0.5920 hc        1 3EP      0.048367
      9 H11         2.4210   -0.9670   -0.5030 hc        1 3EP      0.048367
     10 H23         1.3670    0.3490    2.0130 hc        1 3EP      0.037589
     11 H22         3.0720    0.7810    1.5860 hc        1 3EP      0.037589
     12 H21         2.6300   -0.9430    1.8490 hc        1 3EP      0.037589
     13 H32        -1.0640   -0.5510   -2.0800 hc        1 3EP      0.048367
     14 H31         0.7010   -0.7310   -2.4240 hc        1 3EP      0.048367
     15 H43        -0.7850    1.5710   -3.0190 hc        1 3EP      0.037589
     16 H42        -0.1450    1.9800   -1.3760 hc        1 3EP      0.037589
     17 H41         0.9920    1.5900   -2.7350 hc        1 3EP      0.037589
     18 H52         0.1280   -2.5330   -0.6970 hc        1 3EP      0.048367
     19 H51         0.5470   -2.1930    1.0320 hc        1 3EP      0.048367
     20 H63        -1.8780   -2.9730    0.8150 hc        1 3EP      0.037589
     21 H62        -2.1720   -1.5780   -0.3120 hc        1 3EP      0.037589
     22 H61        -1.7450   -1.2620    1.4150 hc        1 3EP      0.037589
@<TRIPOS>BOND
     1    1    2 1   
     2    1    4 1   
     3    1    6 1   
     4    2    3 1   
     5    2    8 1   
     6    2    9 1   
     7    3   10 1   
     8    3   11 1   
     9    3   12 1   
    10    4    5 1   
    11    4   13 1   
    12    4   14 1   
    13    5   15 1   
    14    5   16 1   
    15    5   17 1   
    16    6    7 1   
    17    6   18 1   
    18    6   19 1   
    19    7   20 1   
    20    7   21 1   
    21    7   22 1   
@<TRIPOS>SUBSTRUCTURE
     1 3EP         1 TEMP              0 ****  ****    0 ROOT
