@<TRIPOS>MOLECULE
3EQ
   69    72     1     0     0
SMALL
bcc


@<TRIPOS>ATOM
      1 C1         -0.5120    0.4630   -0.0680 c3        1 3EQ     -0.093100
      2 C2          0.9880    0.5270    0.0550 c3        1 3EQ     -0.077400
      3 C3          1.4410    0.2040    1.4630 c3        1 3EQ     -0.108400
      4 C4          2.9650    0.2530    1.5540 c3        1 3EQ      0.134800
      5 N5          3.5250   -0.0210    2.8750 nh        1 3EQ     -0.756600
      6 C6          3.5720    1.1220    3.7460 ca        1 3EQ      0.050600
      7 C7          2.5990    1.2570    4.7590 ca        1 3EQ     -0.152000
      8 C8          2.6440    2.3220    5.6490 ca        1 3EQ     -0.124000
      9 C9          3.6550    3.2710    5.5440 ca        1 3EQ     -0.119000
     10 C10         4.6370    3.1550    4.5520 cp        1 3EQ     -0.018000
     11 C11         4.6030    2.0870    3.6350 ca        1 3EQ     -0.045300
     12 C12         5.6490    1.9790    2.5890 c3        1 3EQ     -0.070800
     13 C13         5.6890    4.1760    4.5210 cp        1 3EQ     -0.068000
     14 C14         5.3410    5.5350    4.4530 ca        1 3EQ     -0.099500
     15 C15         6.3240    6.5150    4.4670 ca        1 3EQ     -0.137000
     16 C16         7.6800    6.1640    4.5610 ca        1 3EQ      0.002900
     17 S17         8.7770    7.4540    4.5810 ss        1 3EQ     -0.179000
     18 C18        10.3660    6.7310    4.7110 c3        1 3EQ     -0.065000
     19 C19         8.0260    4.8120    4.6330 ca        1 3EQ     -0.137000
     20 C20         7.0410    3.8270    4.6090 ca        1 3EQ     -0.099500
     21 S21         5.4150   -1.9290    2.8190 s4        1 3EQ      2.060800
     22 O22         4.6190   -2.4650    3.8130 o         1 3EQ     -0.491900
     23 O23         5.0070   -2.1500    1.5240 o         1 3EQ     -0.491900
     24 C24         6.7600   -1.4170    3.1630 ce        1 3EQ     -1.148200
     25 C25         7.1060   -1.3280    4.5770 ce        1 3EQ     -0.024000
     26 C26         8.2150   -0.7600    5.0560 c2        1 3EQ     -0.197200
     27 C27         9.2340   -0.1400    4.1620 c3        1 3EQ      0.449100
     28 O28        10.5490   -0.6240    4.5340 os        1 3EQ     -0.425600
     29 C29        11.3810    0.4420    4.9850 c3        1 3EQ      0.039400
     30 C30        10.5140    1.6690    4.8820 c         1 3EQ      0.701600
     31 O31        10.6900    2.8560    5.1170 o         1 3EQ     -0.566500
     32 O32         9.2770    1.2910    4.4130 os        1 3EQ     -0.426900
     33 C33         8.9910   -0.3830    2.7000 ca        1 3EQ     -0.109300
     34 C34         9.9890    0.0050    1.7970 ca        1 3EQ     -0.080000
     35 C35         9.8350   -0.1960    0.4310 ca        1 3EQ     -0.150000
     36 C36         8.6680   -0.8000   -0.0370 ca        1 3EQ     -0.092000
     37 C37         7.6730   -1.1940    0.8500 ca        1 3EQ     -0.191000
     38 C38         7.8070   -0.9900    2.2380 ca        1 3EQ      0.088200
     39 H1         -0.8860   -0.5600    0.1820 hc        1 3EQ      0.035367
     40 H1A        -0.8250    0.7070   -1.1120 hc        1 3EQ      0.035367
     41 H1B        -0.9960    1.1920    0.6260 hc        1 3EQ      0.035367
     42 H2          1.3460    1.5520   -0.2280 hc        1 3EQ      0.043200
     43 H2A         1.4570   -0.1970   -0.6640 hc        1 3EQ      0.043200
     44 H3          0.9910    0.9370    2.1820 hc        1 3EQ      0.046700
     45 H3A         1.0720   -0.8160    1.7490 hc        1 3EQ      0.046700
     46 H4          3.3100    1.2660    1.2020 h1        1 3EQ      0.072200
     47 H4A         3.3980   -0.5260    0.8610 h1        1 3EQ      0.072200
     48 H7          1.7940    0.5110    4.8570 ha        1 3EQ      0.132000
     49 H8          1.8800    2.4140    6.4350 ha        1 3EQ      0.136000
     50 H9          3.6950    4.1180    6.2470 ha        1 3EQ      0.142000
     51 H12         6.1540    2.9630    2.4180 hc        1 3EQ      0.055700
     52 H12A        6.4310    1.2400    2.9080 hc        1 3EQ      0.055700
     53 H12B        5.2300    1.6440    1.6090 hc        1 3EQ      0.055700
     54 H14         4.2810    5.8220    4.3850 ha        1 3EQ      0.143500
     55 H15         6.0420    7.5780    4.4070 ha        1 3EQ      0.148500
     56 H18        11.0780    7.5880    4.7510 h1        1 3EQ      0.071700
     57 H18A       10.6140    6.0920    3.8340 h1        1 3EQ      0.071700
     58 H18B       10.4820    6.1170    5.6330 h1        1 3EQ      0.071700
     59 H19         9.0820    4.5010    4.7120 ha        1 3EQ      0.148500
     60 H20         7.3400    2.7660    4.6590 ha        1 3EQ      0.143500
     61 H25         6.3770   -1.7750    5.2830 ha        1 3EQ      0.144000
     62 H26         8.4400   -0.7240    6.1310 ha        1 3EQ      0.148000
     63 H29        11.6850    0.2270    6.0410 h1        1 3EQ      0.091700
     64 H29A       12.2740    0.4990    4.3130 h1        1 3EQ      0.091700
     65 H34        10.9060    0.4700    2.1910 ha        1 3EQ      0.129000
     66 H35        10.6220    0.1150   -0.2700 ha        1 3EQ      0.137000
     67 H36         8.5310   -0.9700   -1.1160 ha        1 3EQ      0.136000
     68 H37         6.7760   -1.6750    0.4300 ha        1 3EQ      0.154000
     69 H51         2.9580   -0.7320    3.3220 hn        1 3EQ      0.377800
@<TRIPOS>BOND
     1    1    2 1   
     2    1   39 1   
     3    1   40 1   
     4    1   41 1   
     5    2    3 1   
     6    2   42 1   
     7    2   43 1   
     8    3    4 1   
     9    3   44 1   
    10    3   45 1   
    11    4    5 1   
    12    4   46 1   
    13    4   47 1   
    14    5    6 1   
    15    5   69 1   
    16    6    7 ar  
    17    6   11 ar  
    18    7    8 ar  
    19    7   48 1   
    20    8    9 ar  
    21    8   49 1   
    22    9   10 ar  
    23    9   50 1   
    24   10   11 ar  
    25   10   13 1   
    26   11   12 1   
    27   12   51 1   
    28   12   52 1   
    29   12   53 1   
    30   13   14 ar  
    31   13   20 ar  
    32   14   15 ar  
    33   14   54 1   
    34   15   16 ar  
    35   15   55 1   
    36   16   17 1   
    37   16   19 ar  
    38   17   18 1   
    39   18   56 1   
    40   18   57 1   
    41   18   58 1   
    42   19   20 ar  
    43   19   59 1   
    44   20   60 1   
    45   21   22 1   
    46   21   23 1   
    47   21   24 2   
    48   24   25 1   
    49   24   38 1   
    50   25   26 2   
    51   25   61 1   
    52   26   27 1   
    53   26   62 1   
    54   27   28 1   
    55   27   32 1   
    56   27   33 1   
    57   28   29 1   
    58   29   30 1   
    59   29   63 1   
    60   29   64 1   
    61   30   31 2   
    62   30   32 1   
    63   33   34 ar  
    64   33   38 ar  
    65   34   35 ar  
    66   34   65 1   
    67   35   36 ar  
    68   35   66 1   
    69   36   37 ar  
    70   36   67 1   
    71   37   38 ar  
    72   37   68 1   
@<TRIPOS>SUBSTRUCTURE
     1 3EQ         1 TEMP              0 ****  ****    0 ROOT
