@<TRIPOS>MOLECULE
3EQ
   68    71     1     0     0
SMALL
bcc


@<TRIPOS>ATOM
      1 C1         -0.3010   -0.2740    0.0890 c3        1 3EQ     -0.091100
      2 C2          1.1600    0.0950    0.0780 c3        1 3EQ     -0.077400
      3 C3          1.8200   -0.2270    1.4010 c3        1 3EQ     -0.105400
      4 C4          3.3070    0.1390    1.3480 c3        1 3EQ      0.232800
      5 N5          4.0190   -0.0480    2.5870 nh        1 3EQ     -0.685900
      6 C6          3.9330    1.0020    3.5370 ca        1 3EQ      0.112600
      7 C7          2.9590    0.9300    4.5570 ca        1 3EQ     -0.120000
      8 C8          2.8970    1.9090    5.5420 ca        1 3EQ     -0.144000
      9 C9          3.8230    2.9470    5.5570 ca        1 3EQ     -0.117000
     10 C10         4.8040    3.0350    4.5620 cp        1 3EQ     -0.027000
     11 C11         4.8190    2.1090    3.5010 ca        1 3EQ     -0.044300
     12 C12         5.7600    2.2910    2.3690 c3        1 3EQ     -0.066800
     13 C13         5.8480    4.0550    4.6940 cp        1 3EQ     -0.072000
     14 C14         5.5320    5.4080    4.8650 ca        1 3EQ     -0.110000
     15 C15         6.5430    6.3490    5.0270 ca        1 3EQ     -0.142000
     16 C16         7.8900    5.9590    5.0310 ca        1 3EQ      0.017900
     17 S17         9.0350    7.1910    5.2360 ss        1 3EQ     -0.240000
     18 C18        10.6100    6.4110    5.1880 c3        1 3EQ     -0.048000
     19 C19         8.2080    4.6050    4.8690 ca        1 3EQ     -0.142000
     20 C20         7.1960    3.6670    4.7000 ca        1 3EQ     -0.110000
     21 S21         4.7940   -1.4650    2.9430 sy        1 3EQ      1.518200
     22 O22         4.3220   -1.9670    4.1820 o         1 3EQ     -0.670800
     23 O23         4.5940   -2.3630    1.8630 o         1 3EQ     -0.670800
     24 C24         6.3850   -1.0050    3.1140 ca        1 3EQ     -0.472500
     25 C25         6.8180   -0.7170    4.4080 ca        1 3EQ      0.062000
     26 C26         8.0600   -0.1510    4.6880 ca        1 3EQ     -0.296000
     27 C27         8.9290    0.1460    3.6380 ca        1 3EQ      0.253100
     28 O28        10.1070    0.8030    3.7690 os        1 3EQ     -0.274900
     29 C29        10.4080    1.3570    5.0620 c3        1 3EQ     -0.018600
     30 C30        11.5790    2.3630    4.8520 c         1 3EQ      0.930600
     31 O31        12.7340    1.8990    4.6990 o         1 3EQ     -0.815800
     32 O32        11.2710    3.5870    4.9060 o         1 3EQ     -0.815800
     33 C33         8.5860   -0.2430    2.2950 ca        1 3EQ     -0.112000
     34 C34         9.5080   -0.0420    1.2360 ca        1 3EQ     -0.062000
     35 C35         9.1880   -0.4170   -0.0480 ca        1 3EQ     -0.174000
     36 C36         7.9330   -1.0050   -0.3100 ca        1 3EQ     -0.093000
     37 C37         7.0220   -1.2020    0.7020 ca        1 3EQ     -0.183000
     38 C38         7.3160   -0.8250    2.0420 ca        1 3EQ      0.105000
     39 H1         -0.8420    0.2870    0.8890 hc        1 3EQ      0.030033
     40 H1A        -0.4300   -1.3660    0.2800 hc        1 3EQ      0.030033
     41 H1B        -0.7710   -0.0280   -0.8930 hc        1 3EQ      0.030033
     42 H2          1.6820   -0.4620   -0.7450 hc        1 3EQ      0.038700
     43 H2A         1.2710    1.1900   -0.1410 hc        1 3EQ      0.038700
     44 H3          1.7050   -1.3200    1.6250 hc        1 3EQ      0.050200
     45 H3A         1.3160    0.3420    2.2270 hc        1 3EQ      0.050200
     46 H4          3.8050   -0.5010    0.5600 h1        1 3EQ      0.054700
     47 H4A         3.3950    1.2160    1.0250 h1        1 3EQ      0.054700
     48 H7          2.2610    0.0790    4.5890 ha        1 3EQ      0.143000
     49 H8          2.1270    1.8470    6.3240 ha        1 3EQ      0.127000
     50 H9          3.8030    3.6980    6.3620 ha        1 3EQ      0.134000
     51 H12         5.2390    2.1400    1.3920 hc        1 3EQ      0.055367
     52 H12A        6.5980    1.5490    2.4390 hc        1 3EQ      0.055367
     53 H12B        6.2040    3.3180    2.3680 hc        1 3EQ      0.055367
     54 H14         4.4790    5.7270    4.8670 ha        1 3EQ      0.131000
     55 H15         6.2860    7.4120    5.1530 ha        1 3EQ      0.169500
     56 H18        10.7480    5.6650    6.0040 h1        1 3EQ      0.086700
     57 H18A       11.3460    7.2380    5.3050 h1        1 3EQ      0.086700
     58 H18B       10.7980    5.8710    4.2310 h1        1 3EQ      0.086700
     59 H19         9.2680    4.2640    4.8710 ha        1 3EQ      0.169500
     60 H20         7.4580    2.6040    4.5690 ha        1 3EQ      0.131000
     61 H25         6.1370   -0.9230    5.2580 ha        1 3EQ      0.155000
     62 H26         8.3390    0.0700    5.7270 ha        1 3EQ      0.155000
     63 H29         9.5120    1.8970    5.4620 h1        1 3EQ      0.036200
     64 H29A       10.7140    0.5250    5.7420 h1        1 3EQ      0.036200
     65 H34        10.4820    0.4200    1.4720 ha        1 3EQ      0.168000
     66 H35         9.9000   -0.2640   -0.8710 ha        1 3EQ      0.130000
     67 H36         7.6890   -1.3110   -1.3380 ha        1 3EQ      0.123000
     68 H37         6.0570   -1.6830    0.4690 ha        1 3EQ      0.162000
@<TRIPOS>BOND
     1    1    2 1   
     2    1   39 1   
     3    1   40 1   
     4    1   41 1   
     5    2    3 1   
     6    2   42 1   
     7    2   43 1   
     8    3    4 1   
     9    3   44 1   
    10    3   45 1   
    11    4    5 1   
    12    4   46 1   
    13    4   47 1   
    14    5    6 1   
    15    5   21 1   
    16    6    7 ar  
    17    6   11 ar  
    18    7    8 ar  
    19    7   48 1   
    20    8    9 ar  
    21    8   49 1   
    22    9   10 ar  
    23    9   50 1   
    24   10   11 ar  
    25   10   13 1   
    26   11   12 1   
    27   12   51 1   
    28   12   52 1   
    29   12   53 1   
    30   13   14 ar  
    31   13   20 ar  
    32   14   15 ar  
    33   14   54 1   
    34   15   16 ar  
    35   15   55 1   
    36   16   17 1   
    37   16   19 ar  
    38   17   18 1   
    39   18   56 1   
    40   18   57 1   
    41   18   58 1   
    42   19   20 ar  
    43   19   59 1   
    44   20   60 1   
    45   21   22 2   
    46   21   23 2   
    47   21   24 1   
    48   24   25 ar  
    49   24   38 ar  
    50   25   26 ar  
    51   25   61 1   
    52   26   27 ar  
    53   26   62 1   
    54   27   28 1   
    55   27   33 ar  
    56   28   29 1   
    57   29   30 1   
    58   29   63 1   
    59   29   64 1   
    60   30   31 1   
    61   30   32 1   
    62   33   34 ar  
    63   33   38 ar  
    64   34   35 ar  
    65   34   65 1   
    66   35   36 ar  
    67   35   66 1   
    68   36   37 ar  
    69   36   67 1   
    70   37   38 ar  
    71   37   68 1   
@<TRIPOS>SUBSTRUCTURE
     1 3EQ         1 TEMP              0 ****  ****    0 ROOT
