@<TRIPOS>MOLECULE
3EQ
   68    71     1     0     0
SMALL
bcc


@<TRIPOS>ATOM
      1 C1         -0.2950   -0.2690    0.0740 c3        1 3EQ     -0.091100
      2 C2          1.1670    0.0940    0.0660 c3        1 3EQ     -0.077400
      3 C3          1.8210   -0.2230    1.3930 c3        1 3EQ     -0.105400
      4 C4          3.3100    0.1370    1.3430 c3        1 3EQ      0.232800
      5 N5          4.0160   -0.0450    2.5860 nh        1 3EQ     -0.685900
      6 C6          3.9300    1.0110    3.5300 ca        1 3EQ      0.112600
      7 C7          2.9520    0.9480    4.5450 ca        1 3EQ     -0.120000
      8 C8          2.8890    1.9330    5.5240 ca        1 3EQ     -0.144000
      9 C9          3.8170    2.9690    5.5370 ca        1 3EQ     -0.117000
     10 C10         4.8030    3.0480    4.5460 cp        1 3EQ     -0.027000
     11 C11         4.8200    2.1150    3.4900 ca        1 3EQ     -0.044300
     12 C12         5.7650    2.2880    2.3620 c3        1 3EQ     -0.066800
     13 C13         5.8490    4.0640    4.6760 cp        1 3EQ     -0.072000
     14 C14         5.5370    5.4200    4.8380 ca        1 3EQ     -0.110000
     15 C15         6.5510    6.3590    4.9980 ca        1 3EQ     -0.142000
     16 C16         7.8970    5.9640    5.0100 ca        1 3EQ      0.017900
     17 S17         9.0450    7.1940    5.2130 ss        1 3EQ     -0.240000
     18 C18        10.6170    6.4080    5.1770 c3        1 3EQ     -0.048000
     19 C19         8.2110    4.6080    4.8580 ca        1 3EQ     -0.142000
     20 C20         7.1960    3.6720    4.6900 ca        1 3EQ     -0.110000
     21 S21         4.7860   -1.4620    2.9530 sy        1 3EQ      1.518200
     22 O22         4.3060   -1.9560    4.1930 o         1 3EQ     -0.670800
     23 O23         4.5880   -2.3650    1.8780 o         1 3EQ     -0.670800
     24 C24         6.3770   -1.0060    3.1300 ca        1 3EQ     -0.472500
     25 C25         6.8050   -0.7120    4.4250 ca        1 3EQ      0.062000
     26 C26         8.0470   -0.1490    4.7070 ca        1 3EQ     -0.296000
     27 C27         8.9220    0.1400    3.6600 ca        1 3EQ      0.253100
     28 O28        10.1010    0.7930    3.7940 os        1 3EQ     -0.274900
     29 C29        10.3980    1.3540    5.0850 c3        1 3EQ     -0.018600
     30 C30        11.5740    2.3540    4.8750 c         1 3EQ      0.930600
     31 O31        12.7280    1.8850    4.7360 o         1 3EQ     -0.816300
     32 O32        11.2700    3.5790    4.9170 o         1 3EQ     -0.816300
     33 C33         8.5850   -0.2560    2.3180 ca        1 3EQ     -0.112000
     34 C34         9.5130   -0.0640    1.2620 ca        1 3EQ     -0.062000
     35 C35         9.1980   -0.4440   -0.0210 ca        1 3EQ     -0.174000
     36 C36         7.9420   -1.0300   -0.2860 ca        1 3EQ     -0.093000
     37 C37         7.0250   -1.2180    0.7220 ca        1 3EQ     -0.183000
     38 C38         7.3140   -0.8350    2.0620 ca        1 3EQ      0.105000
     39 H1         -0.8370    0.2980    0.8690 hc        1 3EQ      0.030033
     40 H1A        -0.4290   -1.3600    0.2700 hc        1 3EQ      0.030033
     41 H1B        -0.7610   -0.0280   -0.9120 hc        1 3EQ      0.030033
     42 H2          1.6900   -0.4700   -0.7520 hc        1 3EQ      0.038700
     43 H2A         1.2830    1.1870   -0.1590 hc        1 3EQ      0.038700
     44 H3          1.3170    0.3530    2.2130 hc        1 3EQ      0.050200
     45 H3A         1.7010   -1.3140    1.6230 hc        1 3EQ      0.050200
     46 H4          3.4030    1.2110    1.0130 h1        1 3EQ      0.054700
     47 H4A         3.8080   -0.5100    0.5610 h1        1 3EQ      0.054700
     48 H7          2.2510    0.0990    4.5800 ha        1 3EQ      0.143000
     49 H8          2.1150    1.8780    6.3040 ha        1 3EQ      0.127000
     50 H9          3.7960    3.7240    6.3380 ha        1 3EQ      0.134000
     51 H12         5.2480    2.1320    1.3830 hc        1 3EQ      0.055367
     52 H12A        6.2130    3.3130    2.3570 hc        1 3EQ      0.055367
     53 H12B        6.6000    1.5430    2.4380 hc        1 3EQ      0.055367
     54 H14         4.4860    5.7420    4.8330 ha        1 3EQ      0.131000
     55 H15         6.2970    7.4230    5.1170 ha        1 3EQ      0.169500
     56 H18        10.7490    5.6660    5.9980 h1        1 3EQ      0.086700
     57 H18A       11.3560    7.2330    5.2920 h1        1 3EQ      0.086700
     58 H18B       10.8080    5.8610    4.2240 h1        1 3EQ      0.086700
     59 H19         9.2690    4.2630    4.8670 ha        1 3EQ      0.169500
     60 H20         7.4560    2.6070    4.5670 ha        1 3EQ      0.131000
     61 H25         6.1180   -0.9110    5.2720 ha        1 3EQ      0.155000
     62 H26         8.3210    0.0780    5.7470 ha        1 3EQ      0.155000
     63 H29        10.6970    0.5240    5.7720 h1        1 3EQ      0.036200
     64 H29A        9.5020    1.8990    5.4770 h1        1 3EQ      0.036200
     65 H34        10.4870    0.3970    1.5010 ha        1 3EQ      0.168000
     66 H35         9.9150   -0.2990   -0.8420 ha        1 3EQ      0.130000
     67 H36         7.7020   -1.3410   -1.3140 ha        1 3EQ      0.123000
     68 H37         6.0600   -1.6980    0.4870 ha        1 3EQ      0.162000
@<TRIPOS>BOND
     1    1    2 1   
     2    1   39 1   
     3    1   40 1   
     4    1   41 1   
     5    2    3 1   
     6    2   42 1   
     7    2   43 1   
     8    3    4 1   
     9    3   44 1   
    10    3   45 1   
    11    4    5 1   
    12    4   46 1   
    13    4   47 1   
    14    5    6 1   
    15    5   21 1   
    16    6    7 ar  
    17    6   11 ar  
    18    7    8 ar  
    19    7   48 1   
    20    8    9 ar  
    21    8   49 1   
    22    9   10 ar  
    23    9   50 1   
    24   10   11 ar  
    25   10   13 1   
    26   11   12 1   
    27   12   51 1   
    28   12   52 1   
    29   12   53 1   
    30   13   14 ar  
    31   13   20 ar  
    32   14   15 ar  
    33   14   54 1   
    34   15   16 ar  
    35   15   55 1   
    36   16   17 1   
    37   16   19 ar  
    38   17   18 1   
    39   18   56 1   
    40   18   57 1   
    41   18   58 1   
    42   19   20 ar  
    43   19   59 1   
    44   20   60 1   
    45   21   22 2   
    46   21   23 2   
    47   21   24 1   
    48   24   25 ar  
    49   24   38 ar  
    50   25   26 ar  
    51   25   61 1   
    52   26   27 ar  
    53   26   62 1   
    54   27   28 1   
    55   27   33 ar  
    56   28   29 1   
    57   29   30 1   
    58   29   63 1   
    59   29   64 1   
    60   30   31 1   
    61   30   32 1   
    62   33   34 ar  
    63   33   38 ar  
    64   34   35 ar  
    65   34   65 1   
    66   35   36 ar  
    67   35   66 1   
    68   36   37 ar  
    69   36   67 1   
    70   37   38 ar  
    71   37   68 1   
@<TRIPOS>SUBSTRUCTURE
     1 3EQ         1 TEMP              0 ****  ****    0 ROOT
