@<TRIPOS>MOLECULE
3EQ
   68    71     1     0     0
SMALL
bcc


@<TRIPOS>ATOM
      1 C1          7.6040   -1.4960   -1.5950 c3        1 3EQ     -0.091100
      2 C2          6.2250   -0.9740   -1.9070 c3        1 3EQ     -0.077400
      3 C3          5.4290   -0.7300   -0.6430 c3        1 3EQ     -0.105400
      4 C4          4.0430   -0.1800   -0.9940 c3        1 3EQ      0.232800
      5 N5          3.1670    0.0100    0.1340 nh        1 3EQ     -0.685900
      6 C6          2.4500   -1.1290    0.5860 ca        1 3EQ      0.112600
      7 C7          2.9790   -1.9000    1.6430 ca        1 3EQ     -0.120000
      8 C8          2.2670   -2.9800    2.1520 ca        1 3EQ     -0.144000
      9 C9          1.0050   -3.2850    1.6520 ca        1 3EQ     -0.117000
     10 C10         0.4560   -2.5300    0.6090 cp        1 3EQ     -0.027000
     11 C11         1.2050   -1.4950    0.0150 ca        1 3EQ     -0.044300
     12 C12         0.6860   -0.7980   -1.1860 c3        1 3EQ     -0.066800
     13 C13        -0.9300   -2.7880    0.2100 cp        1 3EQ     -0.072000
     14 C14        -1.3630   -4.0720   -0.1450 ca        1 3EQ     -0.110000
     15 C15        -2.6940   -4.2940   -0.4820 ca        1 3EQ     -0.142000
     16 C16        -3.6230   -3.2440   -0.4620 ca        1 3EQ      0.017900
     17 S17        -5.2150   -3.6340   -0.8900 ss        1 3EQ     -0.240000
     18 C18        -6.1330   -2.1370   -0.7850 c3        1 3EQ     -0.048000
     19 C19        -3.1950   -1.9620   -0.0990 ca        1 3EQ     -0.142000
     20 C20        -1.8620   -1.7400    0.2310 ca        1 3EQ     -0.110000
     21 S21         3.0890    1.4480    0.9460 sy        1 3EQ      1.518200
     22 O22         3.3400    1.2300    2.3250 o         1 3EQ     -0.670800
     23 O23         4.0080    2.3470    0.3460 o         1 3EQ     -0.670800
     24 C24         1.5040    1.9190    0.7520 ca        1 3EQ     -0.472500
     25 C25         0.6170    1.5680    1.7690 ca        1 3EQ      0.062000
     26 C26        -0.7630    1.7330    1.6670 ca        1 3EQ     -0.296000
     27 C27        -1.3030    2.2780    0.5020 ca        1 3EQ      0.253100
     28 O28        -2.6270    2.3780    0.2350 os        1 3EQ     -0.274900
     29 C29        -3.5310    1.7450    1.1570 c3        1 3EQ     -0.018600
     30 C30        -4.9130    1.6650    0.4400 c         1 3EQ      0.930600
     31 O31        -5.6020    2.7100    0.3710 o         1 3EQ     -0.815800
     32 O32        -5.2540    0.5210    0.0270 o         1 3EQ     -0.815800
     33 C33        -0.4270    2.7730   -0.5280 ca        1 3EQ     -0.112000
     34 C34        -0.9620    3.4250   -1.6680 ca        1 3EQ     -0.062000
     35 C35        -0.1310    3.9040   -2.6530 ca        1 3EQ     -0.174000
     36 C36         1.2650    3.7450   -2.5240 ca        1 3EQ     -0.093000
     37 C37         1.8040    3.1090   -1.4300 ca        1 3EQ     -0.183000
     38 C38         0.9760    2.5970   -0.3920 ca        1 3EQ      0.105000
     39 H1          7.5430   -2.4600   -1.0360 hc        1 3EQ      0.030033
     40 H1A         8.1750   -1.6700   -2.5390 hc        1 3EQ      0.030033
     41 H1B         8.1700   -0.7630   -0.9700 hc        1 3EQ      0.030033
     42 H2          6.3070   -0.0160   -2.4870 hc        1 3EQ      0.038700
     43 H2A         5.6820   -1.7100   -2.5570 hc        1 3EQ      0.038700
     44 H3          5.3260   -1.6880   -0.0670 hc        1 3EQ      0.050200
     45 H3A         5.9740   -0.0010    0.0120 hc        1 3EQ      0.050200
     46 H4          4.1740    0.8200   -1.5050 h1        1 3EQ      0.054200
     47 H4A         3.5590   -0.8840   -1.7300 h1        1 3EQ      0.054200
     48 H7          3.9500   -1.6280    2.0880 ha        1 3EQ      0.143000
     49 H8          2.6950   -3.5780    2.9690 ha        1 3EQ      0.127000
     50 H9          0.4210   -4.1120    2.0840 ha        1 3EQ      0.134000
     51 H12         0.3240    0.2280   -0.9120 hc        1 3EQ      0.055367
     52 H12A        1.4860   -0.6910   -1.9600 hc        1 3EQ      0.055367
     53 H12B       -0.1680   -1.3560   -1.6460 hc        1 3EQ      0.055367
     54 H14        -0.6450   -4.9040   -0.1620 ha        1 3EQ      0.131000
     55 H15        -3.0240   -5.3040   -0.7680 ha        1 3EQ      0.169500
     56 H18        -5.7410   -1.3390   -1.4580 h1        1 3EQ      0.086700
     57 H18A       -7.1680   -2.4100   -1.0880 h1        1 3EQ      0.086700
     58 H18B       -6.1410   -1.7070    0.2440 h1        1 3EQ      0.086700
     59 H19        -3.9090   -1.1090   -0.0690 ha        1 3EQ      0.169500
     60 H20        -1.5350   -0.7240    0.5120 ha        1 3EQ      0.131000
     61 H25         1.0190    1.1120    2.6960 ha        1 3EQ      0.155000
     62 H26        -1.4140    1.4190    2.4940 ha        1 3EQ      0.155000
     63 H29        -3.1690    0.7130    1.3970 h1        1 3EQ      0.036200
     64 H29A       -3.5960    2.3730    2.0790 h1        1 3EQ      0.036200
     65 H34        -2.0580    3.5350   -1.7400 ha        1 3EQ      0.168000
     66 H35        -0.5410    4.4120   -3.5370 ha        1 3EQ      0.130000
     67 H36         1.9250    4.1400   -3.3110 ha        1 3EQ      0.123000
     68 H37         2.9000    3.0180   -1.3470 ha        1 3EQ      0.162000
@<TRIPOS>BOND
     1    1    2 1   
     2    1   39 1   
     3    1   40 1   
     4    1   41 1   
     5    2    3 1   
     6    2   42 1   
     7    2   43 1   
     8    3    4 1   
     9    3   44 1   
    10    3   45 1   
    11    4    5 1   
    12    4   46 1   
    13    4   47 1   
    14    5    6 1   
    15    5   21 1   
    16    6    7 ar  
    17    6   11 ar  
    18    7    8 ar  
    19    7   48 1   
    20    8    9 ar  
    21    8   49 1   
    22    9   10 ar  
    23    9   50 1   
    24   10   11 ar  
    25   10   13 1   
    26   11   12 1   
    27   12   51 1   
    28   12   52 1   
    29   12   53 1   
    30   13   14 ar  
    31   13   20 ar  
    32   14   15 ar  
    33   14   54 1   
    34   15   16 ar  
    35   15   55 1   
    36   16   17 1   
    37   16   19 ar  
    38   17   18 1   
    39   18   56 1   
    40   18   57 1   
    41   18   58 1   
    42   19   20 ar  
    43   19   59 1   
    44   20   60 1   
    45   21   22 2   
    46   21   23 2   
    47   21   24 1   
    48   24   25 ar  
    49   24   38 ar  
    50   25   26 ar  
    51   25   61 1   
    52   26   27 ar  
    53   26   62 1   
    54   27   28 1   
    55   27   33 ar  
    56   28   29 1   
    57   29   30 1   
    58   29   63 1   
    59   29   64 1   
    60   30   31 1   
    61   30   32 1   
    62   33   34 ar  
    63   33   38 ar  
    64   34   35 ar  
    65   34   65 1   
    66   35   36 ar  
    67   35   66 1   
    68   36   37 ar  
    69   36   67 1   
    70   37   38 ar  
    71   37   68 1   
@<TRIPOS>SUBSTRUCTURE
     1 3EQ         1 TEMP              0 ****  ****    0 ROOT
