@<TRIPOS>MOLECULE
3EQ
   68    60     1     0     0
SMALL
bcc


@<TRIPOS>ATOM
      1 C1         -1.0670   -0.5500   -4.2320 c3        1 3EQ     -0.210000
      2 C2         -0.0400    0.5270   -4.0880 c3        1 3EQ     -0.157000
      3 C3         -0.0090    1.0090   -2.6500 c3        1 3EQ     -0.176000
      4 C4          1.2940    1.7340   -2.3760 c3        1 3EQ     -0.001000
      5 N5          1.6470    1.5890   -0.9460 n3        1 3EQ     -0.787000
      6 C6          1.3960    2.6870   -0.0240 c2        1 3EQ      0.051000
      7 C7          1.8470    3.9710   -0.3410 c2        1 3EQ     -0.122000
      8 C8          1.4530    5.0590    0.4290 c1        1 3EQ     -0.142000
      9 C9          0.6040    4.8690    1.5210 c1        1 3EQ     -0.108500
     10 C10         0.1520    3.5790    1.8370 c1        1 3EQ     -0.043500
     11 C11         0.5510    2.4940    1.0620 c1        1 3EQ     -0.020000
     12 C12         0.2070    1.0880    1.5010 c3        1 3EQ     -0.204000
     13 C13        -0.7260    3.3820    2.9180 c1        1 3EQ     -0.043500
     14 C14        -2.1160    3.4500    2.7120 c1        1 3EQ     -0.127667
     15 C15        -2.9910    3.1350    3.7490 c1        1 3EQ     -0.127667
     16 C16        -2.4850    2.7480    5.0070 c1        1 3EQ     -0.231000
     17 S17        -3.6110    2.3660    6.3440 ss        1 3EQ      0.227000
     18 C18        -4.4160    0.7950    6.0140 c3        1 3EQ     -0.366000
     19 C19        -1.1100    2.6810    5.2120 c1        1 3EQ     -0.124000
     20 C20        -0.2230    3.0000    4.1590 c1        1 3EQ     -0.108500
     21 S21         2.5750    0.2550   -0.4410 s4        1 3EQ      2.080800
     22 O22         3.8460    0.2580   -1.0440 o         1 3EQ     -0.558400
     23 O23         2.9250    0.3570    0.9330 o         1 3EQ     -0.558400
     24 C24         1.6990   -1.2710   -0.7840 c1        1 3EQ     -0.935000
     25 C25         0.4450   -1.3020   -0.1410 c2        1 3EQ      0.064000
     26 C26        -0.3030   -2.4640   -0.1390 c1        1 3EQ     -0.303000
     27 C27         0.1810   -3.6090   -0.7730 c1        1 3EQ      0.218000
     28 O28        -0.4900   -4.8660   -0.8690 os        1 3EQ     -0.139000
     29 C29        -1.8490   -4.7650   -1.2050 c3        1 3EQ     -0.126000
     30 C30        -2.3690   -6.1370   -1.6520 c2        1 3EQ      0.348000
     31 O31        -2.4430   -7.1130   -0.7970 o         1 3EQ     -0.544500
     32 O32        -2.6930   -6.3320   -2.8820 o         1 3EQ     -0.544500
     33 C33         1.4320   -3.5850   -1.4180 c1        1 3EQ     -0.115000
     34 C34         1.8770   -4.7370   -2.1280 c1        1 3EQ     -0.127667
     35 C35         3.0730   -4.7060   -2.8310 c1        1 3EQ     -0.127667
     36 C36         3.8520   -3.5320   -2.8460 c1        1 3EQ     -0.127667
     37 C37         3.4180   -2.3940   -2.1480 c1        1 3EQ     -0.127667
     38 C38         2.1870   -2.4300   -1.4250 c1        1 3EQ      0.108000
     39 H1         -0.8250   -1.2980   -3.6880 hc        1 3EQ      0.072333
     40 H1A        -1.1140   -0.8250   -5.1540 hc        1 3EQ      0.072333
     41 H1B        -1.9090   -0.2190   -3.9580 hc        1 3EQ      0.072333
     42 H2          0.8280    0.1790   -4.3330 hc        1 3EQ      0.079000
     43 H2A        -0.2670    1.2640   -4.6680 hc        1 3EQ      0.079000
     44 H3         -0.7980    1.6540   -2.4910 hc        1 3EQ      0.088500
     45 H3A        -0.0860    0.2490   -2.0540 hc        1 3EQ      0.088500
     46 H4          1.1900    2.6740   -2.5890 h1        1 3EQ      0.086500
     47 H4A         2.0220    1.3440   -2.9390 h1        1 3EQ      0.086500
     48 H7          2.4510    4.1040   -1.1170 ha        1 3EQ      0.142000
     49 H8          1.7710    5.9580    0.2050 ha        1 3EQ      0.128000
     50 H9          0.3140    5.6610    2.0830 ha        1 3EQ      0.136500
     51 H12         0.1730    1.0500    2.4620 hc        1 3EQ      0.099333
     52 H12A       -0.6700    0.8330    1.1320 hc        1 3EQ      0.099333
     53 H12B        0.8820    0.4790    1.1790 hc        1 3EQ      0.099333
     54 H14        -2.4670    3.6150    1.8150 ha        1 3EQ      0.143500
     55 H15        -3.9860    3.1840    3.5980 ha        1 3EQ      0.143500
     56 H18        -5.0260    0.8950    5.2680 h1        1 3EQ      0.106667
     57 H18A       -3.7390    0.1180    5.7930 h1        1 3EQ      0.106667
     58 H18B       -4.9100    0.5130    6.7980 h1        1 3EQ      0.106667
     59 H19        -0.7550    2.4090    6.0940 ha        1 3EQ      0.139000
     60 H20         0.7320    2.8790    4.2770 ha        1 3EQ      0.136500
     61 H25         0.1020   -0.5060    0.2980 ha        1 3EQ      0.144000
     62 H26        -1.2040   -2.4820    0.3200 ha        1 3EQ      0.155000
     63 H29        -1.9580   -4.1220   -1.9330 h1        1 3EQ      0.075000
     64 H29A       -2.3400   -4.4720   -0.4490 h1        1 3EQ      0.075000
     65 H34         1.5840   -5.6550   -2.1860 ha        1 3EQ      0.143500
     66 H35         3.4280   -5.4450   -3.3930 ha        1 3EQ      0.143500
     67 H36         4.6790   -3.5290   -3.3770 ha        1 3EQ      0.143500
     68 H37         4.1770   -1.7490   -2.2120 ha        1 3EQ      0.143500
@<TRIPOS>BOND
     1    1    2 1   
     2    1   39 1   
     3    1   40 1   
     4    1   41 1   
     5    2    3 1   
     6    2   42 1   
     7    2   43 1   
     8    3    4 1   
     9    3   44 1   
    10    3   45 1   
    11    4    5 1   
    12    4   46 1   
    13    4   47 1   
    14    5    6 1   
    15    5   21 1   
    16    6    7 1   
    17    6   11 1   
    18    7    8 1   
    19    7   48 1   
    20    8   49 1   
    21    9   10 1   
    22    9   50 1   
    23   11   12 1   
    24   12   51 1   
    25   12   52 1   
    26   12   53 1   
    27   13   20 1   
    28   14   15 1   
    29   14   54 1   
    30   15   55 1   
    31   16   17 1   
    32   16   19 1   
    33   17   18 1   
    34   18   56 1   
    35   18   57 1   
    36   18   58 1   
    37   19   59 1   
    38   20   60 1   
    39   21   22 1   
    40   21   23 1   
    41   24   25 1   
    42   24   38 1   
    43   25   26 1   
    44   25   61 1   
    45   26   62 1   
    46   27   28 1   
    47   27   33 1   
    48   28   29 1   
    49   29   30 1   
    50   29   63 1   
    51   29   64 1   
    52   30   31 1   
    53   30   32 1   
    54   33   38 1   
    55   34   35 1   
    56   34   65 1   
    57   35   66 1   
    58   36   37 1   
    59   36   67 1   
    60   37   68 1   
@<TRIPOS>SUBSTRUCTURE
     1 3EQ         1 TEMP              0 ****  ****    0 ROOT
