@<TRIPOS>MOLECULE
3ER
   26    25     1     0     0
SMALL
bcc


@<TRIPOS>ATOM
      1 C1         -0.0940    1.0130    0.3420 c2        1 3ER     -0.082000
      2 C2          1.1280    1.3510    0.8120 c2        1 3ER     -0.214000
      3 C3          1.8630    0.5220    1.7180 c1        1 3ER     -0.013000
      4 C13        -4.8750    2.0940    1.7150 c3        1 3ER     -0.942000
      5 C4          1.1190   -0.5470    2.3320 c2        1 3ER     -0.133000
      6 C5         -0.0970   -0.9460    1.8860 c2        1 3ER     -0.111000
      7 C6         -0.7610   -0.2520    0.7500 c3        1 3ER     -0.120000
      8 C7         -2.2640   -0.0450    1.0300 c3        1 3ER      0.012000
      9 N8         -2.5680    0.9300    2.0300 n3        1 3ER     -0.893000
     10 C9         -2.8760   -4.2400    2.9910 c1        1 3ER      0.421000
     11 O11        -2.5830   -3.2000    2.4890 o         1 3ER     -0.210500
     12 S12        -3.1990    2.3870    1.7130 s6        1 3ER      2.821000
     13 O14        -2.9080    3.2620    2.7760 o         1 3ER     -0.932000
     14 O15        -2.8380    2.7930    0.4090 o         1 3ER     -0.932000
     15 CL1         1.8620   -1.3530    3.6320 cl        1 3ER     -0.002000
     16 H1         -0.7020   -0.9580   -0.1390 hc        1 3ER      0.148000
     17 H2         -0.6480    1.6370   -0.3820 ha        1 3ER      0.160000
     18 H3          1.6240    2.2820    0.4870 ha        1 3ER      0.160000
     19 H4         -5.2020    1.3540    0.9460 h1        1 3ER      0.154000
     20 H5         -5.4320    3.0410    1.4910 h1        1 3ER      0.154000
     21 H6         -5.2630    1.7330    2.6980 h1        1 3ER      0.154000
     22 H17        -0.6380   -1.8140    2.2990 ha        1 3ER      0.151000
     23 H18        -2.6910   -1.0460    1.3370 h1        1 3ER      0.103000
     24 H19        -2.7510    0.2710    0.0610 h1        1 3ER      0.103000
     25 OXT        -3.1710   -5.2760    3.4910 o         1 3ER     -0.210500
     26 H82        -2.2610    0.6820    2.9410 hn        1 3ER      0.253000
@<TRIPOS>BOND
     1    1    2 1   
     2    1    7 1   
     3    1   17 1   
     4    2    3 1   
     5    2   18 1   
     6    3    5 1   
     7    4   12 1   
     8    4   19 1   
     9    4   20 1   
    10    4   21 1   
    11    5    6 1   
    12    5   15 1   
    13    6    7 1   
    14    6   22 1   
    15    7    8 1   
    16    7   16 1   
    17    8    9 1   
    18    8   23 1   
    19    8   24 1   
    20    9   12 1   
    21    9   26 1   
    22   10   11 1   
    23   10   25 1   
    24   12   13 1   
    25   12   14 1   
@<TRIPOS>SUBSTRUCTURE
     1 3ER         1 TEMP              0 ****  ****    0 ROOT
