@<TRIPOS>MOLECULE
3ER
   25    25     1     0     0
SMALL
bcc


@<TRIPOS>ATOM
      1 C1         -0.0150    0.3800    0.1020 c2        1 3ER     -0.052000
      2 C2          1.1590    0.9890    0.4050 c2        1 3ER     -0.230000
      3 C3          1.8650    0.7490    1.6200 c1        1 3ER     -0.084000
      4 C13        -5.0790    1.0950    1.8320 c3        1 3ER     -0.981000
      5 C4          1.2540   -0.1620    2.5340 c2        1 3ER     -0.160000
      6 C5          0.0770   -0.7990    2.2880 c2        1 3ER     -0.033000
      7 C6         -0.6220   -0.6310    0.9940 c3        1 3ER     -0.124000
      8 C7         -2.1460   -0.4290    1.1730 c3        1 3ER     -0.035000
      9 N8         -2.4700    0.7260    1.9680 n3        1 3ER     -0.860000
     10 C9         -2.7680   -1.7780    1.7040 c2        1 3ER      0.322000
     11 O11        -3.8260   -1.7140    2.3840 o         1 3ER     -0.547500
     12 S12        -3.5690    1.8160    1.5500 s6        1 3ER      2.816000
     13 O14        -3.4930    2.1160    0.1630 o         1 3ER     -0.961500
     14 O15        -3.4700    2.9400    2.4160 o         1 3ER     -0.961500
     15 CL1         2.0650   -0.4330    4.0170 cl        1 3ER     -0.052000
     16 H1         -0.5460   -1.6530    0.4750 hc        1 3ER      0.206000
     17 H2         -0.5680    0.5970   -0.8270 ha        1 3ER      0.133000
     18 H3          1.6060    1.7200   -0.2880 ha        1 3ER      0.133000
     19 H4         -5.0260   -0.0090    2.0700 h1        1 3ER      0.168000
     20 H5         -5.7480    1.1810    0.9420 h1        1 3ER      0.168000
     21 H6         -5.6120    1.5670    2.6920 h1        1 3ER      0.168000
     22 H17        -0.4070   -1.4980    2.9930 ha        1 3ER      0.166000
     23 H18        -2.1430    0.6510    2.9030 hn        1 3ER      0.247000
     24 H19        -2.5820   -0.2690    0.1400 h1        1 3ER      0.102000
     25 OXT        -2.1720   -2.8360    1.3710 o         1 3ER     -0.547500
@<TRIPOS>BOND
     1    1    2 1   
     2    1    7 1   
     3    1   17 1   
     4    2    3 1   
     5    2   18 1   
     6    3    5 1   
     7    4   12 1   
     8    4   19 1   
     9    4   20 1   
    10    4   21 1   
    11    5    6 1   
    12    5   15 1   
    13    6    7 1   
    14    6   22 1   
    15    7    8 1   
    16    7   16 1   
    17    8    9 1   
    18    8   10 1   
    19    8   24 1   
    20    9   12 1   
    21    9   23 1   
    22   10   11 1   
    23   10   25 1   
    24   12   13 1   
    25   12   14 1   
@<TRIPOS>SUBSTRUCTURE
     1 3ER         1 TEMP              0 ****  ****    0 ROOT
