@<TRIPOS>MOLECULE
3ER
   26    25     1     0     0
SMALL
bcc


@<TRIPOS>ATOM
      1 C1         -0.0880    0.9960    0.3020 c2        1 3ER     -0.082000
      2 C2          1.1370    1.3230    0.7720 c2        1 3ER     -0.214000
      3 C3          1.8630    0.4890    1.6810 c1        1 3ER     -0.013000
      4 C13        -4.8590    2.1310    1.6690 c3        1 3ER     -0.942000
      5 C4          1.1070   -0.5700    2.2970 c2        1 3ER     -0.133000
      6 C5         -0.1130   -0.9580    1.8530 c2        1 3ER     -0.112000
      7 C6         -0.7690   -0.2610    0.7150 c3        1 3ER     -0.120000
      8 C7         -2.2700   -0.0370    0.9940 c3        1 3ER      0.012000
      9 N8         -2.5640    0.9440    1.9890 n7        1 3ER     -0.893000
     10 C9         -2.9320   -4.2050    2.9960 c1        1 3ER      0.421000
     11 O11        -2.6260   -3.1750    2.4790 o         1 3ER     -0.210500
     12 S12        -3.1800    2.4070    1.6670 s6        1 3ER      2.821000
     13 O14        -2.8810    3.2820    2.7280 o         1 3ER     -0.932000
     14 O15        -2.8140    2.8040    0.3630 o         1 3ER     -0.932000
     15 Cl1         1.8420   -1.3790    3.6010 cl        1 3ER     -0.002000
     16 H1         -0.7170   -0.9700   -0.1730 hc        1 3ER      0.148000
     17 H2         -0.6370    1.6230   -0.4230 ha        1 3ER      0.160000
     18 H3          1.6430    2.2480    0.4440 ha        1 3ER      0.160000
     19 H4         -5.2510    1.7760    2.6530 h1        1 3ER      0.154000
     20 H5         -5.4060    3.0820    1.4420 h1        1 3ER      0.154000
     21 H6         -5.1930    1.3910    0.9020 h1        1 3ER      0.154000
     22 H17        -0.6620   -1.8190    2.2680 ha        1 3ER      0.151000
     23 H18        -2.7070   -1.0330    1.3040 h1        1 3ER      0.103000
     24 H19        -2.7530    0.2800    0.0230 h1        1 3ER      0.103000
     25 OXT        -3.2410   -5.2300    3.5090 o         1 3ER     -0.210500
     26 H82        -2.2600    0.6960    2.9020 hn        1 3ER      0.253000
@<TRIPOS>BOND
     1    1    2 1   
     2    1    7 1   
     3    1   17 1   
     4    2    3 1   
     5    2   18 1   
     6    3    5 1   
     7    4   12 1   
     8    4   19 1   
     9    4   20 1   
    10    4   21 1   
    11    5    6 1   
    12    5   15 1   
    13    6    7 1   
    14    6   22 1   
    15    7    8 1   
    16    7   16 1   
    17    8    9 1   
    18    8   23 1   
    19    8   24 1   
    20    9   12 1   
    21    9   26 1   
    22   10   11 1   
    23   10   25 1   
    24   12   13 1   
    25   12   14 1   
@<TRIPOS>SUBSTRUCTURE
     1 3ER         1 TEMP              0 ****  ****    0 ROOT
