@<TRIPOS>MOLECULE
3ES
   88    79     1     0     0
SMALL
bcc


@<TRIPOS>ATOM
      1 CBM        -0.6790   -4.4710    0.4680 c1        1 3ES      0.373000
      2 OAB        -1.4230   -4.9830    1.2790 o         1 3ES     -0.398000
      3 OBJ         0.0330   -5.2810   -0.4380 o         1 3ES     -0.269000
      4 CBB         0.2330   -6.5830    0.0090 c3        1 3ES      0.036000
      5 CBP         1.2340   -7.2840   -0.9050 c1        1 3ES     -0.081000
      6 CAQ         2.3740   -6.6280   -1.2970 c1        1 3ES     -0.096000
      7 CAK         3.2790   -7.2550   -2.1340 c1        1 3ES     -0.131900
      8 CAH         3.0360   -8.5500   -2.5810 c1        1 3ES     -0.131900
      9 CAL         1.8920   -9.2100   -2.1890 c1        1 3ES     -0.131900
     10 CAR         0.9870   -8.5860   -1.3530 c1        1 3ES     -0.131900
     11 OAD        -2.8010   -0.6120    1.4770 o         1 3ES     -1.158000
     12 PBY        -1.3410   -0.5590    1.0730 p3        1 3ES      2.815000
     13 OAG        -0.5870    0.6090    1.9140 oh        1 3ES     -0.837000
     14 CBX        -0.5410   -2.1960    1.4290 c2        1 3ES     -0.691000
     15 NBI        -0.6770   -3.0470    0.3000 n3        1 3ES     -0.282000
     16 CBE         0.9270   -1.9790    1.7250 c3        1 3ES     -0.148000
     17 CBQ         1.3830   -2.9470    2.8790 c2        1 3ES     -0.078000
     18 CAS         1.1860   -4.3040    2.7520 c2        1 3ES     -0.126000
     19 CAM         1.7720   -5.1870    3.6710 c1        1 3ES     -0.146000
     20 CAI         2.5450   -4.6970    4.7030 c1        1 3ES     -0.131900
     21 CAN         2.7440   -3.3400    4.8320 c1        1 3ES     -0.131900
     22 CAT         2.1600   -2.4570    3.9150 c1        1 3ES     -0.115000
     23 CBC        -2.1950    1.6020   -2.1300 c3        1 3ES     -0.101000
     24 CBS        -3.4420    2.3340   -1.6200 c2        1 3ES     -0.022000
     25 CBA        -4.2720    3.1490   -2.3820 c1        1 3ES     -0.204000
     26 OBK        -4.0410    2.1350   -0.4260 os        1 3ES     -0.065000
     27 NBG        -5.2530    2.8260   -0.4300 n2        1 3ES     -0.035000
     28 CBU        -5.3800    3.4420   -1.6350 c2        1 3ES     -0.077000
     29 CBT        -6.4440    4.2080   -2.0380 c1        1 3ES     -0.012000
     30 CAU        -7.0050    5.1270   -1.1590 c1        1 3ES     -0.131900
     31 CAO        -8.1400    5.8230   -1.5180 c1        1 3ES     -0.131900
     32 CAJ        -8.7270    5.6050   -2.7650 c1        1 3ES     -0.131900
     33 CAP        -8.1690    4.6890   -3.6440 c1        1 3ES     -0.131900
     34 CAV        -7.0290    3.9900   -3.2840 c1        1 3ES     -0.104000
     35 CBF        -1.2090   -0.1860   -0.7580 c3        1 3ES     -0.936000
     36 CBV        -1.2720    1.3070   -0.9780 c3        1 3ES     -0.095000
     37 CBN         0.1590    1.8500   -1.3020 c2        1 3ES      0.290000
     38 OAC         0.9150    1.1930   -1.9620 o         1 3ES     -0.375000
     39 N           0.5840    3.1470   -0.7750 n         1 3ES     -0.302000
     40 CA          1.9870    3.3860   -0.4630 c3        1 3ES     -0.079000
     41 C           2.4650    2.3580    0.4470 c2        1 3ES      0.326000
     42 O           1.9000    2.1920    1.5650 o         1 3ES     -0.585000
     43 CB          2.1380    4.7830    0.2070 c3        1 3ES     -0.107000
     44 CG          3.6230    5.0430    0.5140 c2        1 3ES     -0.088000
     45 CD1         4.2920    6.0810   -0.1300 c2        1 3ES     -0.104000
     46 CD2         4.2770    4.2840    1.4690 c1        1 3ES     -0.084000
     47 CE1         5.6130    6.3540    0.1860 c1        1 3ES     -0.170000
     48 CE2         5.6060    4.5610    1.7860 c1        1 3ES     -0.214000
     49 CZ          6.2720    5.5930    1.1460 c1        1 3ES      0.055000
     50 OH          7.6260    5.8130    1.4010 oh        1 3ES     -0.268000
     51 OXT         3.4630    1.6380    0.1250 o         1 3ES     -0.585000
     52 HBB1       -0.5630   -7.0370   -0.0030 h1        1 3ES      0.100000
     53 HBB2        0.5860   -6.5630    0.9310 h1        1 3ES      0.100000
     54 HAQ         2.5530   -5.7510   -0.9750 ha        1 3ES      0.169000
     55 HAK         4.0640   -6.8010   -2.4040 ha        1 3ES      0.128700
     56 HAH         3.6740   -8.9900   -3.1700 ha        1 3ES      0.128700
     57 HAL         1.7230  -10.1070   -2.4980 ha        1 3ES      0.128700
     58 HAR         0.1400   -9.0740   -1.0640 ha        1 3ES      0.128700
     59 HAG        -1.1120    0.8900    2.5600 ho        1 3ES      0.270000
     60 HBX        -0.9890   -2.6250    2.2300 h4        1 3ES      0.172000
     61 HBI        -0.7930   -2.7050   -0.4890 hn        1 3ES      0.273000
     62 HBE1        1.4380   -2.1590    0.9390 hc        1 3ES      0.123000
     63 HBE2        1.0770   -1.0130    2.0130 hc        1 3ES      0.123000
     64 HAS         0.6580   -4.6380    2.0510 ha        1 3ES      0.123000
     65 HAM         1.6310   -6.1780    3.5770 ha        1 3ES      0.117000
     66 HAI         2.9440   -5.3010    5.3310 ha        1 3ES      0.128700
     67 HAN         3.1920   -2.9820    5.6440 ha        1 3ES      0.128700
     68 HAT         2.3010   -1.5020    4.0050 ha        1 3ES      0.201000
     69 HBC1       -1.7460    2.1490   -2.7640 hc        1 3ES      0.126500
     70 HBC2       -2.4620    0.7610   -2.5560 hc        1 3ES      0.126500
     71 HBV        -1.6270    1.7650   -0.1260 hc        1 3ES      0.125000
     72 HBA        -4.0950    3.4550   -3.2860 DU        1 3ES      0.199000
     73 HAU        -6.5910    5.2820   -0.2770 ha        1 3ES      0.128700
     74 HAV        -6.6250    3.3270   -3.9180 ha        1 3ES      0.148000
     75 HAO        -8.4910    6.5640   -0.9150 ha        1 3ES      0.128700
     76 HAJ        -9.5250    6.0950   -3.0160 ha        1 3ES      0.128700
     77 HAP        -8.5870    4.5340   -4.5310 ha        1 3ES      0.128700
     78 HBF1       -1.9430   -0.6130   -1.2280 hc        1 3ES      0.189000
     79 HBF2       -0.3590   -0.5290   -1.1010 hc        1 3ES      0.189000
     80 H          -0.0220    3.7890   -0.6290 hn        1 3ES      0.199000
     81 HA          2.5230    3.3600   -1.3010 h1        1 3ES      0.128000
     82 HB1C        1.8010    5.4850   -0.4110 hc        1 3ES      0.093000
     83 HB2C        1.6070    4.8050    1.0610 hc        1 3ES      0.093000
     84 HD1         3.8570    6.5520   -0.9030 ha        1 3ES      0.127000
     85 HD2         3.8090    3.5580    1.9190 ha        1 3ES      0.195000
     86 HE1         6.0940    7.1010   -0.2790 ha        1 3ES      0.134000
     87 HE2         6.0680    4.0260    2.4600 ha        1 3ES      0.125000
     88 HH          7.7150    6.2890    2.1480 ho        1 3ES      0.208000
@<TRIPOS>BOND
     1    1    2 1   
     2    1   15 1   
     3    3    4 1   
     4    4    5 1   
     5    4   52 1   
     6    4   53 1   
     7    5    6 1   
     8    6   54 1   
     9    7    8 1   
    10    7   55 1   
    11    8   56 1   
    12    9   10 1   
    13    9   57 1   
    14   10   58 1   
    15   11   12 1   
    16   12   13 1   
    17   12   35 1   
    18   13   59 1   
    19   14   15 1   
    20   14   16 1   
    21   14   60 1   
    22   15   61 1   
    23   16   17 1   
    24   16   62 1   
    25   16   63 1   
    26   17   18 1   
    27   17   22 1   
    28   18   19 1   
    29   18   64 1   
    30   19   65 1   
    31   20   21 1   
    32   20   66 1   
    33   21   67 1   
    34   22   68 1   
    35   23   24 1   
    36   23   36 1   
    37   23   69 1   
    38   23   70 1   
    39   24   25 1   
    40   24   26 1   
    41   25   28 1   
    42   26   27 1   
    43   27   28 1   
    44   28   29 1   
    45   29   34 1   
    46   30   31 1   
    47   30   73 1   
    48   31   75 1   
    49   32   33 1   
    50   32   76 1   
    51   33   77 1   
    52   34   74 1   
    53   35   36 1   
    54   35   78 1   
    55   35   79 1   
    56   36   37 1   
    57   36   71 1   
    58   37   38 1   
    59   37   39 1   
    60   39   40 1   
    61   39   80 1   
    62   40   41 1   
    63   40   43 1   
    64   40   81 1   
    65   41   42 1   
    66   41   51 1   
    67   43   44 1   
    68   43   82 1   
    69   43   83 1   
    70   44   45 1   
    71   44   46 1   
    72   45   47 1   
    73   45   84 1   
    74   46   85 1   
    75   47   86 1   
    76   48   49 1   
    77   48   87 1   
    78   49   50 1   
    79   50   88 1   
@<TRIPOS>SUBSTRUCTURE
     1 3ES         1 TEMP              0 ****  ****    0 ROOT
