@<TRIPOS>MOLECULE
3ES
   88    92     1     0     0
SMALL
bcc


@<TRIPOS>ATOM
      1 CBM        -3.7180    1.5050    0.2900 c         1 3ES      0.727100
      2 OAB        -3.8420    2.3500    1.1910 o         1 3ES     -0.579000
      3 OBJ        -4.8090    1.2610   -0.5290 os        1 3ES     -0.446900
      4 CBB        -5.9190    2.1560   -0.3330 c3        1 3ES      0.194700
      5 CBP        -6.9560    1.8270   -1.3530 ca        1 3ES     -0.088300
      6 CAQ        -8.3000    2.0810   -1.0540 ca        1 3ES     -0.113000
      7 CAK        -9.2880    1.8220   -2.0020 ca        1 3ES     -0.134000
      8 CAH        -8.9420    1.3000   -3.2480 ca        1 3ES     -0.132000
      9 CAL        -7.6050    1.0400   -3.5460 ca        1 3ES     -0.134000
     10 CAR        -6.6120    1.3040   -2.6030 ca        1 3ES     -0.113000
     11 PBY        -0.1900    0.0150   -0.0180 p5        1 3ES      1.511100
     12 OAG         0.1530    1.0690   -1.1620 oh        1 3ES     -0.814400
     13 CBX        -1.5220    0.6070    0.8570 c3        1 3ES     -0.204500
     14 NBI        -2.5950    0.7840   -0.0930 n         1 3ES     -0.471900
     15 CBE        -1.8300   -0.3650    2.0030 c3        1 3ES     -0.056100
     16 CBQ        -1.4410    0.1470    3.3460 ca        1 3ES     -0.097300
     17 CAS        -1.9340    1.3760    3.8040 ca        1 3ES     -0.123000
     18 CAM        -1.5920    1.8370    5.0730 ca        1 3ES     -0.128000
     19 CAI        -0.7620    1.0760    5.8960 ca        1 3ES     -0.130000
     20 CAN        -0.2750   -0.1510    5.4470 ca        1 3ES     -0.128000
     21 CAT        -0.6120   -0.6160    4.1770 ca        1 3ES     -0.123000
     22 CBC         2.8760   -1.6980    1.2860 c3        1 3ES     -0.112700
     23 CBS         2.0700   -2.9230    1.2550 cc        1 3ES      0.248000
     24 CBA         1.1780   -3.5240    0.3920 cd        1 3ES     -0.331600
     25 OBK         2.2310   -3.7920    2.3740 os        1 3ES     -0.132100
     26 NBG         1.4820   -4.8620    2.2300 nc        1 3ES     -0.375300
     27 CBU         0.8070   -4.7750    1.0600 cd        1 3ES      0.359800
     28 CBT        -0.1510   -5.7330    0.5360 ca        1 3ES     -0.124500
     29 CAU        -0.1110   -7.0820    0.9150 ca        1 3ES     -0.103000
     30 CAO        -1.0400   -7.9800    0.3930 ca        1 3ES     -0.142500
     31 CAJ        -2.0130   -7.5420   -0.5050 ca        1 3ES     -0.128000
     32 CAP        -2.0580   -6.2000   -0.8810 ca        1 3ES     -0.142500
     33 CAV        -1.1340   -5.2940   -0.3650 ca        1 3ES     -0.103000
     34 CBV         2.3180   -0.5680    0.4290 c3        1 3ES     -0.103700
     35 CBN         3.4180    0.5070    0.3040 c         1 3ES      0.648100
     36 OAC         4.3620    0.5290    1.1190 o         1 3ES     -0.607100
     37 N           3.3350    1.3880   -0.7660 n         1 3ES     -0.496900
     38 CA          3.7320    2.7740   -0.5630 c3        1 3ES     -0.054300
     39 C           2.5720    3.6720   -0.0090 c         1 3ES      0.911600
     40 O           1.4600    3.1250    0.2820 o         1 3ES     -0.843300
     41 CB          4.2510    3.4200   -1.8550 c3        1 3ES     -0.034100
     42 CG          5.5590    2.8720   -2.3010 ca        1 3ES     -0.076300
     43 CD1         5.6490    2.0870   -3.4560 ca        1 3ES     -0.093500
     44 CD2         6.7250    3.1520   -1.5730 ca        1 3ES     -0.093500
     45 CE1         6.8780    1.5930   -3.8880 ca        1 3ES     -0.185500
     46 CE2         7.9610    2.6680   -1.9860 ca        1 3ES     -0.185500
     47 CZ          8.0310    1.8870   -3.1500 ca        1 3ES      0.098100
     48 OH          9.2840    1.4410   -3.5230 oh        1 3ES     -0.511100
     49 OXT         2.8120    4.8940    0.1400 o         1 3ES     -0.843300
     50 HBB1       -5.5590    3.2130   -0.4560 h1        1 3ES      0.063700
     51 HBB2       -6.3050    2.0180    0.7130 h1        1 3ES      0.063700
     52 HAQ        -8.5750    2.4880   -0.0690 ha        1 3ES      0.142500
     53 HAK       -10.3420    2.0270   -1.7640 ha        1 3ES      0.128500
     54 HAH        -9.7230    1.0940   -3.9940 ha        1 3ES      0.126000
     55 HAL        -7.3300    0.6260   -4.5270 ha        1 3ES      0.128500
     56 HAR        -5.5550    1.0970   -2.8320 ha        1 3ES      0.142500
     57 HAG         0.3960    1.9740   -0.9220 ho        1 3ES      0.522000
     58 HBX        -1.3120    1.6270    1.3050 h1        1 3ES      0.144700
     59 HBI        -2.7710   -0.0220   -0.6640 hn        1 3ES      0.325500
     60 HBE1       -2.9360   -0.5850    2.0450 hc        1 3ES      0.063200
     61 HBE2       -1.3230   -1.3480    1.7910 hc        1 3ES      0.063200
     62 HAS        -2.5910    1.9790    3.1510 ha        1 3ES      0.149500
     63 HAM        -1.9720    2.8080    5.4210 ha        1 3ES      0.130000
     64 HAI        -0.4870    1.4450    6.8940 ha        1 3ES      0.125000
     65 HAN         0.3830   -0.7530    6.0910 ha        1 3ES      0.130000
     66 HAT        -0.2240   -1.5850    3.8300 ha        1 3ES      0.149500
     67 HBC1        3.9140   -1.9460    0.9220 hc        1 3ES      0.088200
     68 HBC2        2.9900   -1.3390    2.3470 hc        1 3ES      0.088200
     69 HBV         2.0680   -0.9810   -0.5910 hc        1 3ES      0.073700
     70 HBA         0.7780   -3.1640   -0.5560 ha        1 3ES      0.219000
     71 HAU         0.6530   -7.4330    1.6250 ha        1 3ES      0.157000
     72 HAV        -1.1730   -4.2290   -0.6580 ha        1 3ES      0.157000
     73 HAO        -1.0040   -9.0380    0.6920 ha        1 3ES      0.128000
     74 HAJ        -2.7440   -8.2540   -0.9150 ha        1 3ES      0.123000
     75 HAP        -2.8260   -5.8510   -1.5870 ha        1 3ES      0.128000
     76 HBF1        1.3240    1.1590    1.2840 hc        1 3ES      0.144700
     77 HBF2        0.8540   -0.3930    2.0170 hc        1 3ES      0.144700
     78 H           2.5010    1.3210   -1.3140 hn        1 3ES      0.290500
     79 HA          4.5580    2.7940    0.2070 h1        1 3ES      0.083700
     80 HB1C        3.4870    3.3130   -2.6690 hc        1 3ES      0.065200
     81 HB2C        4.3570    4.5200   -1.6350 hc        1 3ES      0.065200
     82 HD1         4.7390    1.8520   -4.0270 ha        1 3ES      0.138000
     83 HD2         6.6520    3.7600   -0.6570 ha        1 3ES      0.138000
     84 HE1         6.9420    0.9740   -4.7930 ha        1 3ES      0.129500
     85 HE2         8.8760    2.8810   -1.4180 ha        1 3ES      0.129500
     86 HH          9.1700    0.8660   -4.2930 ho        1 3ES      0.408000
     87 OAD        -0.5080   -1.2780   -0.6330 o         1 3ES     -0.882300
     88 CBF         1.0790    0.0790    1.0230 c3        1 3ES     -0.469600
@<TRIPOS>BOND
     1    1    2 2   
     2    1    3 1   
     3    1   14 1   
     4    3    4 1   
     5    4    5 1   
     6    4   50 1   
     7    4   51 1   
     8    5    6 ar  
     9    5   10 ar  
    10    6    7 ar  
    11    6   52 1   
    12    7    8 ar  
    13    7   53 1   
    14    8    9 ar  
    15    8   54 1   
    16    9   10 ar  
    17    9   55 1   
    18   10   56 1   
    19   11   12 1   
    20   11   13 1   
    21   11   87 2   
    22   11   88 1   
    23   12   57 1   
    24   13   14 1   
    25   13   15 1   
    26   13   58 1   
    27   14   59 1   
    28   15   16 1   
    29   15   60 1   
    30   15   61 1   
    31   16   17 ar  
    32   16   21 ar  
    33   17   18 ar  
    34   17   62 1   
    35   18   19 ar  
    36   18   63 1   
    37   19   20 ar  
    38   19   64 1   
    39   20   21 ar  
    40   20   65 1   
    41   21   66 1   
    42   22   23 1   
    43   22   34 1   
    44   22   67 1   
    45   22   68 1   
    46   23   24 2   
    47   23   25 1   
    48   24   27 1   
    49   24   70 1   
    50   25   26 1   
    51   26   27 2   
    52   27   28 1   
    53   28   29 ar  
    54   28   33 ar  
    55   29   30 ar  
    56   29   71 1   
    57   30   31 ar  
    58   30   73 1   
    59   31   32 ar  
    60   31   74 1   
    61   32   33 ar  
    62   32   75 1   
    63   33   72 1   
    64   34   35 1   
    65   34   69 1   
    66   34   88 1   
    67   35   36 2   
    68   35   37 1   
    69   37   38 1   
    70   37   78 1   
    71   38   39 1   
    72   38   41 1   
    73   38   79 1   
    74   39   40 1   
    75   39   49 1   
    76   41   42 1   
    77   41   80 1   
    78   41   81 1   
    79   42   43 ar  
    80   42   44 ar  
    81   43   45 ar  
    82   43   82 1   
    83   44   46 ar  
    84   44   83 1   
    85   45   47 ar  
    86   45   84 1   
    87   46   47 ar  
    88   46   85 1   
    89   47   48 1   
    90   48   86 1   
    91   76   88 1   
    92   77   88 1   
@<TRIPOS>SUBSTRUCTURE
     1 3ES         1 TEMP              0 ****  ****    0 ROOT
