@<TRIPOS>MOLECULE
3ES
   89    87     1     0     0
SMALL
bcc


@<TRIPOS>ATOM
      1 CBM         0.0750    0.7540    0.2500 c2        1 3ES      0.382000
      2 OAB         1.2170    0.4580   -0.1490 o         1 3ES     -0.387000
      3 OBJ        -0.4070   -0.2080    1.1190 os        1 3ES     -0.267000
      4 CBB        -1.6650    0.0100    1.7710 c3        1 3ES      0.008000
      5 CBP        -1.8660   -1.1120    2.7400 c2        1 3ES     -0.110000
      6 CAQ        -1.4840   -2.4780    2.2840 c3        1 3ES     -0.228000
      7 CAK        -2.3170   -3.1280    1.3000 c1        1 3ES     -0.041000
      8 CAH        -3.1210    1.3970    4.9360 c1        1 3ES     -0.190000
      9 CAL        -2.7830    0.3470    4.4680 c1        1 3ES     -0.145000
     10 CAR        -2.3970   -0.9020    3.9590 c2        1 3ES     -0.054000
     11 PBY        -0.0640    1.3450   -4.1540 p3        1 3ES      2.649000
     12 OAG        -0.6350    0.0620   -4.4990 o         1 3ES     -1.061000
     13 CBX         2.0580    0.3650   -3.1650 c2        1 3ES     -0.415000
     14 NBI        -0.6220    1.9080   -0.0450 nt        1 3ES     -0.382000
     15 CBE         2.2770   -0.9080   -2.7960 c2        1 3ES     -0.008000
     16 CBQ         2.8200   -1.9720   -3.6070 c2        1 3ES     -0.130000
     17 CAS         1.8440   -2.6350    0.7440 c1        1 3ES     -0.232000
     18 CAM         2.1410   -3.7870    0.8670 c1        1 3ES     -0.232000
     19 CAI         3.4000    0.1100   -6.4840 c1        1 3ES     -0.208000
     20 CAN         3.3380   -0.8120   -5.7200 c1        1 3ES     -0.138000
     21 CAT         3.2800   -1.9250   -4.8710 c2        1 3ES     -0.029000
     22 CBC         0.4190    3.4890   -5.9100 cx        1 3ES     -0.009000
     23 CBS        -0.7360    4.3140   -5.5960 c2        1 3ES     -0.054000
     24 CBA        -1.3350    4.8210   -4.4610 c2        1 3ES     -0.177000
     25 OBK        -1.4520    4.8140   -6.7210 os        1 3ES     -0.053000
     26 NBG        -2.4350    5.5860   -6.3220 n2        1 3ES     -0.008000
     27 CBU        -2.4370    5.6450   -4.9680 c2        1 3ES     -0.057000
     28 CBT        -3.3610    6.3910   -4.1560 c2        1 3ES     -0.070000
     29 CAU        -4.4860    7.1840   -4.7730 c3        1 3ES     -0.039000
     30 CAO        -5.1910    7.7970   -3.5870 c2        1 3ES     -0.440000
     31 CAJ        -6.2470    8.5800   -3.6450 c1        1 3ES      0.208000
     32 CAP        -4.4850    7.3640   -2.3240 c3        1 3ES     -0.056000
     33 CAV        -3.3630    6.4920   -2.8080 c2        1 3ES     -0.128000
     34 CBV         1.5400    3.3400   -4.9250 cx        1 3ES     -0.089000
     35 CBN         3.0100    3.4380   -5.3110 c3        1 3ES      0.105000
     36 OAC         3.5780    4.3340   -4.3440 oh        1 3ES     -0.366000
     37 N           3.2320    3.7910   -6.6980 n2        1 3ES     -0.232000
     38 CA          3.8220    4.8770   -7.0420 c2        1 3ES     -0.039000
     39 C           3.7820    6.8090   -3.4750 c1        1 3ES      0.435000
     40 O           2.8310    7.0890   -2.8210 o         1 3ES     -0.216500
     41 CB          4.0910    5.2710   -8.4650 c3        1 3ES     -0.094000
     42 CG          3.5810    4.3370   -9.5020 ca        1 3ES     -0.107000
     43 CD1         2.2040    4.1770   -9.6900 ca        1 3ES     -0.082500
     44 CD2         4.4730    3.6240  -10.3130 ca        1 3ES     -0.082500
     45 CE1         1.7150    3.3200  -10.6710 ca        1 3ES     -0.186000
     46 CE2         4.0060    2.7640  -11.3010 ca        1 3ES     -0.186000
     47 CZ          2.6200    2.6150  -11.4770 ca        1 3ES      0.083000
     48 OH          2.2170    1.7510  -12.4690 oh        1 3ES     -0.250000
     49 OXT         4.7430    6.5470   -4.1300 o         1 3ES     -0.216500
     50 HBB1       -1.6520    1.0010    2.3010 h1        1 3ES      0.094000
     51 HBB2       -2.4840   -0.0050    1.0000 h1        1 3ES      0.094000
     52 HAQ        -0.4500   -2.4430    1.7990 hc        1 3ES      0.171500
     53 HAK        -1.3760   -3.1730    3.1680 hc        1 3ES      0.171500
     54 HAH        -3.0780   -2.5070    0.7990 ha        1 3ES      0.036000
     55 HAL        -3.4190    2.3250    5.3540 ha        1 3ES      0.226000
     56 HAR        -2.5610   -1.7540    4.6470 ha        1 3ES      0.147000
     57 HBX        -0.2750    2.4140   -0.8380 hn        1 3ES      0.236500
     58 HBI        -1.6110    1.8730    0.0320 hn        1 3ES      0.236500
     59 HBE1        2.4000    0.7570   -4.1340 ha        1 3ES      0.133000
     60 HBE2        2.0000   -1.2100   -1.7620 ha        1 3ES      0.158000
     61 HAS         1.5850   -1.6030    0.6340 ha        1 3ES      0.231000
     62 HAM         2.8500   -2.9530   -3.0920 ha        1 3ES      0.139000
     63 HAI         2.3980   -4.8100    0.9760 ha        1 3ES      0.231000
     64 HAN         3.4620    0.9180   -7.1730 ha        1 3ES      0.240000
     65 HAT         3.6630   -2.8580   -5.3350 ha        1 3ES      0.145000
     66 HBC1       -1.2460    4.0980   -9.0100 ha        1 3ES      0.001500
     67 HBC2       -0.5920    3.9390   -8.9260 ha        1 3ES      0.001500
     68 HBV         0.6680    3.5830   -6.9980 hc        1 3ES      0.172000
     69 HBA        -1.0800    4.6540   -3.4170 ha        1 3ES      0.200000
     70 HAU        -5.1730    6.5180   -5.3540 hc        1 3ES      0.113000
     71 HAV        -2.6700    6.0280   -2.1040 ha        1 3ES      0.150000
     72 HAO        -4.0880    7.9740   -5.4600 hc        1 3ES      0.113000
     73 HAJ        -4.0890    8.2460   -1.7600 hc        1 3ES      0.107500
     74 HAP        -5.1740    6.7910   -1.6520 hc        1 3ES      0.107500
     75 HBF1        1.1990    1.4420   -6.0710 hc        1 3ES      0.198000
     76 HBF2        1.3660    3.7150   -3.8870 hc        1 3ES      0.175000
     77 H           3.4800    2.4100   -5.1820 h2        1 3ES      0.115000
     78 HA          4.1970    5.6320   -6.3090 h4        1 3ES      0.118000
     79 HB1C        3.6240    6.2850   -8.6180 hc        1 3ES      0.108000
     80 HB2C        5.2050    5.3960   -8.5680 hc        1 3ES      0.108000
     81 HD1         1.4960    4.7290   -9.0510 ha        1 3ES      0.134500
     82 HD2         5.5580    3.7430  -10.1710 ha        1 3ES      0.134500
     83 HE1         0.6310    3.1990  -10.8100 ha        1 3ES      0.145500
     84 HE2         4.6990    2.2020  -11.9430 ha        1 3ES      0.145500
     85 HH          1.2490    1.7380  -12.4780 ho        1 3ES      0.220000
     86 CBF         0.7380    2.1300   -5.3160 cx        1 3ES     -0.921000
     87 HBI2        1.7300    1.0980   -2.4050 ha        1 3ES      0.133000
     88 H2          4.5370    4.2320   -4.3740 ho        1 3ES      0.221000
     89 OAD        -0.3370    2.1200   -2.9480 o         1 3ES     -1.061000
@<TRIPOS>BOND
     1    1    2 1   
     2    1    3 1   
     3    1   14 1   
     4    3    4 1   
     5    4    5 1   
     6    4   50 1   
     7    4   51 1   
     8    5    6 1   
     9    5   10 1   
    10    6    7 1   
    11    6   52 1   
    12    6   53 1   
    13    7   54 1   
    14    8    9 1   
    15    8   55 1   
    16    9   10 1   
    17   10   56 1   
    18   11   12 1   
    19   11   86 1   
    20   11   89 1   
    21   13   15 1   
    22   13   59 1   
    23   13   87 1   
    24   14   57 1   
    25   14   58 1   
    26   15   16 1   
    27   15   60 1   
    28   16   21 1   
    29   16   62 1   
    30   17   18 1   
    31   17   61 1   
    32   18   63 1   
    33   19   20 1   
    34   19   64 1   
    35   20   21 1   
    36   21   65 1   
    37   22   23 1   
    38   22   34 1   
    39   22   68 1   
    40   22   86 1   
    41   23   24 1   
    42   23   25 1   
    43   24   27 1   
    44   24   69 1   
    45   25   26 1   
    46   26   27 1   
    47   27   28 1   
    48   28   29 1   
    49   28   33 1   
    50   29   30 1   
    51   29   70 1   
    52   29   72 1   
    53   30   31 1   
    54   30   32 1   
    55   32   33 1   
    56   32   73 1   
    57   32   74 1   
    58   33   71 1   
    59   34   35 1   
    60   34   76 1   
    61   34   86 1   
    62   35   36 1   
    63   35   37 1   
    64   35   77 1   
    65   36   88 1   
    66   37   38 1   
    67   38   41 1   
    68   38   78 1   
    69   39   40 1   
    70   39   49 1   
    71   41   42 1   
    72   41   79 1   
    73   41   80 1   
    74   42   43 1   
    75   42   44 1   
    76   43   45 1   
    77   43   81 1   
    78   44   46 1   
    79   44   82 1   
    80   45   47 1   
    81   45   83 1   
    82   46   47 1   
    83   46   84 1   
    84   47   48 1   
    85   48   85 1   
    86   66   67 1   
    87   75   86 1   
@<TRIPOS>SUBSTRUCTURE
     1 3ES         1 TEMP              0 ****  ****    0 ROOT
