@<TRIPOS>MOLECULE
3ET
   52    52     1     0     0
SMALL
bcc


@<TRIPOS>ATOM
      1 O35        -0.9050    0.6420   -1.9800 o         1 3ET     -0.443000
      2 C34         0.1120    0.6020   -1.3040 c         1 3ET      0.646100
      3 C36         0.5160    1.5800   -0.2100 c3        1 3ET      0.049500
      4 C38         0.8020    0.8130    1.1070 c3        1 3ET      0.118400
      5 O39         1.3230    1.7210    2.0460 oh        1 3ET     -0.602800
      6 N37         1.6790    2.4110   -0.6300 n4        1 3ET     -0.837600
      7 O33         1.0000   -0.4410   -1.4460 os        1 3ET     -0.429900
      8 C32         0.7690   -1.3690   -2.5050 c3        1 3ET      0.131400
      9 C22         2.0180   -1.3190   -3.4190 c3        1 3ET      0.054500
     10 N1          2.4560   -2.6800   -3.8630 n4        1 3ET     -0.836600
     11 C25         1.7440   -0.4450   -4.6430 c         1 3ET      0.650100
     12 O10         0.6860   -0.3290   -5.2480 o         1 3ET     -0.471000
     13 O15         2.8770    0.2000   -5.0470 os        1 3ET     -0.413900
     14 C30         2.7290    1.3250   -5.9190 c3        1 3ET      0.146400
     15 C24         1.8270    2.4130   -5.3070 c3        1 3ET     -0.024500
     16 C27         1.8990    2.4580   -3.7630 c         1 3ET      0.928600
     17 O14         1.9590    3.5660   -3.1640 o         1 3ET     -0.832800
     18 O12         1.8290    1.3600   -3.1290 o         1 3ET     -0.832800
     19 N3          2.0990    3.7620   -5.8860 n4        1 3ET     -0.652800
     20 C21         1.4530    4.0140   -7.2320 c         1 3ET      0.587700
     21 O9          0.9960    3.0250   -7.7940 o         1 3ET     -0.449100
     22 C18         1.4260    5.3930   -7.7110 ca        1 3ET     -0.214600
     23 C3          2.2670    6.4270   -7.2560 ca        1 3ET      0.159100
     24 O3          3.1870    6.1580   -6.2750 oh        1 3ET     -0.549100
     25 C6          2.1560    7.7190   -7.8250 ca        1 3ET      0.058100
     26 O6          3.0210    8.6540   -7.3060 oh        1 3ET     -0.507100
     27 C9          1.2240    7.9780   -8.8300 ca        1 3ET     -0.093000
     28 C12         0.3960    6.9460   -9.2800 ca        1 3ET     -0.116000
     29 C15         0.4940    5.6730   -8.7360 ca        1 3ET     -0.053000
     30 H36        -0.3620    2.2820   -0.0470 hx        1 3ET      0.140700
     31 H38         1.5960    0.0350    0.9350 h1        1 3ET      0.092700
     32 H38A       -0.1470    0.3210    1.4440 h1        1 3ET      0.092700
     33 HO39        0.6460    1.9090    2.7120 ho        1 3ET      0.449000
     34 HN37        2.3590    1.8280   -1.1470 hn        1 3ET      0.484467
     35 HN3A        1.3820    3.1570   -1.2920 hn        1 3ET      0.484467
     36 H32         0.6590   -2.3680   -2.0000 h1        1 3ET      0.111200
     37 H32A       -0.1600   -1.1180   -3.0910 h1        1 3ET      0.111200
     38 H22         2.8720   -0.8370   -2.8400 hx        1 3ET      0.165700
     39 HN1         1.7160   -3.1320   -4.4130 hn        1 3ET      0.473800
     40 HN1A        2.6660   -3.2620   -3.0440 hn        1 3ET      0.473800
     41 H30         2.2910    0.9850   -6.8970 h1        1 3ET      0.098200
     42 H30A        3.7950    1.6620   -6.0490 h1        1 3ET      0.098200
     43 H24         0.7510    2.1400   -5.5560 hx        1 3ET      0.148700
     44 HN3         3.1120    3.9130   -5.9820 hn        1 3ET      0.481800
     45 HO3         3.7210    6.9570   -6.1090 ho        1 3ET      0.490000
     46 HO6         2.9080    9.4860   -7.7930 ho        1 3ET      0.462000
     47 H9          1.1440    8.9880   -9.2680 ha        1 3ET      0.175000
     48 H12        -0.3400    7.1460  -10.0780 ha        1 3ET      0.179000
     49 H15        -0.1560    4.8600   -9.1050 ha        1 3ET      0.175000
     50 H373        2.1170    2.8210    0.2020 hn        1 3ET      0.484467
     51 H13         3.3000   -2.5950   -4.4430 hn        1 3ET      0.473800
     52 H321        1.7650    4.4740   -5.2070 hn        1 3ET      0.481800
@<TRIPOS>BOND
     1    1    2 2   
     2    2    3 1   
     3    2    7 1   
     4    3    4 1   
     5    3    6 1   
     6    3   30 1   
     7    4    5 1   
     8    4   31 1   
     9    4   32 1   
    10    5   33 1   
    11    6   34 1   
    12    6   35 1   
    13    6   50 1   
    14    7    8 1   
    15    8    9 1   
    16    8   36 1   
    17    8   37 1   
    18    9   10 1   
    19    9   11 1   
    20    9   38 1   
    21   10   39 1   
    22   10   40 1   
    23   10   51 1   
    24   11   12 2   
    25   11   13 1   
    26   13   14 1   
    27   14   15 1   
    28   14   41 1   
    29   14   42 1   
    30   15   16 1   
    31   15   19 1   
    32   15   43 1   
    33   16   17 1   
    34   16   18 1   
    35   19   20 1   
    36   19   44 1   
    37   19   52 1   
    38   20   21 2   
    39   20   22 1   
    40   22   23 ar  
    41   22   29 ar  
    42   23   24 1   
    43   23   25 ar  
    44   24   45 1   
    45   25   26 1   
    46   25   27 ar  
    47   26   46 1   
    48   27   28 ar  
    49   27   47 1   
    50   28   29 ar  
    51   28   48 1   
    52   29   49 1   
@<TRIPOS>SUBSTRUCTURE
     1 3ET         1 TEMP              0 ****  ****    0 ROOT
