@<TRIPOS>MOLECULE
3ET
   52    52     1     0     0
SMALL
bcc


@<TRIPOS>ATOM
      1 O35        -0.6830    0.7360   -0.6660 o         1 3ET     -0.478000
      2 C34         0.5110    0.4570   -0.6410 c         1 3ET      0.646100
      3 C36         1.5900    1.1740    0.1540 c3        1 3ET      0.066500
      4 C38         2.3950    2.0780   -0.8090 c3        1 3ET      0.129400
      5 O39         3.3230    2.7740   -0.0010 oh        1 3ET     -0.641800
      6 N37         0.9720    1.9820    1.2580 nz        1 3ET     -0.835600
      7 O33         0.9960   -0.6250   -1.3220 os        1 3ET     -0.412900
      8 C32         0.1420   -1.2270   -2.3030 c3        1 3ET      0.128400
      9 C22         0.9110   -1.1450   -3.6400 c3        1 3ET      0.045500
     10 N1          1.0860   -2.4790   -4.2960 nz        1 3ET     -0.835600
     11 C25         0.2130   -0.1800   -4.5990 c         1 3ET      0.661100
     12 O10        -0.9670    0.1370   -4.5890 o         1 3ET     -0.449000
     13 O15         1.0730    0.2630   -5.5710 os        1 3ET     -0.453900
     14 C30         0.7700    1.5400   -6.1510 c3        1 3ET      0.135400
     15 C24         1.5830    2.6440   -5.4660 c3        1 3ET     -0.030500
     16 C27         1.9510    2.3110   -3.9810 c         1 3ET      0.929600
     17 O14         2.9640    2.8730   -3.4930 o         1 3ET     -0.814800
     18 O12         1.2180    1.5020   -3.3430 o         1 3ET     -0.814800
     19 N3          2.8410    2.9960   -6.2040 ny        1 3ET     -0.670800
     20 C21         2.5620    3.7360   -7.4990 c         1 3ET      0.596700
     21 O9          2.3990    3.0200   -8.4750 o         1 3ET     -0.414100
     22 C18         2.5340    5.1940   -7.3880 ca        1 3ET     -0.219600
     23 C3          1.4110    5.8910   -7.8680 ca        1 3ET      0.187100
     24 O3          0.3370    5.1610   -8.2870 oh        1 3ET     -0.496100
     25 C6          1.4200    7.3110   -7.8520 ca        1 3ET      0.061100
     26 O6          0.2740    7.9000   -8.3290 oh        1 3ET     -0.500100
     27 C9          2.5260    8.0040   -7.3660 ca        1 3ET     -0.111000
     28 C12         3.6300    7.2920   -6.8800 ca        1 3ET     -0.109000
     29 C15         3.6380    5.9060   -6.8830 ca        1 3ET     -0.097000
     30 H36         2.2910    0.4220    0.6300 hx        1 3ET      0.148700
     31 H38         2.9000    1.4240   -1.5720 h1        1 3ET      0.105200
     32 H38A        1.7240    2.7970   -1.3540 h1        1 3ET      0.105200
     33 HO39        3.9560    3.1990   -0.6000 ho        1 3ET      0.470000
     34 HN37        0.1540    2.4930    0.9010 hn        1 3ET      0.478800
     35 HN3A        0.6780    1.3770    2.0290 hn        1 3ET      0.478800
     36 H32        -0.0140   -2.2830   -1.9500 h1        1 3ET      0.118200
     37 H32A       -0.8470   -0.6910   -2.3810 h1        1 3ET      0.118200
     38 H22         1.9450   -0.7090   -3.4330 hx        1 3ET      0.171700
     39 HN1         1.5870   -2.3540   -5.1850 hn        1 3ET      0.472467
     40 HN1A        1.6270   -3.1000   -3.6840 hn        1 3ET      0.472467
     41 H30        -0.3250    1.7740   -6.0400 h1        1 3ET      0.112700
     42 H30A        1.0230    1.4120   -7.2410 h1        1 3ET      0.112700
     43 H24         0.9470    3.5810   -5.4360 hx        1 3ET      0.129700
     44 HN3         3.4070    3.5800   -5.5630 hn        1 3ET      0.465800
     45 HO3        -0.3000    5.7600   -8.7200 ho        1 3ET      0.477000
     46 HO6         0.4320    8.8540   -8.4240 ho        1 3ET      0.458000
     47 H9          2.5340    9.1070   -7.3660 ha        1 3ET      0.171000
     48 H12         4.5040    7.8470   -6.4980 ha        1 3ET      0.171000
     49 H15         4.5260    5.3660   -6.5210 ha        1 3ET      0.143000
     50 H373        1.6790    2.6570    1.5910 hn        1 3ET      0.478800
     51 H13         0.1730   -2.9090   -4.4860 hn        1 3ET      0.472467
     52 H321        3.3550    2.1330   -6.4020 hn        1 3ET      0.465800
@<TRIPOS>BOND
     1    1    2 2   
     2    2    3 1   
     3    2    7 1   
     4    3    4 1   
     5    3    6 1   
     6    3   30 1   
     7    4    5 1   
     8    4   31 1   
     9    4   32 1   
    10    5   33 1   
    11    6   34 1   
    12    6   35 1   
    13    6   50 1   
    14    7    8 1   
    15    8    9 1   
    16    8   36 1   
    17    8   37 1   
    18    9   10 1   
    19    9   11 1   
    20    9   38 1   
    21   10   39 1   
    22   10   40 1   
    23   10   51 1   
    24   11   12 2   
    25   11   13 1   
    26   13   14 1   
    27   14   15 1   
    28   14   41 1   
    29   14   42 1   
    30   15   16 1   
    31   15   19 1   
    32   15   43 1   
    33   16   17 1   
    34   16   18 1   
    35   19   20 1   
    36   19   44 1   
    37   19   52 1   
    38   20   21 2   
    39   20   22 1   
    40   22   23 ar  
    41   22   29 ar  
    42   23   24 1   
    43   23   25 ar  
    44   24   45 1   
    45   25   26 1   
    46   25   27 ar  
    47   26   46 1   
    48   27   28 ar  
    49   27   47 1   
    50   28   29 ar  
    51   28   48 1   
    52   29   49 1   
@<TRIPOS>SUBSTRUCTURE
     1 3ET         1 TEMP              0 ****  ****    0 ROOT
