@<TRIPOS>MOLECULE
3ET
   49    46     1     0     0
SMALL
bcc


@<TRIPOS>ATOM
      1 O35         1.1450   -3.8350    4.0150 o         1 3ET     -0.361000
      2 C34         2.2570   -3.4250    3.7500 c1        1 3ET      0.262000
      3 C36         3.4610   -4.3100    3.9700 c3        1 3ET     -0.053000
      4 C38         3.1820   -5.2650    5.1080 c3        1 3ET     -0.015000
      5 O39         4.3770   -5.9150    5.4790 oh        1 3ET     -0.330000
      6 N37         3.7280   -5.0510    2.7840 n3        1 3ET     -0.334000
      7 O33         2.4200   -2.1450    3.2000 o         1 3ET     -0.276000
      8 C32         1.2130   -1.4510    3.0060 c3        1 3ET     -0.025000
      9 C22         1.5110   -0.0240    2.6100 c3        1 3ET     -0.051000
     10 N1          2.8870    0.2570    2.8460 n3        1 3ET     -0.336000
     11 C25         1.2030    0.1660    1.1440 c2        1 3ET      0.282000
     12 O10         1.5020   -0.6980    0.3440 o         1 3ET     -0.414000
     13 O15         0.5820    1.3450    0.7040 os        1 3ET     -0.254000
     14 C30         0.2920    1.3570   -0.6730 c3        1 3ET     -0.017000
     15 C24        -0.3150    2.6910   -1.0490 c3        1 3ET     -0.098000
     16 C27         0.7830    3.7230   -1.1850 c2        1 3ET      0.339000
     17 O14         1.3610    3.8840   -2.2920 o         1 3ET     -0.551500
     18 O12         1.1120    4.4270   -0.1950 o         1 3ET     -0.551500
     19 N3         -1.0040    2.5660   -2.2830 n         1 3ET     -0.310000
     20 C21        -2.2360    3.2390   -2.4770 c2        1 3ET      0.344000
     21 O9         -2.4860    4.2430   -1.8420 o         1 3ET     -0.418000
     22 C18        -3.2560    2.6840   -3.4450 c2        1 3ET     -0.111000
     23 C3         -3.4430    3.2900   -4.6770 c2        1 3ET      0.098000
     24 O3         -2.6710    4.4110   -5.0330 oh        1 3ET     -0.223000
     25 C6         -4.4050    2.8060   -5.5490 c1        1 3ET     -0.028000
     26 O6         -4.5980    3.4240   -6.7970 oh        1 3ET     -0.270000
     27 C9         -5.1800    1.7160   -5.1890 c1        1 3ET     -0.157000
     28 C12        -4.9930    1.1090   -3.9570 c1        1 3ET     -0.157000
     29 C15        -4.0310    1.5930   -3.0850 c1        1 3ET     -0.090000
     30 H36         4.2360   -3.7570    4.1920 h1        1 3ET      0.131000
     31 H38         2.8300   -4.7660    5.8740 h1        1 3ET      0.095500
     32 H38A        2.5230   -5.9300    4.8220 h1        1 3ET      0.095500
     33 HO39        4.1850   -6.6230    5.9810 ho        1 3ET      0.217000
     34 HN37        3.3790   -4.6080    2.0620 hn        1 3ET      0.175500
     35 HN3A        3.3450   -5.8800    2.8490 hn        1 3ET      0.175500
     36 H32         0.6960   -1.8860    2.2970 h1        1 3ET      0.141500
     37 H32A        0.6950   -1.4580    3.8380 h1        1 3ET      0.141500
     38 H22         0.9580    0.5830    3.1400 h1        1 3ET      0.143000
     39 HN1         3.3480    0.2110    2.0570 hn        1 3ET      0.157000
     40 HN1A        3.2270   -0.3560    3.4350 hn        1 3ET      0.157000
     41 H30        -0.3430    0.6400   -0.8790 h1        1 3ET      0.117500
     42 H30A        1.1180    1.2190   -1.1820 h1        1 3ET      0.117500
     43 H24        -0.9410    2.9710   -0.3530 h1        1 3ET      0.117000
     44 HN3        -0.6750    2.0200   -2.9350 hn        1 3ET      0.255000
     45 HO3        -3.2090    5.0790   -5.2690 ho        1 3ET      0.238000
     46 HO6        -4.4580    2.8320   -7.4460 ho        1 3ET      0.218000
     47 H9         -5.8580    1.3750   -5.8020 ha        1 3ET      0.128500
     48 H12        -5.5390    0.3410   -3.7030 ha        1 3ET      0.128500
     49 H15        -3.9150    1.1800   -2.2090 ha        1 3ET      0.160000
@<TRIPOS>BOND
     1    1    2 1   
     2    2    3 1   
     3    3    4 1   
     4    3    6 1   
     5    3   30 1   
     6    4    5 1   
     7    4   31 1   
     8    4   32 1   
     9    5   33 1   
    10    6   34 1   
    11    6   35 1   
    12    7    8 1   
    13    8    9 1   
    14    8   36 1   
    15    8   37 1   
    16    9   10 1   
    17    9   11 1   
    18    9   38 1   
    19   10   39 1   
    20   10   40 1   
    21   11   12 1   
    22   11   13 1   
    23   13   14 1   
    24   14   15 1   
    25   14   41 1   
    26   14   42 1   
    27   15   16 1   
    28   15   19 1   
    29   15   43 1   
    30   16   17 1   
    31   16   18 1   
    32   19   20 1   
    33   19   44 1   
    34   20   21 1   
    35   20   22 1   
    36   22   23 1   
    37   22   29 1   
    38   23   24 1   
    39   23   25 1   
    40   24   45 1   
    41   25   26 1   
    42   26   46 1   
    43   27   28 1   
    44   27   47 1   
    45   28   48 1   
    46   29   49 1   
@<TRIPOS>SUBSTRUCTURE
     1 3ET         1 TEMP              0 ****  ****    0 ROOT
