@<TRIPOS>MOLECULE
3ET
   49    49     1     0     0
SMALL
bcc


@<TRIPOS>ATOM
      1 O35         5.4110   -0.6450   -0.0010 o         1 3ET     -0.565000
      2 C34         4.8560    0.4540   -0.0890 c         1 3ET      0.600100
      3 C36         5.5450    1.8110   -0.2020 c3        1 3ET      0.075500
      4 C38         5.1220    2.6720    1.0080 c3        1 3ET      0.140400
      5 O39         5.4460    4.0300    0.8120 oh        1 3ET     -0.597800
      6 N37         6.9820    1.7210   -0.3410 n3        1 3ET     -0.900800
      7 O33         3.5010    0.5450   -0.0900 os        1 3ET     -0.411900
      8 C32         2.7380   -0.6660   -0.0250 c3        1 3ET      0.111400
      9 C22         2.4400   -1.1590   -1.4560 c3        1 3ET      0.095500
     10 N1          3.6170   -1.5720   -2.1890 n3        1 3ET     -0.908800
     11 C25         1.3670   -2.2380   -1.3310 c         1 3ET      0.609100
     12 O10         1.4840   -3.4410   -1.5840 o         1 3ET     -0.564000
     13 O15         0.1690   -1.7300   -0.9500 os        1 3ET     -0.426900
     14 C30        -0.8180   -2.6350   -0.4210 c3        1 3ET      0.128400
     15 C24        -1.3940   -2.0060    0.8590 c3        1 3ET     -0.052300
     16 C27        -0.2200   -1.8410    1.8980 c         1 3ET      0.919600
     17 O14         0.3110   -0.7010    2.0250 o         1 3ET     -0.820300
     18 O12         0.1170   -2.8820    2.5120 o         1 3ET     -0.820300
     19 N3         -2.0850   -0.7570    0.6500 n         1 3ET     -0.495900
     20 C21        -3.2310   -0.6340   -0.0720 c         1 3ET      0.660700
     21 O9         -3.8520   -1.6350   -0.5250 o         1 3ET     -0.687100
     22 C18        -3.7900    0.7390   -0.2800 ca        1 3ET     -0.169600
     23 C3         -5.1790    0.9320   -0.3290 ca        1 3ET      0.110100
     24 O3         -6.1240   -0.0520   -0.1800 oh        1 3ET     -0.541100
     25 C6         -5.7040    2.2340   -0.5270 ca        1 3ET      0.080100
     26 O6         -7.0590    2.4800   -0.5680 oh        1 3ET     -0.509100
     27 C9         -4.8470    3.3240   -0.6900 ca        1 3ET     -0.127000
     28 C12        -3.4680    3.1160   -0.6600 ca        1 3ET     -0.148000
     29 C15        -2.9450    1.8430   -0.4590 ca        1 3ET     -0.101000
     30 H36         5.1380    2.3100   -1.1340 h1        1 3ET      0.101700
     31 H38         4.0020    2.6490    1.1030 h1        1 3ET      0.065700
     32 H38A        5.5940    2.2880    1.9510 h1        1 3ET      0.065700
     33 HO39        6.4000    4.0880    0.6770 ho        1 3ET      0.407000
     34 HN37        7.3790    1.2320    0.4400 hn        1 3ET      0.359800
     35 HN3A        7.2160    1.2240   -1.1790 hn        1 3ET      0.359800
     36 H32         3.2750   -1.4440    0.5770 h1        1 3ET      0.123200
     37 H32A        1.7790   -0.3640    0.5000 h1        1 3ET      0.123200
     38 H22         1.9780   -0.3010   -2.0340 h1        1 3ET      0.090700
     39 HN1         4.2980   -1.9720   -1.5690 hn        1 3ET      0.363800
     40 HN1A        3.3730   -2.2500   -2.8860 hn        1 3ET      0.363800
     41 H30        -1.5950   -2.7520   -1.2190 h1        1 3ET      0.068700
     42 H30A       -0.3560   -3.6230   -0.1620 h1        1 3ET      0.068700
     43 H24        -2.1300   -2.7570    1.2700 h1        1 3ET      0.073700
     44 HN3        -1.5840    0.0520    0.9560 hn        1 3ET      0.341500
     45 HO3        -5.6900   -0.9240   -0.2250 ho        1 3ET      0.476000
     46 HO6        -7.5160    1.6300   -0.4740 ho        1 3ET      0.435000
     47 H9         -5.2700    4.3260   -0.8440 ha        1 3ET      0.142000
     48 H12        -2.7890    3.9700   -0.7950 ha        1 3ET      0.133000
     49 H15        -1.8510    1.7080   -0.4520 ha        1 3ET      0.151000
@<TRIPOS>BOND
     1    1    2 2   
     2    2    3 1   
     3    2    7 1   
     4    3    4 1   
     5    3    6 1   
     6    3   30 1   
     7    4    5 1   
     8    4   31 1   
     9    4   32 1   
    10    5   33 1   
    11    6   34 1   
    12    6   35 1   
    13    7    8 1   
    14    8    9 1   
    15    8   36 1   
    16    8   37 1   
    17    9   10 1   
    18    9   11 1   
    19    9   38 1   
    20   10   39 1   
    21   10   40 1   
    22   11   12 2   
    23   11   13 1   
    24   13   14 1   
    25   14   15 1   
    26   14   41 1   
    27   14   42 1   
    28   15   16 1   
    29   15   19 1   
    30   15   43 1   
    31   16   17 1   
    32   16   18 1   
    33   19   20 1   
    34   19   44 1   
    35   20   21 2   
    36   20   22 1   
    37   22   23 ar  
    38   22   29 ar  
    39   23   24 1   
    40   23   25 ar  
    41   24   45 1   
    42   25   26 1   
    43   25   27 ar  
    44   26   46 1   
    45   27   28 ar  
    46   27   47 1   
    47   28   29 ar  
    48   28   48 1   
    49   29   49 1   
@<TRIPOS>SUBSTRUCTURE
     1 3ET         1 TEMP              0 ****  ****    0 ROOT
