@<TRIPOS>MOLECULE
3ET
   52    52     1     0     0
SMALL
bcc


@<TRIPOS>ATOM
      1 O35         0.1680    0.7270    0.0610 o         1 3ET     -0.550000
      2 C34         1.1600    0.0390    0.3150 c         1 3ET      0.630100
      3 C36         1.3580   -0.8670    1.5160 c3        1 3ET      0.035500
      4 C38         2.5900   -0.3810    2.3380 c3        1 3ET      0.128400
      5 O39         2.6390   -1.1550    3.5100 oh        1 3ET     -0.608800
      6 N37         0.1280   -0.9140    2.3690 n4        1 3ET     -0.831600
      7 O33         2.2150    0.0210   -0.5360 os        1 3ET     -0.392900
      8 C32         2.2420    0.9680   -1.6180 c3        1 3ET      0.124400
      9 C22         1.2530    0.5730   -2.7280 c3        1 3ET      0.048500
     10 N1          0.0670    1.4670   -2.8080 n4        1 3ET     -0.865600
     11 C25         1.9990    0.4940   -4.0660 c         1 3ET      0.635100
     12 O10         2.3320   -0.5480   -4.6090 o         1 3ET     -0.424000
     13 O15         2.3430    1.7130   -4.5760 os        1 3ET     -0.448900
     14 C30         2.5690    1.8000   -6.0000 c3        1 3ET      0.144400
     15 C24         1.3160    2.4050   -6.6670 c3        1 3ET     -0.018500
     16 C27         0.1560    2.2970   -5.6320 c         1 3ET      0.907600
     17 O14        -0.3630    1.1590   -5.4760 o         1 3ET     -0.803800
     18 O12        -0.0930    3.2950   -4.8980 o         1 3ET     -0.803800
     19 N3          1.4770    3.8260   -7.0970 n4        1 3ET     -0.645800
     20 C21         2.4090    4.0330   -8.2640 c         1 3ET      0.583700
     21 O9          3.2300    3.1420   -8.4570 o         1 3ET     -0.457100
     22 C18         2.2360    5.2470   -9.0600 ca        1 3ET     -0.213600
     23 C3          1.5770    6.4120   -8.6250 ca        1 3ET      0.159100
     24 O3          1.0410    6.4420   -7.3630 oh        1 3ET     -0.542100
     25 C6          1.4920    7.5310   -9.4890 ca        1 3ET      0.055100
     26 O6          0.8300    8.6170   -8.9660 oh        1 3ET     -0.508100
     27 C9          2.0540    7.4900  -10.7650 ca        1 3ET     -0.096000
     28 C12         2.7120    6.3310  -11.1880 ca        1 3ET     -0.118000
     29 C15         2.8080    5.2290  -10.3520 ca        1 3ET     -0.053000
     30 H36         1.5630   -1.9220    1.1510 hx        1 3ET      0.158700
     31 H38         3.4980   -0.4830    1.6870 h1        1 3ET      0.101200
     32 H38A        2.4530    0.6910    2.6470 h1        1 3ET      0.101200
     33 HO39        3.4720   -1.6510    3.5330 ho        1 3ET      0.467000
     34 HN37       -0.5960   -1.4910    1.9300 hn        1 3ET      0.483800
     35 HN3A        0.3890   -1.3190    3.2860 hn        1 3ET      0.483800
     36 H32         2.0650    2.0020   -1.2220 h1        1 3ET      0.123200
     37 H32A        3.3070    0.8650   -1.9830 h1        1 3ET      0.123200
     38 H22         0.8730   -0.4800   -2.5260 hx        1 3ET      0.137700
     39 HN1         0.3410    2.4210   -3.1260 hn        1 3ET      0.493467
     40 HN1A       -0.5890    1.1140   -3.5520 hn        1 3ET      0.493467
     41 H30         2.7700    0.7840   -6.4340 h1        1 3ET      0.111200
     42 H30A        3.4830    2.4450   -6.0900 h1        1 3ET      0.111200
     43 H24         1.0630    1.7970   -7.5840 hx        1 3ET      0.136700
     44 HN3         0.5420    4.1940   -7.3380 hn        1 3ET      0.478300
     45 HO3         0.6360    7.3150   -7.2080 ho        1 3ET      0.487000
     46 HO6         0.8280    9.3270   -9.6270 ho        1 3ET      0.460000
     47 H9          1.9810    8.3650  -11.4330 ha        1 3ET      0.172000
     48 H12         3.1600    6.2970  -12.1960 ha        1 3ET      0.176000
     49 H15         3.3380    4.3200  -10.6890 ha        1 3ET      0.174000
     50 H373       -0.2440    0.0340    2.5140 hn        1 3ET      0.483800
     51 H13        -0.4030    1.5180   -1.9030 hn        1 3ET      0.493467
     52 H321        1.8010    4.3900   -6.2980 hn        1 3ET      0.478300
@<TRIPOS>BOND
     1    1    2 2   
     2    2    3 1   
     3    2    7 1   
     4    3    4 1   
     5    3    6 1   
     6    3   30 1   
     7    4    5 1   
     8    4   31 1   
     9    4   32 1   
    10    5   33 1   
    11    6   34 1   
    12    6   35 1   
    13    6   50 1   
    14    7    8 1   
    15    8    9 1   
    16    8   36 1   
    17    8   37 1   
    18    9   10 1   
    19    9   11 1   
    20    9   38 1   
    21   10   39 1   
    22   10   40 1   
    23   10   51 1   
    24   11   12 2   
    25   11   13 1   
    26   13   14 1   
    27   14   15 1   
    28   14   41 1   
    29   14   42 1   
    30   15   16 1   
    31   15   19 1   
    32   15   43 1   
    33   16   17 1   
    34   16   18 1   
    35   19   20 1   
    36   19   44 1   
    37   19   52 1   
    38   20   21 2   
    39   20   22 1   
    40   22   23 ar  
    41   22   29 ar  
    42   23   24 1   
    43   23   25 ar  
    44   24   45 1   
    45   25   26 1   
    46   25   27 ar  
    47   26   46 1   
    48   27   28 ar  
    49   27   47 1   
    50   28   29 ar  
    51   28   48 1   
    52   29   49 1   
@<TRIPOS>SUBSTRUCTURE
     1 3ET         1 TEMP              0 ****  ****    0 ROOT
