@<TRIPOS>MOLECULE
3EU
   17    16     1     0     0
SMALL
bcc


@<TRIPOS>ATOM
      1 C12        -0.2140   -0.1520   -0.0290 c         1 3EU      0.923600
      2 C13         1.2750    0.2910    0.0620 c3        1 3EU     -0.198200
      3 C15         1.8160    0.1850    1.4390 ce        1 3EU      0.043800
      4 C16         1.9380   -1.1790    1.9400 ce        1 3EU     -0.114000
      5 C17         2.9270   -1.5940    2.7380 c2        1 3EU     -0.089600
      6 C18         2.6300    1.3400    3.4480 ch        1 3EU     -0.064300
      7 C19         3.0640    1.4350    4.5630 c1        1 3EU     -0.189100
      8 C20         2.1290    1.2980    2.1450 cf        1 3EU     -0.120700
      9 O14        -1.0490    0.7210   -0.3830 o         1 3EU     -0.827300
     10 CL1         3.6380    1.5510    6.0510 cl        1 3EU      0.037100
     11 CL2         3.0630   -3.2010    3.2810 cl        1 3EU     -0.160400
     12 H4          1.8560   -0.3840   -0.6180 hc        1 3EU      0.045200
     13 H5          1.3540    1.3400   -0.3200 hc        1 3EU      0.045200
     14 H6          1.1320   -1.8530    1.5680 ha        1 3EU      0.211000
     15 H7          3.7370   -0.9590    3.1190 h4        1 3EU      0.143000
     16 H8          1.9590    2.2930    1.6900 ha        1 3EU      0.143000
     17 OXT        -0.4860   -1.3600    0.2170 o         1 3EU     -0.827300
@<TRIPOS>BOND
     1    1    2 1   
     2    1    9 1   
     3    1   17 1   
     4    2    3 1   
     5    2   12 1   
     6    2   13 1   
     7    3    4 1   
     8    3    8 2   
     9    4    5 2   
    10    4   14 1   
    11    5   11 1   
    12    5   15 1   
    13    6    7 3   
    14    6    8 1   
    15    7   10 1   
    16    8   16 1   
@<TRIPOS>SUBSTRUCTURE
     1 3EU         1 TEMP              0 ****  ****    0 ROOT
