@<TRIPOS>MOLECULE
3EV
   74    76     1     0     0
SMALL
bcc


@<TRIPOS>ATOM
      1 C1          5.6390   -2.2370    0.4150 c3        1 3EV      0.181300
      2 O1          5.4560   -3.6320    0.2180 oh        1 3EV     -0.591800
      3 C2          7.0360   -1.9130   -0.1110 c3        1 3EV     -0.069400
      4 O2          8.6020   -0.1870   -0.4760 oh        1 3EV     -0.595800
      5 C3          7.3090   -0.4250    0.0690 c3        1 3EV      0.145100
      6 O3         -8.2350   -0.6830   -1.1050 oh        1 3EV     -0.596800
      7 C4          6.2580    0.4230   -0.6460 c3        1 3EV     -0.077200
      8 C5          4.8730    0.0410   -0.2420 ce        1 3EV     -0.076200
      9 C6          3.9710    0.9840    0.0950 cf        1 3EV     -0.114000
     10 C7          2.6130    0.7170    0.5100 cf        1 3EV     -0.153000
     11 C8          1.6130    1.6140    0.5470 c2        1 3EV     -0.074400
     12 C9          1.7400    3.0530    0.1630 c3        1 3EV     -0.045200
     13 C10         4.5960   -1.3970   -0.2750 ce        1 3EV     -0.115200
     14 C11         0.6000    3.5580   -0.7060 c3        1 3EV     -0.073400
     15 C12        -0.7800    3.1360   -0.2330 c3        1 3EV     -0.067400
     16 C13        -0.8360    1.6330   -0.0080 c3        1 3EV     -0.040000
     17 C14         0.2520    1.2970    1.0510 c3        1 3EV     -0.037500
     18 C15        -0.1070   -0.1080    1.5100 c3        1 3EV     -0.073400
     19 C16        -1.6350   -0.1550    1.4390 c3        1 3EV     -0.079400
     20 C17        -2.1110    1.1080    0.6920 c3        1 3EV     -0.053700
     21 C18        -0.5850    0.8830   -1.3050 c3        1 3EV     -0.083100
     22 C19         3.5230   -1.9160   -0.8820 c2        1 3EV     -0.199000
     23 C20        -3.3160    0.8230   -0.2000 c3        1 3EV     -0.054700
     24 C21        -3.7610    2.0600   -0.9550 c3        1 3EV     -0.092100
     25 C22        -4.4790    0.2950    0.6380 c3        1 3EV     -0.079400
     26 C23        -5.4660   -0.4960   -0.1950 c3        1 3EV     -0.080400
     27 C24        -6.5940   -1.0290    0.6600 c3        1 3EV     -0.104400
     28 C25        -7.7290   -1.6380   -0.1720 c3        1 3EV      0.147800
     29 C26        -8.8500   -2.0860    0.7620 c3        1 3EV     -0.103600
     30 C27        -7.2420   -2.8130   -1.0100 c3        1 3EV     -0.103600
     31 H1          5.5910   -2.0130    1.5220 h1        1 3EV      0.040700
     32 HO1         4.6090   -3.8600    0.6190 ho        1 3EV      0.401000
     33 H2          7.7980   -2.5130    0.4490 hc        1 3EV      0.072200
     34 H2A         7.1130   -2.1910   -1.1920 hc        1 3EV      0.072200
     35 HO2         8.7630    0.7610   -0.4010 ho        1 3EV      0.399000
     36 H3          7.3190   -0.1660    1.1660 h1        1 3EV      0.035700
     37 HO3        -8.5320    0.0770   -0.5920 ho        1 3EV      0.397000
     38 H4          6.4510    1.5070   -0.4320 hc        1 3EV      0.056200
     39 H4A         6.3680    0.2750   -1.7550 hc        1 3EV      0.056200
     40 H6          4.2810    2.0450    0.0840 ha        1 3EV      0.123000
     41 H7          2.4160   -0.3250    0.8280 ha        1 3EV      0.130000
     42 H9          1.7740    3.6570    1.1120 hc        1 3EV      0.047200
     43 H9A         2.7030    3.2390   -0.3830 hc        1 3EV      0.047200
     44 H11         0.6460    4.6790   -0.7360 hc        1 3EV      0.041200
     45 H11A        0.7520    3.1930   -1.7560 hc        1 3EV      0.041200
     46 H12        -1.0320    3.6650    0.7230 hc        1 3EV      0.043200
     47 H12A       -1.5380    3.4460   -0.9980 hc        1 3EV      0.043200
     48 H14         0.0810    1.9840    1.9360 hc        1 3EV      0.055700
     49 H15         0.3370   -0.8800    0.8330 hc        1 3EV      0.044200
     50 H15A        0.2620   -0.3060    2.5460 hc        1 3EV      0.044200
     51 H16        -1.9660   -1.0780    0.9010 hc        1 3EV      0.042200
     52 H16A       -2.0750   -0.1810    2.4660 hc        1 3EV      0.042200
     53 H17        -2.4250    1.8790    1.4500 hc        1 3EV      0.046700
     54 H18         0.4710    1.0260   -1.6430 hc        1 3EV      0.037700
     55 H18A       -0.7590   -0.2110   -1.1620 hc        1 3EV      0.037700
     56 H18B       -1.2670    1.2510   -2.1090 hc        1 3EV      0.037700
     57 H19         3.3430   -2.9980   -0.9370 ha        1 3EV      0.121500
     58 H19A        2.7720   -1.2870   -1.3770 ha        1 3EV      0.121500
     59 H20        -3.0270    0.0310   -0.9480 hc        1 3EV      0.052700
     60 H21        -3.7990    2.9450   -0.2750 hc        1 3EV      0.035033
     61 H21A       -3.0610    2.2850   -1.7950 hc        1 3EV      0.035033
     62 H21B       -4.7790    1.9070   -1.3900 hc        1 3EV      0.035033
     63 H22        -4.0960   -0.3650    1.4600 hc        1 3EV      0.039700
     64 H22A       -5.0020    1.1590    1.1280 hc        1 3EV      0.039700
     65 H23        -5.8940    0.1470   -1.0100 hc        1 3EV      0.049700
     66 H23A       -4.9360   -1.3510   -0.6930 hc        1 3EV      0.049700
     67 H24        -6.2050   -1.8110    1.3620 hc        1 3EV      0.042700
     68 H24A       -7.0150   -0.1960    1.2830 hc        1 3EV      0.042700
     69 H26        -9.7160   -2.4550    0.1630 hc        1 3EV      0.043367
     70 H26A       -8.4900   -2.9070    1.4250 hc        1 3EV      0.043367
     71 H26B       -9.1940   -1.2340    1.3960 hc        1 3EV      0.043367
     72 H27        -6.5440   -2.4530   -1.8030 hc        1 3EV      0.043367
     73 H27A       -6.7150   -3.5460   -0.3560 hc        1 3EV      0.043367
     74 H27B       -8.1080   -3.3130   -1.5040 hc        1 3EV      0.043367
@<TRIPOS>BOND
     1    1    2 1   
     2    1    3 1   
     3    1   13 1   
     4    1   31 1   
     5    2   32 1   
     6    3    5 1   
     7    3   33 1   
     8    3   34 1   
     9    4    5 1   
    10    4   35 1   
    11    5    7 1   
    12    5   36 1   
    13    6   28 1   
    14    6   37 1   
    15    7    8 1   
    16    7   38 1   
    17    7   39 1   
    18    8    9 2   
    19    8   13 1   
    20    9   10 1   
    21    9   40 1   
    22   10   11 2   
    23   10   41 1   
    24   11   12 1   
    25   11   17 1   
    26   12   14 1   
    27   12   42 1   
    28   12   43 1   
    29   13   22 2   
    30   14   15 1   
    31   14   44 1   
    32   14   45 1   
    33   15   16 1   
    34   15   46 1   
    35   15   47 1   
    36   16   17 1   
    37   16   20 1   
    38   16   21 1   
    39   17   18 1   
    40   17   48 1   
    41   18   19 1   
    42   18   49 1   
    43   18   50 1   
    44   19   20 1   
    45   19   51 1   
    46   19   52 1   
    47   20   23 1   
    48   20   53 1   
    49   21   54 1   
    50   21   55 1   
    51   21   56 1   
    52   22   57 1   
    53   22   58 1   
    54   23   24 1   
    55   23   25 1   
    56   23   59 1   
    57   24   60 1   
    58   24   61 1   
    59   24   62 1   
    60   25   26 1   
    61   25   63 1   
    62   25   64 1   
    63   26   27 1   
    64   26   65 1   
    65   26   66 1   
    66   27   28 1   
    67   27   67 1   
    68   27   68 1   
    69   28   29 1   
    70   28   30 1   
    71   29   69 1   
    72   29   70 1   
    73   29   71 1   
    74   30   72 1   
    75   30   73 1   
    76   30   74 1   
@<TRIPOS>SUBSTRUCTURE
     1 3EV         1 TEMP              0 ****  ****    0 ROOT
