@<TRIPOS>MOLECULE
3EV
   74    76     1     0     0
SMALL
bcc


@<TRIPOS>ATOM
      1 C1          0.1890    0.2610   -0.1710 c3        1 3EV      0.188300
      2 O1         -0.0110    0.7570   -1.4910 oh        1 3EV     -0.596800
      3 C2          1.6270   -0.2220    0.0040 c3        1 3EV     -0.148400
      4 O2          3.2360   -0.9930    1.6510 oh        1 3EV     -0.597800
      5 C3          1.8720   -0.6430    1.4470 c3        1 3EV      0.150100
      6 O3         -9.7080    9.6420    2.8880 oh        1 3EV     -0.597800
      7 C4          1.5790    0.5050    2.4100 c3        1 3EV     -0.038200
      8 C5          0.2060    1.0500    2.1980 ce        1 3EV     -0.082200
      9 C6         -0.6130    1.2610    3.2490 cf        1 3EV     -0.113000
     10 C7         -1.9620    1.7680    3.1570 cf        1 3EV     -0.153000
     11 C8         -2.6550    2.3340    4.1600 c2        1 3EV     -0.077400
     12 C9         -2.1380    2.5370    5.5470 c3        1 3EV     -0.045200
     13 C10        -0.1460    1.3530    0.8090 ce        1 3EV     -0.094200
     14 C11        -2.4330    3.9160    6.1140 c3        1 3EV     -0.072400
     15 C12        -3.8530    4.3970    5.8780 c3        1 3EV     -0.067400
     16 C13        -4.2270    4.2760    4.4090 c3        1 3EV     -0.040000
     17 C14        -4.0680    2.7760    4.0280 c3        1 3EV     -0.037500
     18 C15        -4.8090    2.6550    2.7050 c3        1 3EV     -0.073400
     19 C16        -5.9640    3.6510    2.8210 c3        1 3EV     -0.078400
     20 C17        -5.7190    4.5150    4.0760 c3        1 3EV     -0.053700
     21 C18        -3.3340    5.1550    3.5510 c3        1 3EV     -0.083100
     22 C19        -0.7220    2.5010    0.4340 c2        1 3EV     -0.174000
     23 C20        -6.1510    5.9620    3.8660 c3        1 3EV     -0.054700
     24 C21        -5.8800    6.8140    5.0910 c3        1 3EV     -0.092100
     25 C22        -7.6390    6.0240    3.5270 c3        1 3EV     -0.079400
     26 C23        -8.0010    7.2990    2.7910 c3        1 3EV     -0.079400
     27 C24        -9.4750    7.3270    2.4540 c3        1 3EV     -0.064400
     28 C25        -9.9280    8.6680    1.8660 c3        1 3EV      0.147800
     29 C26       -11.4160    8.6020    1.5330 c3        1 3EV     -0.123100
     30 C27        -9.1340    9.0340    0.6180 c3        1 3EV     -0.123100
     31 H1         -0.5200   -0.6020    0.0020 h1        1 3EV      0.040700
     32 HO1         0.2550    0.0500   -2.0910 ho        1 3EV      0.401000
     33 H2          2.3370    0.5990   -0.2760 hc        1 3EV      0.055200
     34 H2A         1.8180   -1.0860   -0.6830 hc        1 3EV      0.055200
     35 HO2         3.4430   -1.6860    1.0130 ho        1 3EV      0.399000
     36 H3          1.2230   -1.5300    1.6980 h1        1 3EV      0.035700
     37 HO3        -9.9900   10.4900    2.5270 ho        1 3EV      0.397000
     38 H4          2.3320    1.3220    2.2410 hc        1 3EV      0.064700
     39 H4A         1.7130    0.1390    3.4610 hc        1 3EV      0.064700
     40 H6         -0.2530    1.0090    4.2630 ha        1 3EV      0.124000
     41 H7         -2.4390    1.6560    2.1640 ha        1 3EV      0.133000
     42 H9         -2.6160    1.7590    6.2060 hc        1 3EV      0.046700
     43 H9A        -1.0290    2.3720    5.5880 hc        1 3EV      0.046700
     44 H11        -2.2350    3.8960    7.2190 hc        1 3EV      0.040700
     45 H11A       -1.7180    4.6550    5.6640 hc        1 3EV      0.040700
     46 H12        -4.5670    3.7920    6.4960 hc        1 3EV      0.043200
     47 H12A       -3.9390    5.4620    6.2170 hc        1 3EV      0.043200
     48 H14        -4.6530    2.1740    4.7880 hc        1 3EV      0.055700
     49 H15        -4.1460    2.9260    1.8450 hc        1 3EV      0.045200
     50 H15A       -5.1780    1.6150    2.5390 hc        1 3EV      0.045200
     51 H16        -6.9390    3.1110    2.9130 hc        1 3EV      0.042200
     52 H16A       -6.0120    4.2920    1.9060 hc        1 3EV      0.042200
     53 H17        -6.3280    4.0980    4.9250 hc        1 3EV      0.046700
     54 H18        -3.7000    5.1650    2.4950 hc        1 3EV      0.037367
     55 H18A       -3.3280    6.2020    3.9370 hc        1 3EV      0.037367
     56 H18B       -2.2860    4.7690    3.5520 hc        1 3EV      0.037367
     57 H19        -0.9700    3.2920    1.1550 ha        1 3EV      0.126500
     58 H19A       -0.9650    2.7130   -0.6170 ha        1 3EV      0.126500
     59 H20        -5.5700    6.3860    2.9980 hc        1 3EV      0.050700
     60 H21        -4.7910    7.0460    5.1790 hc        1 3EV      0.035033
     61 H21A       -6.4330    7.7820    5.0240 hc        1 3EV      0.035033
     62 H21B       -6.2070    6.2850    6.0190 hc        1 3EV      0.035033
     63 H22        -8.2370    5.9520    4.4730 hc        1 3EV      0.040200
     64 H22A       -7.9280    5.1490    2.8880 hc        1 3EV      0.040200
     65 H23        -7.7520    8.1960    3.4180 hc        1 3EV      0.048700
     66 H23A       -7.3950    7.3710    1.8490 hc        1 3EV      0.048700
     67 H24        -9.7160    6.5210    1.7130 hc        1 3EV      0.047200
     68 H24A      -10.0730    7.1340    3.3830 hc        1 3EV      0.047200
     69 H26       -11.7670    9.5840    1.1350 hc        1 3EV      0.042367
     70 H26A      -12.0020    8.3610    2.4510 hc        1 3EV      0.042367
     71 H26B      -11.6010    7.8150    0.7650 hc        1 3EV      0.042367
     72 H27        -9.5820    9.9290    0.1230 hc        1 3EV      0.042367
     73 H27A       -8.0790    9.2720    0.8930 hc        1 3EV      0.042367
     74 H27B       -9.1400    8.1830   -0.1030 hc        1 3EV      0.042367
@<TRIPOS>BOND
     1    1    2 1   
     2    1    3 1   
     3    1   13 1   
     4    1   31 1   
     5    2   32 1   
     6    3    5 1   
     7    3   33 1   
     8    3   34 1   
     9    4    5 1   
    10    4   35 1   
    11    5    7 1   
    12    5   36 1   
    13    6   28 1   
    14    6   37 1   
    15    7    8 1   
    16    7   38 1   
    17    7   39 1   
    18    8    9 2   
    19    8   13 1   
    20    9   10 1   
    21    9   40 1   
    22   10   11 2   
    23   10   41 1   
    24   11   12 1   
    25   11   17 1   
    26   12   14 1   
    27   12   42 1   
    28   12   43 1   
    29   13   22 2   
    30   14   15 1   
    31   14   44 1   
    32   14   45 1   
    33   15   16 1   
    34   15   46 1   
    35   15   47 1   
    36   16   17 1   
    37   16   20 1   
    38   16   21 1   
    39   17   18 1   
    40   17   48 1   
    41   18   19 1   
    42   18   49 1   
    43   18   50 1   
    44   19   20 1   
    45   19   51 1   
    46   19   52 1   
    47   20   23 1   
    48   20   53 1   
    49   21   54 1   
    50   21   55 1   
    51   21   56 1   
    52   22   57 1   
    53   22   58 1   
    54   23   24 1   
    55   23   25 1   
    56   23   59 1   
    57   24   60 1   
    58   24   61 1   
    59   24   62 1   
    60   25   26 1   
    61   25   63 1   
    62   25   64 1   
    63   26   27 1   
    64   26   65 1   
    65   26   66 1   
    66   27   28 1   
    67   27   67 1   
    68   27   68 1   
    69   28   29 1   
    70   28   30 1   
    71   29   69 1   
    72   29   70 1   
    73   29   71 1   
    74   30   72 1   
    75   30   73 1   
    76   30   74 1   
@<TRIPOS>SUBSTRUCTURE
     1 3EV         1 TEMP              0 ****  ****    0 ROOT
