@<TRIPOS>MOLECULE
3EV
   74    76     1     0     0
SMALL
bcc


@<TRIPOS>ATOM
      1 C1          0.1970    0.2670   -0.1680 c3        1 3EV      0.188300
      2 O1         -0.0000    0.7660   -1.4870 oh        1 3EV     -0.596800
      3 C2          1.6340   -0.2170    0.0090 c3        1 3EV     -0.148400
      4 O2          3.2390   -0.9940    1.6570 oh        1 3EV     -0.597800
      5 C3          1.8760   -0.6430    1.4510 c3        1 3EV      0.150100
      6 O3         -9.6980    9.6460    2.8810 oh        1 3EV     -0.597800
      7 C4          1.5800    0.5020    2.4170 c3        1 3EV     -0.038200
      8 C5          0.2080    1.0480    2.2030 ce        1 3EV     -0.082200
      9 C6         -0.6130    1.2560    3.2540 cf        1 3EV     -0.113000
     10 C7         -1.9620    1.7640    3.1600 cf        1 3EV     -0.153000
     11 C8         -2.6560    2.3300    4.1620 c2        1 3EV     -0.077400
     12 C9         -2.1400    2.5320    5.5500 c3        1 3EV     -0.045200
     13 C10        -0.1410    1.3550    0.8150 ce        1 3EV     -0.094200
     14 C11        -2.4340    3.9110    6.1160 c3        1 3EV     -0.072400
     15 C12        -3.8540    4.3940    5.8790 c3        1 3EV     -0.067400
     16 C13        -4.2260    4.2730    4.4090 c3        1 3EV     -0.040000
     17 C14        -4.0680    2.7740    4.0290 c3        1 3EV     -0.037500
     18 C15        -4.8080    2.6530    2.7050 c3        1 3EV     -0.073400
     19 C16        -5.9620    3.6500    2.8200 c3        1 3EV     -0.078400
     20 C17        -5.7170    4.5140    4.0750 c3        1 3EV     -0.053700
     21 C18        -3.3320    5.1510    3.5520 c3        1 3EV     -0.083100
     22 C19        -0.7160    2.5040    0.4420 c2        1 3EV     -0.174000
     23 C20        -6.1480    5.9620    3.8640 c3        1 3EV     -0.054700
     24 C21        -5.8770    6.8130    5.0900 c3        1 3EV     -0.092100
     25 C22        -7.6360    6.0250    3.5240 c3        1 3EV     -0.079400
     26 C23        -7.9950    7.2990    2.7870 c3        1 3EV     -0.079400
     27 C24        -9.4700    7.3300    2.4500 c3        1 3EV     -0.064400
     28 C25        -9.9190    8.6700    1.8600 c3        1 3EV      0.147800
     29 C26       -11.4080    8.6070    1.5270 c3        1 3EV     -0.123100
     30 C27        -9.1260    9.0330    0.6110 c3        1 3EV     -0.123100
     31 H1         -0.5130   -0.5970    0.0010 h1        1 3EV      0.040700
     32 HO1         0.2670    0.0620   -2.0890 ho        1 3EV      0.401000
     33 H2          2.3440    0.6040   -0.2670 hc        1 3EV      0.055200
     34 H2A         1.8270   -1.0790   -0.6800 hc        1 3EV      0.055200
     35 HO2         3.4480   -1.6850    1.0170 ho        1 3EV      0.399000
     36 H3          1.2260   -1.5300    1.6980 h1        1 3EV      0.035700
     37 HO3        -9.9780   10.4940    2.5180 ho        1 3EV      0.397000
     38 H4          2.3340    1.3190    2.2530 hc        1 3EV      0.064700
     39 H4A         1.7120    0.1320    3.4670 hc        1 3EV      0.064700
     40 H6         -0.2550    1.0010    4.2680 ha        1 3EV      0.124000
     41 H7         -2.4370    1.6530    2.1660 ha        1 3EV      0.133000
     42 H9         -1.0310    2.3660    5.5920 hc        1 3EV      0.046700
     43 H9A        -2.6190    1.7550    6.2080 hc        1 3EV      0.046700
     44 H11        -1.7180    4.6500    5.6670 hc        1 3EV      0.040700
     45 H11A       -2.2370    3.8920    7.2210 hc        1 3EV      0.040700
     46 H12        -4.5690    3.7890    6.4960 hc        1 3EV      0.043200
     47 H12A       -3.9380    5.4590    6.2170 hc        1 3EV      0.043200
     48 H14        -4.6550    2.1710    4.7880 hc        1 3EV      0.055700
     49 H15        -5.1780    1.6130    2.5380 hc        1 3EV      0.045200
     50 H15A       -4.1440    2.9230    1.8460 hc        1 3EV      0.045200
     51 H16        -6.0080    4.2910    1.9050 hc        1 3EV      0.042200
     52 H16A       -6.9370    3.1110    2.9110 hc        1 3EV      0.042200
     53 H17        -6.3280    4.0970    4.9240 hc        1 3EV      0.046700
     54 H18        -2.2840    4.7640    3.5540 hc        1 3EV      0.037367
     55 H18A       -3.6960    5.1620    2.4960 hc        1 3EV      0.037367
     56 H18B       -3.3240    6.1990    3.9380 hc        1 3EV      0.037367
     57 H19        -0.9660    3.2920    1.1650 ha        1 3EV      0.126500
     58 H19A       -0.9570    2.7190   -0.6090 ha        1 3EV      0.126500
     59 H20        -5.5660    6.3850    2.9970 hc        1 3EV      0.050700
     60 H21        -6.2060    6.2850    6.0170 hc        1 3EV      0.035033
     61 H21A       -6.4290    7.7820    5.0220 hc        1 3EV      0.035033
     62 H21B       -4.7880    7.0440    5.1790 hc        1 3EV      0.035033
     63 H22        -7.9250    5.1490    2.8850 hc        1 3EV      0.040200
     64 H22A       -8.2340    5.9540    4.4700 hc        1 3EV      0.040200
     65 H23        -7.7450    8.1960    3.4130 hc        1 3EV      0.048700
     66 H23A       -7.3890    7.3700    1.8450 hc        1 3EV      0.048700
     67 H24       -10.0680    7.1390    3.3790 hc        1 3EV      0.047200
     68 H24A       -9.7110    6.5240    1.7100 hc        1 3EV      0.047200
     69 H26       -11.5950    7.8190    0.7600 hc        1 3EV      0.042367
     70 H26A      -11.7570    9.5890    1.1280 hc        1 3EV      0.042367
     71 H26B      -11.9940    8.3680    2.4460 hc        1 3EV      0.042367
     72 H27        -9.5720    9.9280    0.1150 hc        1 3EV      0.042367
     73 H27A       -9.1340    8.1820   -0.1080 hc        1 3EV      0.042367
     74 H27B       -8.0700    9.2700    0.8850 hc        1 3EV      0.042367
@<TRIPOS>BOND
     1    1    2 1   
     2    1    3 1   
     3    1   13 1   
     4    1   31 1   
     5    2   32 1   
     6    3    5 1   
     7    3   33 1   
     8    3   34 1   
     9    4    5 1   
    10    4   35 1   
    11    5    7 1   
    12    5   36 1   
    13    6   28 1   
    14    6   37 1   
    15    7    8 1   
    16    7   38 1   
    17    7   39 1   
    18    8    9 2   
    19    8   13 1   
    20    9   10 1   
    21    9   40 1   
    22   10   11 2   
    23   10   41 1   
    24   11   12 1   
    25   11   17 1   
    26   12   14 1   
    27   12   42 1   
    28   12   43 1   
    29   13   22 2   
    30   14   15 1   
    31   14   44 1   
    32   14   45 1   
    33   15   16 1   
    34   15   46 1   
    35   15   47 1   
    36   16   17 1   
    37   16   20 1   
    38   16   21 1   
    39   17   18 1   
    40   17   48 1   
    41   18   19 1   
    42   18   49 1   
    43   18   50 1   
    44   19   20 1   
    45   19   51 1   
    46   19   52 1   
    47   20   23 1   
    48   20   53 1   
    49   21   54 1   
    50   21   55 1   
    51   21   56 1   
    52   22   57 1   
    53   22   58 1   
    54   23   24 1   
    55   23   25 1   
    56   23   59 1   
    57   24   60 1   
    58   24   61 1   
    59   24   62 1   
    60   25   26 1   
    61   25   63 1   
    62   25   64 1   
    63   26   27 1   
    64   26   65 1   
    65   26   66 1   
    66   27   28 1   
    67   27   67 1   
    68   27   68 1   
    69   28   29 1   
    70   28   30 1   
    71   29   69 1   
    72   29   70 1   
    73   29   71 1   
    74   30   72 1   
    75   30   73 1   
    76   30   74 1   
@<TRIPOS>SUBSTRUCTURE
     1 3EV         1 TEMP              0 ****  ****    0 ROOT
