@<TRIPOS>MOLECULE
3EV
   74    73     1     0     0
SMALL
bcc


@<TRIPOS>ATOM
      1 C1         -1.2230   -2.9940   -7.2330 c3        1 3EV      0.074000
      2 O1         -1.8250   -2.7740   -8.5150 oh        1 3EV     -0.324000
      3 C2          0.4180   -2.7860   -7.3170 c3        1 3EV     -0.227000
      4 O2          2.4930   -2.6050   -6.4870 oh        1 3EV     -0.325000
      5 C3          1.0250   -2.8560   -6.2240 c3        1 3EV      0.039000
      6 O3          3.3440    2.4150    5.5780 oh        1 3EV     -0.325000
      7 C4          0.5110   -1.7740   -5.0460 c3        1 3EV     -0.121000
      8 C5         -0.8930   -1.8060   -4.8800 c2        1 3EV     -0.073000
      9 C6         -1.4860   -1.5510   -3.6480 c1        1 3EV     -0.118000
     10 C7         -0.6270   -1.2310   -2.4450 c1        1 3EV     -0.159000
     11 C8         -1.1850   -1.2450   -1.1680 c1        1 3EV     -0.067000
     12 C9         -2.6930   -1.5920   -0.9860 c2        1 3EV     -0.128000
     13 C10        -1.8190   -2.1640   -6.2470 c2        1 3EV     -0.091000
     14 C11        -3.1800   -0.9760    0.3210 c3        1 3EV     -0.153000
     15 C12        -2.3690   -1.3340    1.4370 c3        1 3EV     -0.149000
     16 C13        -0.8130   -1.0550    1.2060 c3        1 3EV     -0.033000
     17 C14        -0.3200   -1.5790    0.0400 c3        1 3EV     -0.072000
     18 C15         1.0150   -0.7400   -0.2210 c3        1 3EV     -0.153000
     19 C16         0.9260    0.5520    0.8060 c3        1 3EV     -0.158000
     20 C17        -0.3500    0.5310    1.2700 c3        1 3EV     -0.096000
     21 C18        -0.0870   -1.7600    2.3330 c3        1 3EV     -0.204000
     22 C19        -3.0950   -1.6730   -6.3990 c1        1 3EV     -0.178000
     23 C20        -0.3980    1.0380    2.7040 c3        1 3EV     -0.095000
     24 C21        -1.8070    1.4600    3.0460 c3        1 3EV     -0.211000
     25 C22         0.5440    2.2360    2.8560 c3        1 3EV     -0.156000
     26 C23         1.0990    2.2870    4.3350 c3        1 3EV     -0.158000
     27 C24         1.5740    3.7360    4.6640 c3        1 3EV     -0.143000
     28 C25         2.7430    3.6790    5.6440 c3        1 3EV      0.076000
     29 C26         3.7600    4.7430    5.2830 c3        1 3EV     -0.241500
     30 C27         2.2190    3.9350    7.0920 c3        1 3EV     -0.241500
     31 H1         -1.4510   -3.9470   -7.0770 h1        1 3EV      0.081000
     32 HO1        -1.8730   -3.5670   -8.9690 ho        1 3EV      0.200000
     33 H2          0.5970   -1.9040   -7.7120 hc        1 3EV      0.094500
     34 H2A         0.7820   -3.4690   -7.9150 hc        1 3EV      0.094500
     35 HO2         2.9100   -3.3890   -6.6280 ho        1 3EV      0.198000
     36 H3          0.9240   -3.7660   -5.8730 h1        1 3EV      0.076000
     37 HO3         3.9640    2.3620    6.1650 ho        1 3EV      0.196000
     38 H4          0.9620   -1.8760   -4.1790 hc        1 3EV      0.106000
     39 H4A         0.8090   -0.8730   -5.2990 hc        1 3EV      0.106000
     40 H6         -2.4650   -1.5810   -3.5580 ha        1 3EV      0.125000
     41 H7          0.2970   -1.0180   -2.5610 ha        1 3EV      0.126000
     42 H9         -2.9910   -2.5460   -0.9800 ha        1 3EV      0.089500
     43 H9A        -3.1570   -1.2560   -1.7860 ha        1 3EV      0.089500
     44 H11        -4.1160   -1.2840    0.4930 hc        1 3EV      0.081000
     45 H11A       -3.1800    0.0180    0.2270 hc        1 3EV      0.081000
     46 H12        -2.4950   -2.3110    1.6230 hc        1 3EV      0.083000
     47 H12A       -2.6640   -0.8290    2.2090 hc        1 3EV      0.083000
     48 H14        -0.1360   -2.5600    0.1140 hc        1 3EV      0.093000
     49 H15         1.0480   -0.4300   -1.1590 hc        1 3EV      0.084500
     50 H15A        1.8040   -1.2840   -0.0150 hc        1 3EV      0.084500
     51 H16         1.1040    1.3990    0.3150 hc        1 3EV      0.083500
     52 H16A        1.5570    0.4440    1.5430 hc        1 3EV      0.083500
     53 H17        -0.9300    1.0770    0.6950 hc        1 3EV      0.087000
     54 H18        -0.0510   -2.7320    2.1460 hc        1 3EV      0.076000
     55 H18A        0.8190   -1.4090    2.4050 hc        1 3EV      0.076000
     56 H18B       -0.5690   -1.6060    3.1830 hc        1 3EV      0.076000
     57 H19        -3.6050   -1.8920   -7.1890 DU        1 3EV      0.135000
     58 H19A       -3.4980   -1.0870   -5.6870 ha        1 3EV      0.114000
     59 H20        -0.1230    0.3420    3.2950 hc        1 3EV      0.093000
     60 H21        -1.9720    1.3110    4.0100 hc        1 3EV      0.073333
     61 H21A       -2.4360    0.9390    2.5260 hc        1 3EV      0.073333
     62 H21B       -1.9220    2.4070    2.8390 hc        1 3EV      0.073333
     63 H22         1.2900    2.1450    2.2310 hc        1 3EV      0.078000
     64 H22A        0.0560    3.0610    2.6620 hc        1 3EV      0.078000
     65 H23         0.3940    2.0280    4.9550 hc        1 3EV      0.088500
     66 H23A        1.8640    1.6610    4.4240 hc        1 3EV      0.088500
     67 H24         1.8610    4.1820    3.8380 hc        1 3EV      0.086000
     68 H24A        0.8270    4.2440    5.0720 hc        1 3EV      0.086000
     69 H26         4.0720    4.6000    4.3630 hc        1 3EV      0.081667
     70 H26A        3.3460    5.6300    5.3540 hc        1 3EV      0.081667
     71 H26B        4.5210    4.6880    5.8980 hc        1 3EV      0.081667
     72 H27         2.9930    4.0260    7.7130 hc        1 3EV      0.081667
     73 H27A        1.6460    3.1670    7.3830 hc        1 3EV      0.081667
     74 H27B        1.6860    4.7670    7.1060 hc        1 3EV      0.081667
@<TRIPOS>BOND
     1    1    2 1   
     2    1    3 1   
     3    1   13 1   
     4    1   31 1   
     5    2   32 1   
     6    3    5 1   
     7    3   33 1   
     8    3   34 1   
     9    4    5 1   
    10    4   35 1   
    11    5    7 1   
    12    5   36 1   
    13    6   28 1   
    14    6   37 1   
    15    7    8 1   
    16    7   38 1   
    17    7   39 1   
    18    8    9 1   
    19    8   13 1   
    20    9   40 1   
    21   10   11 1   
    22   10   41 1   
    23   11   17 1   
    24   12   14 1   
    25   12   42 1   
    26   12   43 1   
    27   13   22 1   
    28   14   15 1   
    29   14   44 1   
    30   14   45 1   
    31   15   16 1   
    32   15   46 1   
    33   15   47 1   
    34   16   17 1   
    35   16   20 1   
    36   16   21 1   
    37   17   18 1   
    38   17   48 1   
    39   18   19 1   
    40   18   49 1   
    41   18   50 1   
    42   19   20 1   
    43   19   51 1   
    44   19   52 1   
    45   20   23 1   
    46   20   53 1   
    47   21   54 1   
    48   21   55 1   
    49   21   56 1   
    50   22   58 1   
    51   23   24 1   
    52   23   25 1   
    53   23   59 1   
    54   24   60 1   
    55   24   61 1   
    56   24   62 1   
    57   25   26 1   
    58   25   63 1   
    59   25   64 1   
    60   26   27 1   
    61   26   65 1   
    62   26   66 1   
    63   27   28 1   
    64   27   67 1   
    65   27   68 1   
    66   28   29 1   
    67   28   30 1   
    68   29   69 1   
    69   29   70 1   
    70   29   71 1   
    71   30   72 1   
    72   30   73 1   
    73   30   74 1   
@<TRIPOS>SUBSTRUCTURE
     1 3EV         1 TEMP              0 ****  ****    0 ROOT
