@<TRIPOS>MOLECULE
3EW
   42    42     1     0     0
SMALL
bcc


@<TRIPOS>ATOM
      1 O3          1.6780   -2.2560    0.2830 oh        1 3EW     -0.163000
      2 C4          1.3910   -3.7090    7.3120 ca        1 3EW      0.092000
      3 C5          1.1920   -3.3790    5.9390 ca        1 3EW      0.063000
      4 C6          1.8350   -2.2260    5.4100 ca        1 3EW     -0.151000
      5 C7          1.6360   -1.8730    3.9750 c2        1 3EW      0.320000
      6 C8         -0.9490   -4.3420    5.2280 c2        1 3EW      0.133000
      7 N2          1.3700   -0.5000    3.7070 n         1 3EW     -0.204000
      8 C9         -1.6780   -3.8790    6.2840 c2        1 3EW     -0.282000
      9 C10        -3.1080   -4.0970    6.3640 c2        1 3EW     -0.060000
     10 C11        -3.9920   -3.5180    5.5310 c2        1 3EW     -0.239000
     11 C12        -3.0170   -5.0310    4.0400 c1        1 3EW      0.227000
     12 N3          3.6330   -1.1500    8.5510 nh        1 3EW     -0.212000
     13 C13        -1.6790   -5.0460    4.1570 c2        1 3EW     -0.373000
     14 C14         3.4740   -1.8860    9.7220 c1        1 3EW      0.066000
     15 C15         1.8170    0.3770    1.5780 c3        1 3EW     -0.080000
     16 N4          2.6130   -2.9360    9.4390 nh        1 3EW     -0.249000
     17 BR1        -5.8330   -3.7340    5.6410 br        1 3EW      0.070000
     18 CL1        -0.8210   -5.9710    3.0100 cl        1 3EW      0.038000
     19 F1          0.8130   -4.7920    7.8800 f         1 3EW     -0.081000
     20 C3          2.2180   -2.8850    8.0880 ca        1 3EW     -0.046000
     21 C17         4.4480    0.0120    8.4050 c3        1 3EW     -0.063000
     22 C2          2.8720   -1.7330    7.5100 ca        1 3EW     -0.031000
     23 C1          2.6770   -1.4130    6.1730 ca        1 3EW     -0.078000
     24 O1          1.7850   -2.6960    3.0530 o         1 3EW     -0.349000
     25 O2          0.8840   -0.2610    2.4810 os        1 3EW     -0.206000
     26 C16         2.3350   -3.3530    0.2040 c1        1 3EW     -0.027000
     27 H1          1.1620   -2.0950    1.1090 ho        1 3EW      0.173000
     28 H2          0.8110   -4.3500    4.1860 hn        1 3EW      0.257000
     29 H3          0.7640   -0.0690    4.3940 hn        1 3EW      0.220000
     30 H4         -1.2140   -3.3800    7.1470 ha        1 3EW      0.159000
     31 H5         -3.4350   -4.7670    7.1830 ha        1 3EW      0.154000
     32 H6         -3.6950   -2.7930    4.7580 h4        1 3EW      0.163000
     33 H7          2.3260   -3.6370   10.0720 hn        1 3EW      0.272000
     34 H8          2.0680    1.4020    1.9370 h1        1 3EW      0.097000
     35 H9          2.7360   -0.2420    1.4510 h1        1 3EW      0.097000
     36 H10         3.8190    0.8910    8.1000 h1        1 3EW      0.095667
     37 H11         5.2340   -0.1610    7.6210 h1        1 3EW      0.095667
     38 H12         4.9440    0.2320    9.3880 h1        1 3EW      0.095667
     39 H13         3.1840   -0.5440    5.7260 ha        1 3EW      0.162000
     40 H14         1.2280    0.4070    0.6250 h1        1 3EW      0.097000
     41 H15         2.2800   -4.0590    1.0670 ha        1 3EW      0.008000
     42 N1          0.4400   -4.2350    5.1120 nh        1 3EW     -0.261000
@<TRIPOS>BOND
     1    1   26 1   
     2    1   27 1   
     3    2    3 1   
     4    2   19 1   
     5    2   20 1   
     6    3    4 1   
     7    3   42 1   
     8    4    5 1   
     9    4   23 1   
    10    5    7 1   
    11    5   24 1   
    12    6    8 1   
    13    6   13 1   
    14    6   42 1   
    15    7   25 1   
    16    7   29 1   
    17    8    9 1   
    18    8   30 1   
    19    9   10 1   
    20    9   31 1   
    21   10   17 1   
    22   10   32 1   
    23   11   13 1   
    24   12   14 1   
    25   12   21 1   
    26   12   22 1   
    27   13   18 1   
    28   14   16 1   
    29   15   25 1   
    30   15   34 1   
    31   15   35 1   
    32   15   40 1   
    33   16   20 1   
    34   16   33 1   
    35   20   22 1   
    36   21   36 1   
    37   21   37 1   
    38   21   38 1   
    39   22   23 1   
    40   23   39 1   
    41   26   41 1   
    42   28   42 1   
@<TRIPOS>SUBSTRUCTURE
     1 3EW         1 TEMP              0 ****  ****    0 ROOT
