@<TRIPOS>MOLECULE
3EW
   43    43     1     0     0
SMALL
bcc


@<TRIPOS>ATOM
      1 O3         -2.7390    0.3160    3.6580 o         1 3EW     -0.238000
      2 C4          1.0050   -3.2570    7.7340 ca        1 3EW      0.125000
      3 C5          1.3970   -3.5620    6.4000 ca        1 3EW     -0.064000
      4 C6          2.4900   -2.8840    5.8060 ca        1 3EW     -0.080000
      5 C7          2.8710   -3.1910    4.3890 c2        1 3EW      0.349000
      6 C8         -0.3290   -4.4210    4.8920 c2        1 3EW      0.264000
      7 N2          4.1740   -3.4870    4.1240 n         1 3EW     -0.399000
      8 C9         -0.8470   -3.0520    4.5990 c3        1 3EW     -0.199000
      9 C10        -2.1130   -2.9850    3.8560 c2        1 3EW     -0.009000
     10 C11        -2.7120   -4.0830    3.3290 c2        1 3EW     -0.250000
     11 C12        -2.1230   -5.3770    3.5160 c2        1 3EW      0.085000
     12 N3          3.3180   -0.6680    8.7430 nh        1 3EW     -0.206000
     13 C13        -0.9850   -5.5470    4.2600 c2        1 3EW     -0.218000
     14 C14         2.5670   -0.7610    9.9190 c1        1 3EW      0.115000
     15 C15         0.3410    0.0460    1.5230 c3        1 3EW     -0.071000
     16 N4          1.5990   -1.7350    9.7200 nh        1 3EW     -0.241000
     17 BR1        -4.3010   -3.9680    2.3580 br        1 3EW      0.141000
     18 CL1        -0.3420   -7.1050    4.4620 cl        1 3EW      0.051000
     19 C3          1.7200   -2.2710    8.4250 ca        1 3EW     -0.061000
     20 C17         4.4160    0.2240    8.5370 c3        1 3EW     -0.074000
     21 C2          2.8310   -1.5830    7.7930 ca        1 3EW      0.018000
     22 C1          3.2060   -1.9010    6.4880 ca        1 3EW     -0.099000
     23 O1          2.0140   -3.1770    3.4760 o         1 3EW     -0.410000
     24 O2          0.4440   -1.0240    2.4410 oh        1 3EW     -0.373000
     25 C16        -2.5520    1.3400    3.1140 c1        1 3EW      0.239000
     26 H1         -2.5270   -1.9640    3.7280 ha        1 3EW      0.201000
     27 H2          1.0740   -5.5350    5.8620 hn        1 3EW      0.284000
     28 H3          4.4520   -3.6820    3.1910 hn        1 3EW      0.246500
     29 H4         -0.9290   -2.4430    5.5480 hc        1 3EW      0.216500
     30 H5         -0.0490   -2.5170    3.9610 hc        1 3EW      0.216500
     31 H6         -2.6120   -6.2560    3.0490 ha        1 3EW      0.196000
     32 H7          0.9250   -2.0260   10.3830 hn        1 3EW      0.284000
     33 H8          1.1980   -1.5640    2.1700 ho        1 3EW      0.220000
     34 H9          1.2670    0.6730    1.5400 h1        1 3EW      0.075000
     35 H10         4.2050    0.9040    7.6690 h1        1 3EW      0.108000
     36 H11         5.3540   -0.3590    8.3290 h1        1 3EW      0.108000
     37 H12         4.5580    0.8380    9.4670 h1        1 3EW      0.108000
     38 H13         4.0430   -1.3730    6.0050 ha        1 3EW      0.171000
     39 H14        -0.5360    0.6500    1.8720 h1        1 3EW      0.075000
     40 H15         0.1570   -0.3360    0.4880 h1        1 3EW      0.075000
     41 N1          0.7210   -4.6050    5.7020 nh        1 3EW     -0.152000
     42 H22         4.8560   -3.5040    4.8400 hn        1 3EW      0.246500
     43 F1         -0.0270   -3.8940    8.3280 f         1 3EW     -0.076000
@<TRIPOS>BOND
     1    1   25 1   
     2    2    3 1   
     3    2   19 1   
     4    2   43 1   
     5    3    4 1   
     6    3   41 1   
     7    4    5 1   
     8    4   22 1   
     9    5    7 1   
    10    5   23 1   
    11    6    8 1   
    12    6   13 1   
    13    6   41 1   
    14    7   28 1   
    15    7   42 1   
    16    8    9 1   
    17    8   29 1   
    18    8   30 1   
    19    9   10 1   
    20    9   26 1   
    21   10   11 1   
    22   10   17 1   
    23   11   13 1   
    24   11   31 1   
    25   12   14 1   
    26   12   20 1   
    27   12   21 1   
    28   13   18 1   
    29   14   16 1   
    30   15   24 1   
    31   15   34 1   
    32   15   39 1   
    33   15   40 1   
    34   16   19 1   
    35   16   32 1   
    36   19   21 1   
    37   20   35 1   
    38   20   36 1   
    39   20   37 1   
    40   21   22 1   
    41   22   38 1   
    42   24   33 1   
    43   27   41 1   
@<TRIPOS>SUBSTRUCTURE
     1 3EW         1 TEMP              0 ****  ****    0 ROOT
