@<TRIPOS>MOLECULE
3EY
   47    48     1     0     0
SMALL
bcc


@<TRIPOS>ATOM
      1 O3         -0.8740   -1.0510    1.2960 oh        1 3EY     -0.347000
      2 C4          1.9580   -2.0190    5.7190 c2        1 3EY     -0.199000
      3 C5          3.2830   -2.8440    7.7040 c2        1 3EY      0.171000
      4 C6          3.2820   -3.3280   10.2480 c1        1 3EY      0.159000
      5 N1          4.4610   -2.5310    7.0240 n7        1 3EY     -0.286000
      6 C7          3.2160   -3.1020    8.9940 c1        1 3EY     -0.373000
      7 C8          0.6110   -1.7460    5.1490 c2        1 3EY      0.330000
      8 N2          3.4980   -3.4890   11.4500 n2        1 3EY     -0.165000
      9 C9          0.1410   -4.5960    7.2870 c2        1 3EY      0.224000
     10 C10        -1.0460   -4.1460    8.1090 c3        1 3EY     -0.133000
     11 C11        -2.2410   -4.9720    7.9310 c2        1 3EY     -0.231000
     12 C12        -2.4130   -5.7320    6.7520 c2        1 3EY      0.034000
     13 C13        -1.2860   -6.0980    6.0020 c2        1 3EY     -0.420000
     14 C14         0.0170   -6.0340    6.6810 c3        1 3EY      0.174000
     15 C15        -3.6740   -6.0610    6.3700 c1        1 3EY      0.144000
     16 N4          0.4710   -1.2040    3.8550 ns        1 3EY     -0.193000
     17 F1          1.0770   -6.3730    5.8670 f         1 3EY     -0.138000
     18 C17        -5.6020   -7.5910    6.2300 c3        1 3EY     -0.180000
     19 C16        -4.8780   -6.3240    5.9750 c2        1 3EY     -0.125000
     20 C3          2.0420   -2.9600    6.8540 c2        1 3EY      0.331000
     21 C2          4.4200   -1.6160    5.9080 c3        1 3EY     -0.058000
     22 C1          3.0830   -1.4090    5.2900 c2        1 3EY      0.018000
     23 O1         -0.4180   -1.8620    5.8460 o         1 3EY     -0.360000
     24 O2          1.4530   -1.5420    2.9970 os        1 3EY     -0.216000
     25 C18         1.4390   -0.7950    1.7570 c3        1 3EY     -0.030000
     26 C19         0.4120   -1.3710    0.7910 c3        1 3EY     -0.055000
     27 H1         -1.5100   -1.2330    0.5940 ho        1 3EY      0.221000
     28 H2          5.2620   -2.4190    7.6150 hn        1 3EY      0.240000
     29 H3          2.8100   -3.8260   12.0860 hn        1 3EY      0.226000
     30 H4         -0.7460   -4.1060    9.1950 hc        1 3EY      0.160500
     31 H5         -2.9980   -4.9510    8.7220 ha        1 3EY      0.157000
     32 H6         -1.3060   -3.0830    7.7950 hc        1 3EY      0.160500
     33 H7          0.0370   -6.7040    7.6010 h1        1 3EY      0.124000
     34 H8         -1.3290   -6.4150    4.9600 ha        1 3EY      0.166000
     35 H9         -0.4550   -1.3320    3.4530 hn        1 3EY      0.245000
     36 H10        -4.9860   -8.3210    6.8100 hc        1 3EY      0.117333
     37 H11        -6.5390   -7.3720    6.8050 hc        1 3EY      0.117333
     38 H12        -5.8850   -8.0570    5.2520 hc        1 3EY      0.117333
     39 H13        -5.4430   -5.5580    5.3970 ha        1 3EY      0.207000
     40 H14         4.8220   -0.5970    6.2040 h1        1 3EY      0.132500
     41 H15         5.1170   -2.0330    5.1150 h1        1 3EY      0.132500
     42 H16         1.2580    0.2940    1.9390 h1        1 3EY      0.124000
     43 H17         2.4780   -0.9730    1.3690 h1        1 3EY      0.124000
     44 H18         0.5650   -0.9160   -0.2240 h1        1 3EY      0.088500
     45 H19         0.5190   -2.4870    0.7220 h1        1 3EY      0.088500
     46 N3          1.1630   -3.8520    7.1070 n2        1 3EY     -0.210000
     47 H42         3.0690   -0.7010    4.4380 ha        1 3EY      0.186000
@<TRIPOS>BOND
     1    1   26 1   
     2    1   27 1   
     3    2    7 1   
     4    2   20 1   
     5    2   22 1   
     6    3    5 1   
     7    3    6 1   
     8    3   20 1   
     9    4    6 1   
    10    4    8 1   
    11    5   21 1   
    12    5   28 1   
    13    7   16 1   
    14    7   23 1   
    15    8   29 1   
    16    9   10 1   
    17    9   14 1   
    18    9   46 1   
    19   10   11 1   
    20   10   30 1   
    21   10   32 1   
    22   11   12 1   
    23   11   31 1   
    24   12   13 1   
    25   12   15 1   
    26   13   14 1   
    27   13   34 1   
    28   14   17 1   
    29   14   33 1   
    30   15   19 1   
    31   16   24 1   
    32   16   35 1   
    33   18   19 1   
    34   18   36 1   
    35   18   37 1   
    36   18   38 1   
    37   19   39 1   
    38   20   46 1   
    39   21   22 1   
    40   21   40 1   
    41   21   41 1   
    42   22   47 1   
    43   24   25 1   
    44   25   26 1   
    45   25   42 1   
    46   25   43 1   
    47   26   44 1   
    48   26   45 1   
@<TRIPOS>SUBSTRUCTURE
     1 3EY         1 TEMP              0 ****  ****    0 ROOT
