@<TRIPOS>MOLECULE
3EY
   46    46     1     0     0
SMALL
bcc


@<TRIPOS>ATOM
      1 O3         -1.1910   -1.0210    2.4470 oh        1 3EY     -0.335000
      2 C4          2.5930   -2.3700    5.6680 c2        1 3EY     -0.288000
      3 C5          3.3580   -4.0940    7.2450 c2        1 3EY     -0.353000
      4 C6          2.2840   -1.8060   10.3320 c1        1 3EY      0.085000
      5 N1          4.1210   -3.1270    7.9750 n3        1 3EY     -0.240000
      6 C7          3.5700   -5.4110    7.4410 c1        1 3EY      0.339000
      7 C8          1.6620   -1.7770    4.6750 c2        1 3EY      0.345000
      8 N2          1.8890   -1.2510   11.2900 n2        1 3EY     -0.362000
      9 C9          0.2780   -4.7790    5.8500 c2        1 3EY      0.073000
     10 C10        -0.6190   -3.9210    6.7000 c3        1 3EY     -0.222000
     11 C11        -1.8490   -4.5670    7.1850 c2        1 3EY      0.070000
     12 C12        -2.3850   -5.6860    6.6040 c2        1 3EY     -0.258000
     13 C13        -1.7950   -6.2370    5.4350 c1        1 3EY     -0.035000
     14 C14        -0.3730   -5.9840    5.1230 c3        1 3EY      0.057000
     15 C15        -3.5720   -6.2490    7.1850 c1        1 3EY     -0.019000
     16 N4          2.2710   -1.0260    3.6360 n         1 3EY     -0.191000
     17 F1         -0.1450   -5.9080    3.7590 f         1 3EY     -0.116000
     18 C17        -5.4090   -7.8890    7.2060 c3        1 3EY     -0.190000
     19 C16        -4.4900   -7.0280    6.3740 c3        1 3EY     -0.209000
     20 C3          2.3930   -3.6420    6.2000 c2        1 3EY      0.225000
     21 C2          4.5510   -2.0050    7.1460 c3        1 3EY     -0.131000
     22 C1          3.7120   -1.5890    6.0210 c1        1 3EY     -0.099000
     23 O1          0.4300   -1.9770    4.7090 o         1 3EY     -0.398000
     24 O2          1.4800   -0.1130    3.0580 os        1 3EY     -0.201000
     25 C18         1.0430   -0.4360    1.7140 c3        1 3EY     -0.062000
     26 C19        -0.0670   -1.4760    1.7230 c3        1 3EY     -0.040000
     27 H1         -0.9040   -0.9150    3.3660 ho        1 3EY      0.222000
     28 H2          3.5670   -2.8050    8.7580 hn        1 3EY      0.195000
     29 H3          1.5690   -0.7920   12.0810 hn        1 3EY      0.284000
     30 H4         -0.0470   -3.5180    7.5860 hc        1 3EY      0.169500
     31 H5         -2.3800   -4.0530    8.0080 ha        1 3EY      0.161000
     32 H6         -0.9030   -3.0120    6.0760 hc        1 3EY      0.169500
     33 H7          0.1490   -6.9260    5.5120 h1        1 3EY      0.150000
     34 H8         -3.9510   -7.6570    5.6070 hc        1 3EY      0.126000
     35 H9          3.1340   -0.5770    3.9390 hn        1 3EY      0.245000
     36 H10        -4.8240   -8.6670    7.7530 hc        1 3EY      0.075667
     37 H11        -6.1530   -8.4000    6.5500 hc        1 3EY      0.075667
     38 H12        -5.9550   -7.2700    7.9580 hc        1 3EY      0.075667
     39 H13        -5.1020   -6.2800    5.7840 hc        1 3EY      0.126000
     40 H14         4.7200   -1.1080    7.8140 h1        1 3EY      0.145500
     41 H15         5.5600   -2.2770    6.7000 h1        1 3EY      0.145500
     42 H16         0.6560    0.5610    1.3680 h1        1 3EY      0.106000
     43 H17         1.9010   -0.7690    1.0800 h1        1 3EY      0.106000
     44 H18        -0.4410   -1.6430    0.6780 h1        1 3EY      0.093000
     45 H19         0.3060   -2.4420    2.1540 h1        1 3EY      0.093000
     46 N3          1.5410   -4.6000    5.6930 n2        1 3EY     -0.205000
@<TRIPOS>BOND
     1    1   26 1   
     2    1   27 1   
     3    2    7 1   
     4    2   20 1   
     5    2   22 1   
     6    3    5 1   
     7    3    6 1   
     8    3   20 1   
     9    4    8 1   
    10    5   21 1   
    11    5   28 1   
    12    7   16 1   
    13    7   23 1   
    14    8   29 1   
    15    9   10 1   
    16    9   14 1   
    17    9   46 1   
    18   10   11 1   
    19   10   30 1   
    20   10   32 1   
    21   11   12 1   
    22   11   31 1   
    23   12   13 1   
    24   12   15 1   
    25   13   14 1   
    26   14   17 1   
    27   14   33 1   
    28   15   19 1   
    29   16   24 1   
    30   16   35 1   
    31   18   19 1   
    32   18   36 1   
    33   18   37 1   
    34   18   38 1   
    35   19   34 1   
    36   19   39 1   
    37   20   46 1   
    38   21   22 1   
    39   21   40 1   
    40   21   41 1   
    41   24   25 1   
    42   25   26 1   
    43   25   42 1   
    44   25   43 1   
    45   26   44 1   
    46   26   45 1   
@<TRIPOS>SUBSTRUCTURE
     1 3EY         1 TEMP              0 ****  ****    0 ROOT
