@<TRIPOS>MOLECULE
3EZ
   74    79     1     0     0
SMALL
bcc


@<TRIPOS>ATOM
      1 NBA         0.1580    0.5680   -0.3820 nh        1 3EZ     -0.838200
      2 CAW         1.5000    0.0350   -0.4300 c3        1 3EZ      0.184800
      3 CAS         1.7730   -1.1210    0.5330 c3        1 3EZ     -0.130400
      4 CAU         1.1210   -0.8560    1.8890 c3        1 3EZ      0.108800
      5 NAY        -0.2180   -0.3320    1.8450 n2        1 3EZ     -0.633900
      6 CBG        -0.6280    0.2670    0.7590 ce        1 3EZ      0.630800
      7 CBM        -2.0370    0.7620    0.6870 ca        1 3EZ     -0.094900
      8 CAQ        -2.4850    1.6810    1.6350 ca        1 3EZ     -0.107000
      9 CAG        -2.8820    0.2910   -0.3200 ca        1 3EZ     -0.148000
     10 CAC        -4.1960    0.7510   -0.3760 ca        1 3EZ     -0.107000
     11 CAE        -4.6660    1.6730    0.5530 ca        1 3EZ     -0.176000
     12 CBI        -3.8150    2.1530    1.5770 ca        1 3EZ      0.064600
     13 NBC        -4.3400    3.0610    2.5120 n         1 3EZ     -0.471100
     14 CBE        -3.6200    3.8910    3.3630 c         1 3EZ      0.678700
     15 OAA        -2.3770    3.9170    3.3960 o         1 3EZ     -0.572100
     16 CBK        -4.4370    4.7810    4.2430 ca        1 3EZ     -0.142600
     17 CAJ        -4.0160    6.1040    4.4180 ca        1 3EZ     -0.091500
     18 CAN        -4.7370    6.9610    5.2450 ca        1 3EZ     -0.124000
     19 CAI        -5.5720    4.3160    4.9120 ca        1 3EZ     -0.091500
     20 CAM        -6.2900    5.1740    5.7420 ca        1 3EZ     -0.124000
     21 CBO        -5.8830    6.5040    5.9130 cp        1 3EZ     -0.022000
     22 CBP        -6.6400    7.4030    6.7830 cp        1 3EZ     -0.022000
     23 CAP        -5.9730    8.3060    7.6240 ca        1 3EZ     -0.124000
     24 CAL        -6.6940    9.1620    8.4510 ca        1 3EZ     -0.091500
     25 CAO        -8.0420    7.3770    6.7810 ca        1 3EZ     -0.124000
     26 CAK        -8.7650    8.2310    7.6110 ca        1 3EZ     -0.091500
     27 CBL        -8.0930    9.1210    8.4520 ca        1 3EZ     -0.142600
     28 CBF        -8.8260   10.0730    9.3410 c         1 3EZ      0.678700
     29 OAB        -8.4570   11.2550    9.4610 o         1 3EZ     -0.572100
     30 NBD        -9.9180    9.5450   10.0180 n         1 3EZ     -0.471100
     31 CBJ       -10.7550   10.2200   10.9230 ca        1 3EZ      0.064600
     32 CAR       -10.8350   11.6280   10.9840 ca        1 3EZ     -0.107000
     33 CAF       -11.5710    9.4510   11.7890 ca        1 3EZ     -0.176000
     34 CAD       -12.4340   10.0770   12.6790 ca        1 3EZ     -0.107000
     35 CAH       -12.5080   11.4660   12.7420 ca        1 3EZ     -0.148000
     36 CBN       -11.7050   12.2310   11.8920 ca        1 3EZ     -0.094900
     37 CBH       -11.7840   13.7230   11.9480 ce        1 3EZ      0.630800
     38 NAZ       -12.1120   14.3850   10.8700 n2        1 3EZ     -0.633900
     39 CAV       -12.2400   15.8150   10.9420 c3        1 3EZ      0.108800
     40 CAT       -12.4790   16.3890   12.3380 c3        1 3EZ     -0.130400
     41 CAX       -11.5680   15.7110   13.3610 c3        1 3EZ      0.184800
     42 NBB       -11.4210   14.2830   13.1990 nh        1 3EZ     -0.838200
     43 H1         -0.3420    0.5390   -1.2440 hn        1 3EZ      0.405800
     44 H2          1.7410   -0.2940   -1.4790 h1        1 3EZ      0.046200
     45 H3          2.1950    0.8870   -0.1730 h1        1 3EZ      0.046200
     46 H4          1.3750   -2.0750    0.1030 hc        1 3EZ      0.051200
     47 H5          2.8780   -1.2380    0.6580 hc        1 3EZ      0.051200
     48 H6          1.0710   -1.8180    2.4730 h1        1 3EZ      0.061200
     49 H7          1.7630   -0.1360    2.4750 h1        1 3EZ      0.061200
     50 H8         -1.7950    2.0310    2.4230 ha        1 3EZ      0.186000
     51 H9         -2.5250   -0.4450   -1.0540 ha        1 3EZ      0.131000
     52 H10        -4.8720    0.3830   -1.1630 ha        1 3EZ      0.133000
     53 H11        -5.7080    2.0200    0.4820 ha        1 3EZ      0.130000
     54 H12        -5.3270    3.1860    2.4830 hn        1 3EZ      0.318500
     55 H13        -3.1050    6.4550    3.9060 ha        1 3EZ      0.149500
     56 H14        -4.4070    8.0030    5.3730 ha        1 3EZ      0.142500
     57 H15        -5.8960    3.2690    4.8080 ha        1 3EZ      0.149500
     58 H16        -7.1780    4.8010    6.2750 ha        1 3EZ      0.142500
     59 H17        -4.8720    8.3350    7.6330 ha        1 3EZ      0.142500
     60 H18        -6.1720    9.8850    9.1000 ha        1 3EZ      0.149500
     61 H19        -8.5750    6.6850    6.1120 ha        1 3EZ      0.142500
     62 H20        -9.8660    8.2110    7.5790 ha        1 3EZ      0.149500
     63 H21       -10.0720    8.5650    9.9370 hn        1 3EZ      0.318500
     64 H22       -10.2170   12.2590   10.3220 ha        1 3EZ      0.186000
     65 H23       -11.5320    8.3510   11.7630 ha        1 3EZ      0.130000
     66 H24       -13.0660    9.4650   13.3410 ha        1 3EZ      0.133000
     67 H25       -13.2020   11.9500   13.4440 ha        1 3EZ      0.131000
     68 H26       -11.3070   16.2760   10.5070 h1        1 3EZ      0.061200
     69 H27       -13.1010   16.0940   10.2710 h1        1 3EZ      0.061200
     70 H28       -12.2740   17.4880   12.3370 hc        1 3EZ      0.051200
     71 H29       -13.5510   16.2410   12.6270 hc        1 3EZ      0.051200
     72 H30       -11.9440   15.9390   14.3980 h1        1 3EZ      0.046200
     73 H31       -10.5340   16.1550   13.2690 h1        1 3EZ      0.046200
     74 H32       -11.6890   13.7360   13.9870 hn        1 3EZ      0.405800
@<TRIPOS>BOND
     1    1    2 1   
     2    1    6 1   
     3    1   43 1   
     4    2    3 1   
     5    2   44 1   
     6    2   45 1   
     7    3    4 1   
     8    3   46 1   
     9    3   47 1   
    10    4    5 1   
    11    4   48 1   
    12    4   49 1   
    13    5    6 2   
    14    6    7 1   
    15    7    8 ar  
    16    7    9 ar  
    17    8   12 ar  
    18    8   50 1   
    19    9   10 ar  
    20    9   51 1   
    21   10   11 ar  
    22   10   52 1   
    23   11   12 ar  
    24   11   53 1   
    25   12   13 1   
    26   13   14 1   
    27   13   54 1   
    28   14   15 2   
    29   14   16 1   
    30   16   17 ar  
    31   16   19 ar  
    32   17   18 ar  
    33   17   55 1   
    34   18   21 ar  
    35   18   56 1   
    36   19   20 ar  
    37   19   57 1   
    38   20   21 ar  
    39   20   58 1   
    40   21   22 1   
    41   22   23 ar  
    42   22   25 ar  
    43   23   24 ar  
    44   23   59 1   
    45   24   27 ar  
    46   24   60 1   
    47   25   26 ar  
    48   25   61 1   
    49   26   27 ar  
    50   26   62 1   
    51   27   28 1   
    52   28   29 2   
    53   28   30 1   
    54   30   31 1   
    55   30   63 1   
    56   31   32 ar  
    57   31   33 ar  
    58   32   36 ar  
    59   32   64 1   
    60   33   34 ar  
    61   33   65 1   
    62   34   35 ar  
    63   34   66 1   
    64   35   36 ar  
    65   35   67 1   
    66   36   37 1   
    67   37   38 2   
    68   37   42 1   
    69   38   39 1   
    70   39   40 1   
    71   39   68 1   
    72   39   69 1   
    73   40   41 1   
    74   40   70 1   
    75   40   71 1   
    76   41   42 1   
    77   41   72 1   
    78   41   73 1   
    79   42   74 1   
@<TRIPOS>SUBSTRUCTURE
     1 3EZ         1 TEMP              0 ****  ****    0 ROOT
