@<TRIPOS>MOLECULE
3EZ
   74    79     1     0     0
SMALL
bcc


@<TRIPOS>ATOM
      1 NBA         0.1620    0.5720   -0.3800 nu        1 3EZ     -0.838200
      2 CAW         1.5050    0.0410   -0.4270 c3        1 3EZ      0.184800
      3 CAS         1.7780   -1.1160    0.5340 c3        1 3EZ     -0.130400
      4 CAU         1.1250   -0.8540    1.8900 c3        1 3EZ      0.108800
      5 NAY        -0.2140   -0.3320    1.8450 n2        1 3EZ     -0.633900
      6 CBG        -0.6240    0.2690    0.7600 ce        1 3EZ      0.630800
      7 CBM        -2.0330    0.7630    0.6880 ca        1 3EZ     -0.094900
      8 CAQ        -2.4830    1.6810    1.6360 ca        1 3EZ     -0.107000
      9 CAG        -2.8780    0.2930   -0.3210 ca        1 3EZ     -0.148000
     10 CAC        -4.1920    0.7520   -0.3780 ca        1 3EZ     -0.106000
     11 CAE        -4.6630    1.6730    0.5510 ca        1 3EZ     -0.176000
     12 CBI        -3.8130    2.1530    1.5770 ca        1 3EZ      0.064600
     13 NBC        -4.3390    3.0590    2.5120 ns        1 3EZ     -0.471100
     14 CBE        -3.6210    3.8890    3.3650 c         1 3EZ      0.678700
     15 OAA        -2.3780    3.9140    3.4010 o         1 3EZ     -0.572100
     16 CBK        -4.4380    4.7780    4.2450 ca        1 3EZ     -0.142600
     17 CAJ        -4.0160    6.1000    4.4230 ca        1 3EZ     -0.091500
     18 CAN        -4.7370    6.9570    5.2500 ca        1 3EZ     -0.124000
     19 CAI        -5.5760    4.3140    4.9100 ca        1 3EZ     -0.091500
     20 CAM        -6.2950    5.1720    5.7390 ca        1 3EZ     -0.124000
     21 CBO        -5.8850    6.5010    5.9140 cp        1 3EZ     -0.022000
     22 CBP        -6.6430    7.4000    6.7830 cp        1 3EZ     -0.022000
     23 CAP        -5.9760    8.3000    7.6280 ca        1 3EZ     -0.124000
     24 CAL        -6.6980    9.1570    8.4540 ca        1 3EZ     -0.091500
     25 CAO        -8.0450    7.3770    6.7780 ca        1 3EZ     -0.124000
     26 CAK        -8.7690    8.2310    7.6070 ca        1 3EZ     -0.091500
     27 CBL        -8.0970    9.1190    8.4520 ca        1 3EZ     -0.142600
     28 CBF        -8.8300   10.0710    9.3400 c         1 3EZ      0.678700
     29 OAB        -8.4590   11.2510    9.4640 o         1 3EZ     -0.572100
     30 NBD        -9.9270    9.5450   10.0120 ns        1 3EZ     -0.471100
     31 CBJ       -10.7640   10.2200   10.9160 ca        1 3EZ      0.064600
     32 CAR       -10.8390   11.6280   10.9820 ca        1 3EZ     -0.107000
     33 CAF       -11.5850    9.4510   11.7760 ca        1 3EZ     -0.176000
     34 CAD       -12.4500   10.0780   12.6660 ca        1 3EZ     -0.106000
     35 CAH       -12.5180   11.4680   12.7330 ca        1 3EZ     -0.148000
     36 CBN       -11.7100   12.2320   11.8880 ca        1 3EZ     -0.094900
     37 CBH       -11.7830   13.7240   11.9490 ce        1 3EZ      0.630800
     38 NAZ       -12.1040   14.3900   10.8720 n2        1 3EZ     -0.633900
     39 CAV       -12.2270   15.8210   10.9470 c3        1 3EZ      0.108800
     40 CAT       -12.4680   16.3910   12.3440 c3        1 3EZ     -0.130400
     41 CAX       -11.5620   15.7070   13.3680 c3        1 3EZ      0.184800
     42 NBB       -11.4210   14.2780   13.2020 nu        1 3EZ     -0.838200
     43 H1         -0.3370    0.5450   -1.2420 hn        1 3EZ      0.405800
     44 H2          2.1990    0.8930   -0.1680 h1        1 3EZ      0.046200
     45 H3          1.7480   -0.2870   -1.4770 h1        1 3EZ      0.046200
     46 H4          2.8830   -1.2330    0.6610 hc        1 3EZ      0.051200
     47 H5          1.3810   -2.0700    0.1020 hc        1 3EZ      0.051200
     48 H6          1.0740   -1.8170    2.4720 h1        1 3EZ      0.061200
     49 H7          1.7650   -0.1350    2.4780 h1        1 3EZ      0.061200
     50 H8         -1.7940    2.0300    2.4250 ha        1 3EZ      0.186000
     51 H9         -2.5200   -0.4430   -1.0550 ha        1 3EZ      0.131000
     52 H10        -4.8660    0.3850   -1.1650 ha        1 3EZ      0.133000
     53 H11        -5.7050    2.0200    0.4800 ha        1 3EZ      0.130000
     54 H12        -5.3270    3.1850    2.4820 hn        1 3EZ      0.318500
     55 H13        -3.1030    6.4510    3.9130 ha        1 3EZ      0.149500
     56 H14        -4.4060    7.9990    5.3790 ha        1 3EZ      0.142500
     57 H15        -5.9010    3.2670    4.8040 ha        1 3EZ      0.149500
     58 H16        -7.1850    4.8000    6.2700 ha        1 3EZ      0.142500
     59 H17        -4.8760    8.3270    7.6400 ha        1 3EZ      0.142500
     60 H18        -6.1770    9.8760    9.1060 ha        1 3EZ      0.149500
     61 H19        -8.5780    6.6870    6.1060 ha        1 3EZ      0.142500
     62 H20        -9.8690    8.2130    7.5720 ha        1 3EZ      0.149500
     63 H21       -10.0830    8.5650    9.9290 hn        1 3EZ      0.318500
     64 H22       -10.2160   12.2590   10.3230 ha        1 3EZ      0.186000
     65 H23       -11.5510    8.3520   11.7480 ha        1 3EZ      0.130000
     66 H24       -13.0860    9.4670   13.3240 ha        1 3EZ      0.133000
     67 H25       -13.2130   11.9520   13.4340 ha        1 3EZ      0.131000
     68 H26       -13.0850   16.1060   10.2750 h1        1 3EZ      0.061200
     69 H27       -11.2910   16.2800   10.5160 h1        1 3EZ      0.061200
     70 H28       -12.2590   17.4900   12.3480 hc        1 3EZ      0.051200
     71 H29       -13.5420   16.2470   12.6300 hc        1 3EZ      0.051200
     72 H30       -10.5260   16.1470   13.2810 h1        1 3EZ      0.046200
     73 H31       -11.9410   15.9330   14.4050 h1        1 3EZ      0.046200
     74 H32       -11.6940   13.7300   13.9880 hn        1 3EZ      0.405800
@<TRIPOS>BOND
     1    1    2 1   
     2    1    6 1   
     3    1   43 1   
     4    2    3 1   
     5    2   44 1   
     6    2   45 1   
     7    3    4 1   
     8    3   46 1   
     9    3   47 1   
    10    4    5 1   
    11    4   48 1   
    12    4   49 1   
    13    5    6 2   
    14    6    7 1   
    15    7    8 ar  
    16    7    9 ar  
    17    8   12 ar  
    18    8   50 1   
    19    9   10 ar  
    20    9   51 1   
    21   10   11 ar  
    22   10   52 1   
    23   11   12 ar  
    24   11   53 1   
    25   12   13 1   
    26   13   14 1   
    27   13   54 1   
    28   14   15 2   
    29   14   16 1   
    30   16   17 ar  
    31   16   19 ar  
    32   17   18 ar  
    33   17   55 1   
    34   18   21 ar  
    35   18   56 1   
    36   19   20 ar  
    37   19   57 1   
    38   20   21 ar  
    39   20   58 1   
    40   21   22 1   
    41   22   23 ar  
    42   22   25 ar  
    43   23   24 ar  
    44   23   59 1   
    45   24   27 ar  
    46   24   60 1   
    47   25   26 ar  
    48   25   61 1   
    49   26   27 ar  
    50   26   62 1   
    51   27   28 1   
    52   28   29 2   
    53   28   30 1   
    54   30   31 1   
    55   30   63 1   
    56   31   32 ar  
    57   31   33 ar  
    58   32   36 ar  
    59   32   64 1   
    60   33   34 ar  
    61   33   65 1   
    62   34   35 ar  
    63   34   66 1   
    64   35   36 ar  
    65   35   67 1   
    66   36   37 1   
    67   37   38 2   
    68   37   42 1   
    69   38   39 1   
    70   39   40 1   
    71   39   68 1   
    72   39   69 1   
    73   40   41 1   
    74   40   70 1   
    75   40   71 1   
    76   41   42 1   
    77   41   72 1   
    78   41   73 1   
    79   42   74 1   
@<TRIPOS>SUBSTRUCTURE
     1 3EZ         1 TEMP              0 ****  ****    0 ROOT
