@<TRIPOS>MOLECULE
3F0
   16    16     1     0     0
SMALL
bcc


@<TRIPOS>ATOM
      1 OAB         0.0230    0.3560    0.1280 o         1 3F0     -0.833300
      2 CAH         1.2320   -0.0220    0.0730 c         1 3F0      0.916200
      3 OAC         1.9070   -0.3420    1.0890 o         1 3F0     -0.833300
      4 CAK         1.9310   -0.0580   -1.2800 ca        1 3F0     -0.162600
      5 CAG         3.3100    0.1330   -1.2990 ca        1 3F0     -0.088000
      6 CAE         4.0240    0.1920   -2.4960 ca        1 3F0     -0.184000
      7 CAF         3.3550    0.0650   -3.7060 ca        1 3F0     -0.152000
      8 CAJ         1.9680   -0.1480   -3.7170 ca        1 3F0      0.011900
      9 FAD         1.3320   -0.2520   -4.9180 f         1 3F0     -0.176900
     10 CAI         1.2270   -0.2420   -2.4990 ca        1 3F0      0.140600
     11 NAA        -0.1260   -0.5910   -2.5260 nv        1 3F0     -0.814200
     12 H2          3.8270    0.2370   -0.3310 ha        1 3F0      0.151000
     13 H3          5.1110    0.3450   -2.4850 ha        1 3F0      0.109000
     14 H4          3.8940    0.1260   -4.6610 ha        1 3F0      0.115000
     15 H5         -0.5900   -0.4330   -1.6470 hn        1 3F0      0.400800
     16 H6         -0.6130   -0.1930   -3.3010 hn        1 3F0      0.400800
@<TRIPOS>BOND
     1    1    2 1   
     2    2    3 1   
     3    2    4 1   
     4    4    5 ar  
     5    4   10 ar  
     6    5    6 ar  
     7    5   12 1   
     8    6    7 ar  
     9    6   13 1   
    10    7    8 ar  
    11    7   14 1   
    12    8    9 1   
    13    8   10 ar  
    14   10   11 1   
    15   11   15 1   
    16   11   16 1   
@<TRIPOS>SUBSTRUCTURE
     1 3F0         1 TEMP              0 ****  ****    0 ROOT
