@<TRIPOS>MOLECULE
3F0
   17    17     1     0     0
SMALL
bcc


@<TRIPOS>ATOM
      1 OAB         0.0360    0.2930    0.1120 oh        1 3F0     -0.585100
      2 CAH         1.1500   -0.4490   -0.1720 c         1 3F0      0.640700
      3 OAC         1.4120   -1.2870    0.6910 o         1 3F0     -0.481000
      4 CAK         1.8970   -0.1920   -1.4180 ca        1 3F0     -0.226600
      5 CAG         3.2740    0.0330   -1.3280 ca        1 3F0     -0.051000
      6 CAE         4.0290    0.2780   -2.4680 ca        1 3F0     -0.159000
      7 CAF         3.4190    0.2800   -3.7210 ca        1 3F0     -0.097000
      8 CAJ         2.0460    0.0330   -3.8350 ca        1 3F0      0.047900
      9 FAD         1.4700    0.0160   -5.0650 f         1 3F0     -0.141900
     10 CAI         1.2420   -0.2050   -2.6740 ca        1 3F0      0.156600
     11 NAA        -0.1340   -0.3690   -2.7760 nh        1 3F0     -0.833200
     12 H2          3.7540    0.0090   -0.3360 ha        1 3F0      0.155000
     13 H3          5.1100    0.4640   -2.3860 ha        1 3F0      0.148000
     14 H4          4.0070    0.4670   -4.6330 ha        1 3F0      0.154000
     15 H5         -0.4680   -0.5840   -3.6900 hn        1 3F0      0.415800
     16 H6         -0.0580    1.0150   -0.5260 ho        1 3F0      0.439000
     17 HAA3       -0.5620   -0.8910   -2.0430 hn        1 3F0      0.415800
@<TRIPOS>BOND
     1    1    2 1   
     2    1   16 1   
     3    2    3 2   
     4    2    4 1   
     5    4    5 ar  
     6    4   10 ar  
     7    5    6 ar  
     8    5   12 1   
     9    6    7 ar  
    10    6   13 1   
    11    7    8 ar  
    12    7   14 1   
    13    8    9 1   
    14    8   10 ar  
    15   10   11 1   
    16   11   15 1   
    17   11   17 1   
@<TRIPOS>SUBSTRUCTURE
     1 3F0         1 TEMP              0 ****  ****    0 ROOT
