@<TRIPOS>MOLECULE
3F0
   16    16     1     0     0
SMALL
bcc


@<TRIPOS>ATOM
      1 OAB         0.0200    0.3640    0.1260 o         1 3F0     -0.833300
      2 CAH         1.2260   -0.0210    0.0730 c         1 3F0      0.916200
      3 OAC         1.8980   -0.3460    1.0910 o         1 3F0     -0.833300
      4 CAK         1.9290   -0.0580   -1.2780 ca        1 3F0     -0.162600
      5 CAG         3.3090    0.1260   -1.2940 ca        1 3F0     -0.088000
      6 CAE         4.0260    0.1830   -2.4890 ca        1 3F0     -0.184000
      7 CAF         3.3600    0.0620   -3.7000 ca        1 3F0     -0.152000
      8 CAJ         1.9710   -0.1420   -3.7150 ca        1 3F0      0.011900
      9 FAD         1.3370   -0.2400   -4.9170 f         1 3F0     -0.176900
     10 CAI         1.2260   -0.2340   -2.4990 ca        1 3F0      0.140600
     11 NAA        -0.1290   -0.5750   -2.5300 nh        1 3F0     -0.814200
     12 H2          3.8240    0.2250   -0.3230 ha        1 3F0      0.151000
     13 H3          5.1140    0.3290   -2.4740 ha        1 3F0      0.109000
     14 H4          3.9010    0.1220   -4.6540 ha        1 3F0      0.115000
     15 H5         -0.6110   -0.1730   -3.3050 hn        1 3F0      0.400800
     16 H6         -0.5940   -0.4170   -1.6520 hn        1 3F0      0.400800
@<TRIPOS>BOND
     1    1    2 1   
     2    2    3 1   
     3    2    4 1   
     4    4    5 ar  
     5    4   10 ar  
     6    5    6 ar  
     7    5   12 1   
     8    6    7 ar  
     9    6   13 1   
    10    7    8 ar  
    11    7   14 1   
    12    8    9 1   
    13    8   10 ar  
    14   10   11 1   
    15   11   15 1   
    16   11   16 1   
@<TRIPOS>SUBSTRUCTURE
     1 3F0         1 TEMP              0 ****  ****    0 ROOT
