@<TRIPOS>MOLECULE
3F1
   48    50     1     0     0
SMALL
bcc


@<TRIPOS>ATOM
      1 C1          6.4120    3.9190    1.5250 c3        1 3F1     -0.063800
      2 C2          5.6360    2.8820    0.8070 ca        1 3F1     -0.026300
      3 C3          6.1890    1.6160    0.5750 ca        1 3F1     -0.162000
      4 C4          5.4610    0.6500   -0.1140 ca        1 3F1     -0.023000
      5 O5          2.4100    0.4180   -2.3300 o         1 3F1     -0.698300
      6 C6          1.5830   -3.3620    0.1460 c3        1 3F1     -0.161800
      7 C7          4.3470    3.1610    0.3350 ca        1 3F1     -0.162000
      8 C8          3.6280    2.1880   -0.3530 ca        1 3F1     -0.023000
      9 C9          4.1710    0.9200   -0.5810 ca        1 3F1     -0.342500
     10 S10         3.2920   -0.2670   -1.4510 sy        1 3F1      1.698700
     11 N11         2.5130   -0.9950   -0.3750 ne        1 3F1     -0.915200
     12 S12         1.6860   -1.6730    0.5820 sx        1 3F1      0.534800
     13 C13         0.0430   -1.2340    0.3550 ca        1 3F1     -0.213500
     14 C14        -0.8530   -1.6720    1.3430 ca        1 3F1     -0.022000
     15 C15        -2.1910   -1.3190    1.3110 ca        1 3F1     -0.199000
     16 O16         4.2370   -1.1030   -2.0910 o         1 3F1     -0.698300
     17 C17        -0.4390   -0.4310   -0.6800 ca        1 3F1     -0.022000
     18 C18        -1.7820   -0.0590   -0.7380 ca        1 3F1     -0.199000
     19 C19        -2.6600   -0.5040    0.2580 ca        1 3F1      0.173100
     20 O20        -4.0010   -0.2070    0.3180 os        1 3F1     -0.322900
     21 C21        -4.5180    0.5800   -0.7700 c3        1 3F1      0.173700
     22 C22        -5.9800    0.7650   -0.5370 ca        1 3F1     -0.098300
     23 C23        -6.4980    0.8870    0.7550 ca        1 3F1     -0.110500
     24 C24        -7.8650    1.0940    0.9430 ca        1 3F1     -0.131000
     25 C25        -6.8380    0.8490   -1.6410 ca        1 3F1     -0.110500
     26 C26        -8.2010    1.0630   -1.4490 ca        1 3F1     -0.131000
     27 C27        -8.7160    1.1860   -0.1580 ca        1 3F1     -0.122000
     28 H1          7.0090    4.5180    0.7910 hc        1 3F1      0.048367
     29 H1A         5.7350    4.6160    2.0770 hc        1 3F1      0.048367
     30 H1B         7.1190    3.4560    2.2560 hc        1 3F1      0.048367
     31 H3          7.2030    1.3890    0.9330 ha        1 3F1      0.134000
     32 H4          5.9100   -0.3380   -0.3170 ha        1 3F1      0.149000
     33 H6          2.5830   -3.8420    0.2680 h1        1 3F1      0.090700
     34 H6A         0.8660   -3.8620    0.8370 h1        1 3F1      0.090700
     35 H6B         1.2460   -3.5740   -0.8940 h1        1 3F1      0.090700
     36 H7          3.9060    4.1540    0.5030 ha        1 3F1      0.134000
     37 H8          2.6230    2.4210   -0.7450 ha        1 3F1      0.149000
     38 H14        -0.4880   -2.3100    2.1650 ha        1 3F1      0.152500
     39 H15        -2.8950   -1.6610    2.0830 ha        1 3F1      0.152000
     40 H17         0.2400   -0.0680   -1.4780 ha        1 3F1      0.152500
     41 H18        -2.1290    0.5760   -1.5650 ha        1 3F1      0.152000
     42 H21        -3.9970    1.5770   -0.7790 h1        1 3F1      0.053700
     43 H21A       -4.3250    0.0430   -1.7370 h1        1 3F1      0.053700
     44 H23        -5.8230    0.8080    1.6210 ha        1 3F1      0.139000
     45 H24        -8.2690    1.1860    1.9620 ha        1 3F1      0.134000
     46 H25        -6.4360    0.7470   -2.6600 ha        1 3F1      0.139000
     47 H26        -8.8720    1.1330   -2.3180 ha        1 3F1      0.134000
     48 H27        -9.7930    1.3520   -0.0090 ha        1 3F1      0.133000
@<TRIPOS>BOND
     1    1    2 1   
     2    1   28 1   
     3    1   29 1   
     4    1   30 1   
     5    2    3 ar  
     6    2    7 ar  
     7    3    4 ar  
     8    3   31 1   
     9    4    9 ar  
    10    4   32 1   
    11    5   10 2   
    12    6   12 1   
    13    6   33 1   
    14    6   34 1   
    15    6   35 1   
    16    7    8 ar  
    17    7   36 1   
    18    8    9 ar  
    19    8   37 1   
    20    9   10 1   
    21   10   11 1   
    22   10   16 2   
    23   11   12 2   
    24   12   13 1   
    25   13   14 ar  
    26   13   17 ar  
    27   14   15 ar  
    28   14   38 1   
    29   15   19 ar  
    30   15   39 1   
    31   17   18 ar  
    32   17   40 1   
    33   18   19 ar  
    34   18   41 1   
    35   19   20 1   
    36   20   21 1   
    37   21   22 1   
    38   21   42 1   
    39   21   43 1   
    40   22   23 ar  
    41   22   25 ar  
    42   23   24 ar  
    43   23   44 1   
    44   24   27 ar  
    45   24   45 1   
    46   25   26 ar  
    47   25   46 1   
    48   26   27 ar  
    49   26   47 1   
    50   27   48 1   
@<TRIPOS>SUBSTRUCTURE
     1 3F1         1 TEMP              0 ****  ****    0 ROOT
