@<TRIPOS>MOLECULE
3F1
   48    50     1     0     0
SMALL
bcc


@<TRIPOS>ATOM
      1 C1          0.1490   -0.3660    1.1350 c3        1 3F1     -0.062800
      2 C2          1.5230   -0.1210    0.6410 ca        1 3F1     -0.026300
      3 C3          2.4750    0.4910    1.4670 ca        1 3F1     -0.162000
      4 C4          3.7690    0.7060    1.0030 ca        1 3F1     -0.023500
      5 O5          5.6540    0.7600   -2.2700 o         1 3F1     -0.698300
      6 C6          8.8670   -1.4250    0.1790 c3        1 3F1     -0.161800
      7 C7          1.8890   -0.5020   -0.6550 ca        1 3F1     -0.162000
      8 C8          3.1870   -0.2820   -1.1090 ca        1 3F1     -0.023500
      9 C9          4.1440    0.3170   -0.2870 ca        1 3F1     -0.342500
     10 S10         5.7330    0.6120   -0.8590 sy        1 3F1      1.697700
     11 N11         6.4820   -0.6550   -0.4990 ne        1 3F1     -0.915200
     12 S12         7.2310   -1.8550   -0.2590 sx        1 3F1      0.534800
     13 C13         7.5490   -2.6550   -1.7420 ca        1 3F1     -0.213500
     14 C14         8.1050   -3.9410   -1.6420 ca        1 3F1     -0.022000
     15 C15         8.3380   -4.7160   -2.7640 ca        1 3F1     -0.199000
     16 O16         6.2240    1.7440   -0.1690 o         1 3F1     -0.698300
     17 C17         7.2340   -2.1580   -3.0090 ca        1 3F1     -0.022000
     18 C18         7.4570   -2.9170   -4.1570 ca        1 3F1     -0.199000
     19 C19         8.0100   -4.1970   -4.0360 ca        1 3F1      0.173100
     20 O20         8.2760   -5.0450   -5.0850 os        1 3F1     -0.322900
     21 C21         8.0000   -4.5230   -6.3980 c3        1 3F1      0.173700
     22 C22         8.3800   -5.5720   -7.3890 ca        1 3F1     -0.098300
     23 C23         8.2230   -6.9310   -7.1010 ca        1 3F1     -0.110500
     24 C24         8.5530   -7.8890   -8.0590 ca        1 3F1     -0.131000
     25 C25         8.8730   -5.1780   -8.6380 ca        1 3F1     -0.110500
     26 C26         9.1960   -6.1390   -9.5940 ca        1 3F1     -0.131000
     27 C27         9.0370   -7.4950   -9.3060 ca        1 3F1     -0.122000
     28 H1          0.0950   -1.3730    1.6210 hc        1 3F1      0.048367
     29 H1A        -0.1490    0.4030    1.8900 hc        1 3F1      0.048367
     30 H1B        -0.5890   -0.3440    0.2960 hc        1 3F1      0.048367
     31 H3          2.1950    0.8080    2.4820 ha        1 3F1      0.134000
     32 H4          4.5090    1.2110    1.6490 ha        1 3F1      0.149000
     33 H6          9.4000   -0.7580   -0.5360 h1        1 3F1      0.090700
     34 H6A         8.8670   -0.9070    1.1670 h1        1 3F1      0.090700
     35 H6B         9.4660   -2.3610    0.2720 h1        1 3F1      0.090700
     36 H7          1.1470   -0.9710   -1.3180 ha        1 3F1      0.134000
     37 H8          3.4630   -0.5630   -2.1410 ha        1 3F1      0.149000
     38 H14         8.3630   -4.3460   -0.6490 ha        1 3F1      0.152500
     39 H15         8.7730   -5.7230   -2.6880 ha        1 3F1      0.152000
     40 H17         6.7950   -1.1470   -3.1250 ha        1 3F1      0.152500
     41 H18         7.1960   -2.4970   -5.1390 ha        1 3F1      0.152000
     42 H21         6.9020   -4.2950   -6.4760 h1        1 3F1      0.053700
     43 H21A        8.5950   -3.5830   -6.5530 h1        1 3F1      0.053700
     44 H23         7.8460   -7.2370   -6.1130 ha        1 3F1      0.139000
     45 H24         8.4300   -8.9580   -7.8280 ha        1 3F1      0.134000
     46 H25         9.0070   -4.1100   -8.8660 ha        1 3F1      0.139000
     47 H26         9.5790   -5.8270  -10.5770 ha        1 3F1      0.134000
     48 H27         9.2940   -8.2520  -10.0620 ha        1 3F1      0.133000
@<TRIPOS>BOND
     1    1    2 1   
     2    1   28 1   
     3    1   29 1   
     4    1   30 1   
     5    2    3 ar  
     6    2    7 ar  
     7    3    4 ar  
     8    3   31 1   
     9    4    9 ar  
    10    4   32 1   
    11    5   10 2   
    12    6   12 1   
    13    6   33 1   
    14    6   34 1   
    15    6   35 1   
    16    7    8 ar  
    17    7   36 1   
    18    8    9 ar  
    19    8   37 1   
    20    9   10 1   
    21   10   11 1   
    22   10   16 2   
    23   11   12 2   
    24   12   13 1   
    25   13   14 ar  
    26   13   17 ar  
    27   14   15 ar  
    28   14   38 1   
    29   15   19 ar  
    30   15   39 1   
    31   17   18 ar  
    32   17   40 1   
    33   18   19 ar  
    34   18   41 1   
    35   19   20 1   
    36   20   21 1   
    37   21   22 1   
    38   21   42 1   
    39   21   43 1   
    40   22   23 ar  
    41   22   25 ar  
    42   23   24 ar  
    43   23   44 1   
    44   24   27 ar  
    45   24   45 1   
    46   25   26 ar  
    47   25   46 1   
    48   26   27 ar  
    49   26   47 1   
    50   27   48 1   
@<TRIPOS>SUBSTRUCTURE
     1 3F1         1 TEMP              0 ****  ****    0 ROOT
