@<TRIPOS>MOLECULE
3F1
   48    50     1     0     0
SMALL
bcc


@<TRIPOS>ATOM
      1 C1          0.1410   -0.3740    1.1070 c3        1 3F1     -0.062800
      2 C2          1.5200   -0.1300    0.6280 ca        1 3F1     -0.026300
      3 C3          2.4680    0.4670    1.4690 ca        1 3F1     -0.162000
      4 C4          3.7670    0.6810    1.0190 ca        1 3F1     -0.023500
      5 O5          5.6800    0.7640   -2.2370 o         1 3F1     -0.698300
      6 C6          8.8640   -1.4650    0.2060 c3        1 3F1     -0.161800
      7 C7          1.8960   -0.4980   -0.6700 ca        1 3F1     -0.162000
      8 C8          3.1980   -0.2790   -1.1100 ca        1 3F1     -0.023500
      9 C9          4.1520    0.3060   -0.2720 ca        1 3F1     -0.342500
     10 S10         5.7460    0.5990   -0.8280 sy        1 3F1      1.697700
     11 N11         6.4870   -0.6750   -0.4750 ne        1 3F1     -0.915200
     12 S12         7.2280   -1.8810   -0.2430 sx        1 3F1      0.534800
     13 C13         7.5470   -2.6710   -1.7310 ca        1 3F1     -0.213500
     14 C14         8.0920   -3.9620   -1.6390 ca        1 3F1     -0.022000
     15 C15         8.3250   -4.7290   -2.7680 ca        1 3F1     -0.199000
     16 O16         6.2370    1.7220   -0.1210 o         1 3F1     -0.698300
     17 C17         7.2430   -2.1590   -2.9950 ca        1 3F1     -0.022000
     18 C18         7.4670   -2.9090   -4.1490 ca        1 3F1     -0.199000
     19 C19         8.0090   -4.1950   -4.0360 ca        1 3F1      0.173100
     20 O20         8.2730   -5.0360   -5.0920 os        1 3F1     -0.322900
     21 C21         8.0070   -4.5010   -6.4010 c3        1 3F1      0.173700
     22 C22         8.3830   -5.5440   -7.3990 ca        1 3F1     -0.098300
     23 C23         8.2110   -6.9040   -7.1240 ca        1 3F1     -0.110500
     24 C24         8.5370   -7.8580   -8.0880 ca        1 3F1     -0.131000
     25 C25         8.8840   -5.1450   -8.6430 ca        1 3F1     -0.110500
     26 C26         9.2020   -6.1010   -9.6060 ca        1 3F1     -0.131000
     27 C27         9.0290   -7.4570   -9.3300 ca        1 3F1     -0.122000
     28 H1         -0.5910   -0.3230    0.2640 hc        1 3F1      0.048367
     29 H1A        -0.1550    0.3770    1.8800 hc        1 3F1      0.048367
     30 H1B         0.0740   -1.3930    1.5660 hc        1 3F1      0.048367
     31 H3          2.1810    0.7730    2.4860 ha        1 3F1      0.134000
     32 H4          4.5040    1.1750    1.6770 ha        1 3F1      0.149000
     33 H6          8.8630   -0.9560    1.1990 h1        1 3F1      0.090700
     34 H6A         9.4570   -2.4050    0.2930 h1        1 3F1      0.090700
     35 H6B         9.4040   -0.7950   -0.5010 h1        1 3F1      0.090700
     36 H7          1.1560   -0.9540   -1.3440 ha        1 3F1      0.134000
     37 H8          3.4820   -0.5490   -2.1420 ha        1 3F1      0.149000
     38 H14         8.3410   -4.3780   -0.6490 ha        1 3F1      0.152500
     39 H15         8.7520   -5.7390   -2.6980 ha        1 3F1      0.152000
     40 H17         6.8130   -1.1440   -3.1040 ha        1 3F1      0.152500
     41 H18         7.2140   -2.4790   -5.1280 ha        1 3F1      0.152000
     42 H21         8.6110   -3.5650   -6.5450 h1        1 3F1      0.053700
     43 H21A        6.9120   -4.2620   -6.4820 h1        1 3F1      0.053700
     44 H23         7.8270   -7.2150   -6.1400 ha        1 3F1      0.139000
     45 H24         8.4030   -8.9270   -7.8670 ha        1 3F1      0.134000
     46 H25         9.0280   -4.0760   -8.8610 ha        1 3F1      0.139000
     47 H26         9.5920   -5.7830  -10.5840 ha        1 3F1      0.134000
     48 H27         9.2830   -8.2100  -10.0910 ha        1 3F1      0.133000
@<TRIPOS>BOND
     1    1    2 1   
     2    1   28 1   
     3    1   29 1   
     4    1   30 1   
     5    2    3 ar  
     6    2    7 ar  
     7    3    4 ar  
     8    3   31 1   
     9    4    9 ar  
    10    4   32 1   
    11    5   10 2   
    12    6   12 1   
    13    6   33 1   
    14    6   34 1   
    15    6   35 1   
    16    7    8 ar  
    17    7   36 1   
    18    8    9 ar  
    19    8   37 1   
    20    9   10 1   
    21   10   11 1   
    22   10   16 2   
    23   11   12 2   
    24   12   13 1   
    25   13   14 ar  
    26   13   17 ar  
    27   14   15 ar  
    28   14   38 1   
    29   15   19 ar  
    30   15   39 1   
    31   17   18 ar  
    32   17   40 1   
    33   18   19 ar  
    34   18   41 1   
    35   19   20 1   
    36   20   21 1   
    37   21   22 1   
    38   21   42 1   
    39   21   43 1   
    40   22   23 ar  
    41   22   25 ar  
    42   23   24 ar  
    43   23   44 1   
    44   24   27 ar  
    45   24   45 1   
    46   25   26 ar  
    47   25   46 1   
    48   26   27 ar  
    49   26   47 1   
    50   27   48 1   
@<TRIPOS>SUBSTRUCTURE
     1 3F1         1 TEMP              0 ****  ****    0 ROOT
