@<TRIPOS>MOLECULE
3F1
   48    43     1     0     0
SMALL
bcc


@<TRIPOS>ATOM
      1 C1         -0.2970    3.1160    8.0890 c3        1 3F1     -0.188000
      2 C2         -0.5170    3.2470    6.5680 c2        1 3F1     -0.020000
      3 C3         -1.7490    2.8870    6.0040 c2        1 3F1     -0.162000
      4 C4         -1.9430    2.9950    4.6230 c1        1 3F1     -0.023000
      5 O5         -2.5460    4.0310    1.8110 o         1 3F1     -0.585400
      6 C6         -1.5050    3.7450   -1.1420 c3        1 3F1     -0.706000
      7 C7          0.5160    3.7130    5.7520 c1        1 3F1     -0.163000
      8 C8          0.3210    3.8210    4.3730 c1        1 3F1     -0.023000
      9 C9         -0.9100    3.4610    3.8080 c1        1 3F1     -0.786000
     10 S10        -1.1910    3.7080    2.0740 s4        1 3F1      2.188800
     11 N11        -0.7220    2.3880    1.2340 n1        1 3F1     -1.563000
     12 S12        -0.8520    2.3640   -0.2990 s4        1 3F1      1.765000
     13 C13        -0.3430    0.9180   -1.2170 c2        1 3F1     -0.639000
     14 C14         0.9890    0.7720   -1.6160 c2        1 3F1     -0.031000
     15 C15         1.3630   -0.3150   -2.4070 c1        1 3F1     -0.216000
     16 O16        -0.5420    4.8640    1.6130 o         1 3F1     -0.585400
     17 C17        -1.2900   -0.0180   -1.6060 c1        1 3F1     -0.019000
     18 C18        -0.9160   -1.1020   -2.3940 c1        1 3F1     -0.172000
     19 C19         0.4140   -1.2500   -2.7950 c1        1 3F1      0.123000
     20 O20         0.7800   -2.3150   -3.6410 os        1 3F1     -0.204000
     21 C21         1.1460   -3.5250   -2.9380 c3        1 3F1      0.015000
     22 C22         1.2980   -4.6860   -3.9520 c2        1 3F1     -0.125000
     23 C23         0.3050   -5.6390   -4.0640 c2        1 3F1     -0.103000
     24 C24         0.4220   -6.6550   -4.9980 c1        1 3F1     -0.129000
     25 C25         2.4040   -4.7460   -4.7680 c1        1 3F1     -0.124000
     26 C26         2.5200   -5.7550   -5.6950 c1        1 3F1     -0.125500
     27 C27         1.5190   -6.7150   -5.8070 c1        1 3F1     -0.125500
     28 H1         -0.0390    2.2110    8.2980 hc        1 3F1      0.087667
     29 H1A        -1.1230    3.3360    8.5580 hc        1 3F1      0.087667
     30 H1B         0.4270    3.7440    8.3760 hc        1 3F1      0.087667
     31 H3         -2.4940    2.5500    6.5940 ha        1 3F1      0.134000
     32 H4         -2.8090    2.7410    4.2260 ha        1 3F1      0.149000
     33 H6         -1.0830    4.5790   -0.7920 h1        1 3F1      0.129667
     34 H6A        -1.3210    3.6640   -2.0810 h1        1 3F1      0.129667
     35 H6B        -2.4980    3.7860   -0.9990 h1        1 3F1      0.129667
     36 H7          1.3900    3.9670    6.1520 ha        1 3F1      0.134000
     37 H8          1.0210    4.1370    3.8200 ha        1 3F1      0.150000
     38 H14         1.6540    1.4270   -1.3450 ha        1 3F1      0.125000
     39 H15         2.2620   -0.4160   -2.6780 ha        1 3F1      0.149000
     40 H17        -2.1820    0.0810   -1.3390 ha        1 3F1      0.177000
     41 H18        -1.5720   -1.7480   -2.6630 ha        1 3F1      0.160000
     42 H21         1.9960   -3.3870   -2.4700 h1        1 3F1      0.108000
     43 H21A        0.4270   -3.7560   -2.2670 h1        1 3F1      0.108000
     44 H23        -0.4570   -5.5990   -3.5030 ha        1 3F1      0.147000
     45 H24        -0.2910   -7.3390   -5.0780 ha        1 3F1      0.137000
     46 H25         3.1310   -4.0500   -4.6860 ha        1 3F1      0.130000
     47 H26         3.2880   -5.7970   -6.2620 ha        1 3F1      0.134500
     48 H27         1.6010   -7.4370   -6.4710 ha        1 3F1      0.134500
@<TRIPOS>BOND
     1    1    2 1   
     2    1   28 1   
     3    1   29 1   
     4    1   30 1   
     5    2    3 1   
     6    2    7 1   
     7    3    4 1   
     8    3   31 1   
     9    4   32 1   
    10    5   10 1   
    11    6   12 1   
    12    6   33 1   
    13    6   34 1   
    14    6   35 1   
    15    7   36 1   
    16    8    9 1   
    17    8   37 1   
    18    9   10 1   
    19   10   16 1   
    20   11   12 1   
    21   12   13 1   
    22   13   14 1   
    23   13   17 1   
    24   14   15 1   
    25   14   38 1   
    26   15   39 1   
    27   17   40 1   
    28   18   19 1   
    29   18   41 1   
    30   19   20 1   
    31   20   21 1   
    32   21   22 1   
    33   21   42 1   
    34   21   43 1   
    35   22   23 1   
    36   22   25 1   
    37   23   24 1   
    38   23   44 1   
    39   24   45 1   
    40   25   46 1   
    41   26   27 1   
    42   26   47 1   
    43   27   48 1   
@<TRIPOS>SUBSTRUCTURE
     1 3F1         1 TEMP              0 ****  ****    0 ROOT
