@<TRIPOS>MOLECULE
3F1
   48    50     1     0     0
SMALL
bcc


@<TRIPOS>ATOM
      1 C1          0.1840   -0.4310    1.2220 c3        1 3F1     -0.062800
      2 C2          1.5470   -0.1690    0.7060 ca        1 3F1     -0.026300
      3 C3          2.5030    0.4580    1.5150 ca        1 3F1     -0.162000
      4 C4          3.7870    0.6880    1.0290 ca        1 3F1     -0.023500
      5 O5          5.6200    0.7550   -2.2730 o         1 3F1     -0.698300
      6 C6          8.8990   -1.3790    0.1330 c3        1 3F1     -0.161800
      7 C7          1.8980   -0.5510   -0.5950 ca        1 3F1     -0.162000
      8 C8          3.1850   -0.3160   -1.0700 ca        1 3F1     -0.023500
      9 C9          4.1470    0.3000   -0.2640 ca        1 3F1     -0.342500
     10 S10         5.7230    0.6130   -0.8630 sy        1 3F1      1.697700
     11 N11         6.4950   -0.6420   -0.5090 ne        1 3F1     -0.915200
     12 S12         7.2630   -1.8320   -0.2780 sx        1 3F1      0.534800
     13 C13         7.5680   -2.6340   -1.7620 ca        1 3F1     -0.213500
     14 C14         8.1420   -3.9120   -1.6660 ca        1 3F1     -0.022000
     15 C15         8.3680   -4.6890   -2.7890 ca        1 3F1     -0.199000
     16 O16         6.2090    1.7540   -0.1850 o         1 3F1     -0.698300
     17 C17         7.2260   -2.1460   -3.0260 ca        1 3F1     -0.022000
     18 C18         7.4410   -2.9060   -4.1750 ca        1 3F1     -0.199000
     19 C19         8.0130   -4.1780   -4.0570 ca        1 3F1      0.173100
     20 O20         8.2730   -5.0270   -5.1080 os        1 3F1     -0.322900
     21 C21         7.9700   -4.5140   -6.4180 c3        1 3F1      0.173700
     22 C22         8.3480   -5.5610   -7.4100 ca        1 3F1     -0.098300
     23 C23         8.2130   -6.9210   -7.1160 ca        1 3F1     -0.110500
     24 C24         8.5400   -7.8790   -8.0750 ca        1 3F1     -0.131000
     25 C25         8.8150   -5.1660   -8.6690 ca        1 3F1     -0.110500
     26 C26         9.1350   -6.1270   -9.6270 ca        1 3F1     -0.131000
     27 C27         8.9980   -7.4840   -9.3310 ca        1 3F1     -0.122000
     28 H1          0.1480   -1.4420    1.7020 hc        1 3F1      0.048367
     29 H1A        -0.1080    0.3300    1.9870 hc        1 3F1      0.048367
     30 H1B        -0.5680   -0.4100    0.3950 hc        1 3F1      0.048367
     31 H3          2.2350    0.7750    2.5330 ha        1 3F1      0.134000
     32 H4          4.5300    1.2050    1.6620 ha        1 3F1      0.149000
     33 H6          9.4120   -0.7080   -0.5930 h1        1 3F1      0.090700
     34 H6A         8.9080   -0.8580    1.1190 h1        1 3F1      0.090700
     35 H6B         9.5120   -2.3060    0.2200 h1        1 3F1      0.090700
     36 H7          1.1510   -1.0320   -1.2430 ha        1 3F1      0.134000
     37 H8          3.4490   -0.5970   -2.1040 ha        1 3F1      0.149000
     38 H14         8.4210   -4.3100   -0.6760 ha        1 3F1      0.152500
     39 H15         8.8170   -5.6890   -2.7160 ha        1 3F1      0.152000
     40 H17         6.7720   -1.1410   -3.1390 ha        1 3F1      0.152500
     41 H18         7.1590   -2.4930   -5.1530 ha        1 3F1      0.152000
     42 H21         6.8680   -4.3000   -6.4790 h1        1 3F1      0.053700
     43 H21A        8.5500   -3.5670   -6.5850 h1        1 3F1      0.053700
     44 H23         7.8570   -7.2280   -6.1200 ha        1 3F1      0.139000
     45 H24         8.4360   -8.9480   -7.8380 ha        1 3F1      0.134000
     46 H25         8.9310   -4.0970   -8.9040 ha        1 3F1      0.139000
     47 H26         9.4980   -5.8130  -10.6170 ha        1 3F1      0.134000
     48 H27         9.2540   -8.2400  -10.0880 ha        1 3F1      0.133000
@<TRIPOS>BOND
     1    1    2 1   
     2    1   28 1   
     3    1   29 1   
     4    1   30 1   
     5    2    3 ar  
     6    2    7 ar  
     7    3    4 ar  
     8    3   31 1   
     9    4    9 ar  
    10    4   32 1   
    11    5   10 2   
    12    6   12 1   
    13    6   33 1   
    14    6   34 1   
    15    6   35 1   
    16    7    8 ar  
    17    7   36 1   
    18    8    9 ar  
    19    8   37 1   
    20    9   10 1   
    21   10   11 1   
    22   10   16 2   
    23   11   12 2   
    24   12   13 1   
    25   13   14 ar  
    26   13   17 ar  
    27   14   15 ar  
    28   14   38 1   
    29   15   19 ar  
    30   15   39 1   
    31   17   18 ar  
    32   17   40 1   
    33   18   19 ar  
    34   18   41 1   
    35   19   20 1   
    36   20   21 1   
    37   21   22 1   
    38   21   42 1   
    39   21   43 1   
    40   22   23 ar  
    41   22   25 ar  
    42   23   24 ar  
    43   23   44 1   
    44   24   27 ar  
    45   24   45 1   
    46   25   26 ar  
    47   25   46 1   
    48   26   27 ar  
    49   26   47 1   
    50   27   48 1   
@<TRIPOS>SUBSTRUCTURE
     1 3F1         1 TEMP              0 ****  ****    0 ROOT
