@<TRIPOS>MOLECULE
3F2
   68    73     1     0     0
SMALL
bcc


@<TRIPOS>ATOM
      1 NAY        -0.2840    1.0690   -0.3450 nu        1 3F2     -0.804200
      2 CAU         1.1140    0.7730   -0.6790 c3        1 3F2      0.123800
      3 CAS         1.4880   -0.4450    0.2320 c3        1 3F2      0.073800
      4 NAW         0.3150   -0.7030    1.0650 n2        1 3F2     -0.592900
      5 CBE        -0.6140    0.1730    0.7440 ce        1 3F2      0.581800
      6 CBK        -1.9500    0.2590    1.3630 ca        1 3F2     -0.102900
      7 CAQ        -2.0650    0.1560    2.7520 ca        1 3F2     -0.110000
      8 CAG        -3.0800    0.4300    0.5590 ca        1 3F2     -0.122000
      9 CAC        -4.3370    0.4990    1.1550 ca        1 3F2     -0.115000
     10 CAE        -4.4760    0.4080    2.5360 ca        1 3F2     -0.168000
     11 CBG        -3.3370    0.2360    3.3580 ca        1 3F2      0.057600
     12 NBA        -3.5190    0.1200    4.7470 ns        1 3F2     -0.471100
     13 CBC        -2.5650    0.3670    5.7260 c         1 3F2      0.678700
     14 OAA        -1.4030    0.7250    5.4620 o         1 3F2     -0.577100
     15 CBI        -3.0200    0.1940    7.1380 ca        1 3F2     -0.142600
     16 CAJ        -2.5780    1.1190    8.0910 ca        1 3F2     -0.091000
     17 CAN        -2.9620    0.9870    9.4220 ca        1 3F2     -0.124000
     18 CAI        -3.8330   -0.8740    7.5290 ca        1 3F2     -0.091000
     19 CAM        -4.2150   -1.0060    8.8620 ca        1 3F2     -0.124000
     20 CBM        -3.7870   -0.0750    9.8200 cp        1 3F2     -0.022000
     21 CBN        -4.1920   -0.2140   11.2180 cp        1 3F2     -0.022000
     22 CAP        -3.2710    0.0220   12.2490 ca        1 3F2     -0.124000
     23 CAL        -3.6550   -0.1070   13.5820 ca        1 3F2     -0.091000
     24 CAO        -5.5030   -0.5920   11.5430 ca        1 3F2     -0.124000
     25 CAK        -5.8880   -0.7230   12.8740 ca        1 3F2     -0.091000
     26 CBJ        -4.9670   -0.4720   13.8980 ca        1 3F2     -0.142600
     27 CBD        -5.4220   -0.6460   15.3100 c         1 3F2      0.678700
     28 OAB        -6.1730   -1.5830   15.6360 o         1 3F2     -0.577100
     29 NBB        -4.9670    0.3060   16.2150 ns        1 3F2     -0.471100
     30 CBH        -5.2750    0.3670   17.5850 ca        1 3F2      0.057600
     31 CAR        -5.6860   -0.7660   18.3190 ca        1 3F2     -0.110000
     32 CAF        -5.1360    1.6040   18.2580 ca        1 3F2     -0.168000
     33 CAD        -5.4050    1.6950   19.6190 ca        1 3F2     -0.115000
     34 CAH        -5.8200    0.5790   20.3410 ca        1 3F2     -0.122000
     35 CBL        -5.9590   -0.6470   19.6850 ca        1 3F2     -0.102900
     36 CBF        -6.3870   -1.8400   20.4390 ce        1 3F2      0.581800
     37 NAX        -7.4460   -1.7100   21.4200 nu        1 3F2     -0.804200
     38 CAT        -7.6700   -3.0680   21.9280 c3        1 3F2      0.123800
     39 CAV        -6.5630   -3.9360   21.2380 c3        1 3F2      0.073800
     40 NAZ        -5.8460   -3.0350   20.3370 n2        1 3F2     -0.592900
     41 H1         -0.4700    2.0280   -0.1410 hn        1 3F2      0.391800
     42 H3          1.7960    1.6420   -0.4950 h1        1 3F2      0.053200
     43 H4          1.1640    0.4930   -1.7620 h1        1 3F2      0.053200
     44 H5          2.3710   -0.2220    0.8830 h1        1 3F2      0.069200
     45 H6          1.7140   -1.3500   -0.3890 h1        1 3F2      0.069200
     46 H10        -1.1590    0.0150    3.3670 ha        1 3F2      0.183000
     47 H11        -2.9810    0.5000   -0.5350 ha        1 3F2      0.151000
     48 H12        -5.2320    0.6280    0.5290 ha        1 3F2      0.136000
     49 H13        -5.4820    0.4690    2.9790 ha        1 3F2      0.131000
     50 H14        -4.4530   -0.0480    5.0490 hn        1 3F2      0.319500
     51 H15        -1.9150    1.9430    7.7790 ha        1 3F2      0.149500
     52 H16        -2.6170    1.7210   10.1660 ha        1 3F2      0.143000
     53 H17        -4.1600   -1.6290    6.7970 ha        1 3F2      0.149500
     54 H18        -4.8470   -1.8540    9.1680 ha        1 3F2      0.143000
     55 H19        -2.2340    0.2990   12.0030 ha        1 3F2      0.143000
     56 H20        -2.9110    0.0590   14.3760 ha        1 3F2      0.149500
     57 H21        -6.2320   -0.7830   10.7410 ha        1 3F2      0.143000
     58 H22        -6.9130   -1.0350   13.1330 ha        1 3F2      0.149500
     59 H23        -4.4670    1.0850   15.8490 hn        1 3F2      0.319500
     60 H24        -5.7960   -1.7460   17.8230 ha        1 3F2      0.183000
     61 H25        -4.8120    2.5040   17.7130 ha        1 3F2      0.131000
     62 H26        -5.2880    2.6630   20.1300 ha        1 3F2      0.136000
     63 H27        -6.0280    0.6610   21.4190 ha        1 3F2      0.151000
     64 H28        -8.2610   -1.2570   21.0660 hn        1 3F2      0.391800
     65 H29        -7.5320   -3.0540   23.0400 h1        1 3F2      0.053200
     66 H30        -5.8530   -4.3510   21.9980 h1        1 3F2      0.069200
     67 H2         -8.6940   -3.4550   21.6940 h1        1 3F2      0.053200
     68 H7         -7.0030   -4.7830   20.6530 h1        1 3F2      0.069200
@<TRIPOS>BOND
     1    1    2 1   
     2    1    5 1   
     3    1   41 1   
     4    2    3 1   
     5    2   42 1   
     6    2   43 1   
     7    3    4 1   
     8    3   44 1   
     9    3   45 1   
    10    4    5 2   
    11    5    6 1   
    12    6    7 ar  
    13    6    8 ar  
    14    7   11 ar  
    15    7   46 1   
    16    8    9 ar  
    17    8   47 1   
    18    9   10 ar  
    19    9   48 1   
    20   10   11 ar  
    21   10   49 1   
    22   11   12 1   
    23   12   13 1   
    24   12   50 1   
    25   13   14 2   
    26   13   15 1   
    27   15   16 ar  
    28   15   18 ar  
    29   16   17 ar  
    30   16   51 1   
    31   17   20 ar  
    32   17   52 1   
    33   18   19 ar  
    34   18   53 1   
    35   19   20 ar  
    36   19   54 1   
    37   20   21 1   
    38   21   22 ar  
    39   21   24 ar  
    40   22   23 ar  
    41   22   55 1   
    42   23   26 ar  
    43   23   56 1   
    44   24   25 ar  
    45   24   57 1   
    46   25   26 ar  
    47   25   58 1   
    48   26   27 1   
    49   27   28 2   
    50   27   29 1   
    51   29   30 1   
    52   29   59 1   
    53   30   31 ar  
    54   30   32 ar  
    55   31   35 ar  
    56   31   60 1   
    57   32   33 ar  
    58   32   61 1   
    59   33   34 ar  
    60   33   62 1   
    61   34   35 ar  
    62   34   63 1   
    63   35   36 1   
    64   36   37 1   
    65   36   40 2   
    66   37   38 1   
    67   37   64 1   
    68   38   39 1   
    69   38   65 1   
    70   38   67 1   
    71   39   40 1   
    72   39   66 1   
    73   39   68 1   
@<TRIPOS>SUBSTRUCTURE
     1 3F2         1 TEMP              0 ****  ****    0 ROOT
