@<TRIPOS>MOLECULE
3F2
   68    73     1     0     0
SMALL
bcc


@<TRIPOS>ATOM
      1 NAY        -0.2840    1.0700   -0.3460 nh        1 3F2     -0.804200
      2 CAU         1.1150    0.7770   -0.6790 c3        1 3F2      0.123800
      3 CAS         1.4920   -0.4400    0.2330 c3        1 3F2      0.073800
      4 NAW         0.3190   -0.7000    1.0660 n2        1 3F2     -0.592900
      5 CBE        -0.6120    0.1740    0.7440 ce        1 3F2      0.581800
      6 CBK        -1.9480    0.2570    1.3640 ca        1 3F2     -0.102900
      7 CAQ        -2.0630    0.1550    2.7520 ca        1 3F2     -0.110000
      8 CAG        -3.0790    0.4250    0.5590 ca        1 3F2     -0.122000
      9 CAC        -4.3360    0.4920    1.1550 ca        1 3F2     -0.115000
     10 CAE        -4.4750    0.4010    2.5360 ca        1 3F2     -0.168000
     11 CBG        -3.3350    0.2320    3.3580 ca        1 3F2      0.057600
     12 NBA        -3.5170    0.1160    4.7470 n         1 3F2     -0.471100
     13 CBC        -2.5640    0.3660    5.7260 c         1 3F2      0.678700
     14 OAA        -1.4020    0.7260    5.4620 o         1 3F2     -0.577100
     15 CBI        -3.0180    0.1920    7.1380 ca        1 3F2     -0.142600
     16 CAJ        -2.5780    1.1190    8.0900 ca        1 3F2     -0.091000
     17 CAN        -2.9620    0.9860    9.4220 ca        1 3F2     -0.124000
     18 CAI        -3.8300   -0.8770    7.5290 ca        1 3F2     -0.091000
     19 CAM        -4.2120   -1.0090    8.8630 ca        1 3F2     -0.124000
     20 CBM        -3.7860   -0.0770    9.8200 cp        1 3F2     -0.022000
     21 CBN        -4.1910   -0.2160   11.2180 cp        1 3F2     -0.022000
     22 CAP        -3.2710    0.0220   12.2490 ca        1 3F2     -0.124000
     23 CAL        -3.6560   -0.1060   13.5820 ca        1 3F2     -0.091000
     24 CAO        -5.5020   -0.5950   11.5430 ca        1 3F2     -0.124000
     25 CAK        -5.8870   -0.7260   12.8740 ca        1 3F2     -0.091000
     26 CBJ        -4.9670   -0.4730   13.8980 ca        1 3F2     -0.142600
     27 CBD        -5.4220   -0.6460   15.3100 c         1 3F2      0.678700
     28 OAB        -6.1720   -1.5840   15.6360 o         1 3F2     -0.577100
     29 NBB        -4.9690    0.3070   16.2150 n         1 3F2     -0.471100
     30 CBH        -5.2780    0.3680   17.5850 ca        1 3F2      0.057600
     31 CAR        -5.6880   -0.7650   18.3190 ca        1 3F2     -0.110000
     32 CAF        -5.1390    1.6060   18.2570 ca        1 3F2     -0.168000
     33 CAD        -5.4090    1.6980   19.6170 ca        1 3F2     -0.115000
     34 CAH        -5.8240    0.5820   20.3400 ca        1 3F2     -0.122000
     35 CBL        -5.9620   -0.6450   19.6840 ca        1 3F2     -0.102900
     36 CBF        -6.3890   -1.8370   20.4390 ce        1 3F2      0.581800
     37 NAX        -7.4480   -1.7070   21.4200 nh        1 3F2     -0.804200
     38 CAT        -7.6720   -3.0650   21.9290 c3        1 3F2      0.123800
     39 CAV        -6.5650   -3.9330   21.2390 c3        1 3F2      0.073800
     40 NAZ        -5.8480   -3.0330   20.3380 n2        1 3F2     -0.592900
     41 H1         -0.4720    2.0280   -0.1420 hn        1 3F2      0.391800
     42 H3          1.1650    0.4960   -1.7620 h1        1 3F2      0.053200
     43 H4          1.7950    1.6470   -0.4960 h1        1 3F2      0.053200
     44 H5          2.3740   -0.2150    0.8840 h1        1 3F2      0.069200
     45 H6          1.7200   -1.3450   -0.3870 h1        1 3F2      0.069200
     46 H10        -1.1570    0.0160    3.3680 ha        1 3F2      0.184000
     47 H11        -2.9790    0.4950   -0.5350 ha        1 3F2      0.151000
     48 H12        -5.2310    0.6180    0.5280 ha        1 3F2      0.136000
     49 H13        -5.4810    0.4600    2.9790 ha        1 3F2      0.131000
     50 H14        -4.4510   -0.0540    5.0490 hn        1 3F2      0.319500
     51 H15        -1.9170    1.9440    7.7780 ha        1 3F2      0.149500
     52 H16        -2.6190    1.7220   10.1660 ha        1 3F2      0.143000
     53 H17        -4.1550   -1.6330    6.7980 ha        1 3F2      0.149500
     54 H18        -4.8420   -1.8580    9.1690 ha        1 3F2      0.143000
     55 H19        -2.2350    0.3010   12.0040 ha        1 3F2      0.143000
     56 H20        -2.9120    0.0610   14.3760 ha        1 3F2      0.149500
     57 H21        -6.2310   -0.7870   10.7410 ha        1 3F2      0.143000
     58 H22        -6.9120   -1.0400   13.1320 ha        1 3F2      0.149500
     59 H23        -4.4700    1.0860   15.8480 hn        1 3F2      0.319500
     60 H24        -5.7980   -1.7450   17.8230 ha        1 3F2      0.184000
     61 H25        -4.8160    2.5060   17.7110 ha        1 3F2      0.131000
     62 H26        -5.2920    2.6670   20.1280 ha        1 3F2      0.136000
     63 H27        -6.0310    0.6650   21.4180 ha        1 3F2      0.151000
     64 H28        -8.2640   -1.2550   21.0660 hn        1 3F2      0.391800
     65 H29        -7.5330   -3.0500   23.0410 h1        1 3F2      0.053200
     66 H30        -5.8540   -4.3470   22.0000 h1        1 3F2      0.069200
     67 H2         -8.6960   -3.4520   21.6950 h1        1 3F2      0.053200
     68 H7         -7.0040   -4.7810   20.6550 h1        1 3F2      0.069200
@<TRIPOS>BOND
     1    1    2 1   
     2    1    5 1   
     3    1   41 1   
     4    2    3 1   
     5    2   42 1   
     6    2   43 1   
     7    3    4 1   
     8    3   44 1   
     9    3   45 1   
    10    4    5 2   
    11    5    6 1   
    12    6    7 ar  
    13    6    8 ar  
    14    7   11 ar  
    15    7   46 1   
    16    8    9 ar  
    17    8   47 1   
    18    9   10 ar  
    19    9   48 1   
    20   10   11 ar  
    21   10   49 1   
    22   11   12 1   
    23   12   13 1   
    24   12   50 1   
    25   13   14 2   
    26   13   15 1   
    27   15   16 ar  
    28   15   18 ar  
    29   16   17 ar  
    30   16   51 1   
    31   17   20 ar  
    32   17   52 1   
    33   18   19 ar  
    34   18   53 1   
    35   19   20 ar  
    36   19   54 1   
    37   20   21 1   
    38   21   22 ar  
    39   21   24 ar  
    40   22   23 ar  
    41   22   55 1   
    42   23   26 ar  
    43   23   56 1   
    44   24   25 ar  
    45   24   57 1   
    46   25   26 ar  
    47   25   58 1   
    48   26   27 1   
    49   27   28 2   
    50   27   29 1   
    51   29   30 1   
    52   29   59 1   
    53   30   31 ar  
    54   30   32 ar  
    55   31   35 ar  
    56   31   60 1   
    57   32   33 ar  
    58   32   61 1   
    59   33   34 ar  
    60   33   62 1   
    61   34   35 ar  
    62   34   63 1   
    63   35   36 1   
    64   36   37 1   
    65   36   40 2   
    66   37   38 1   
    67   37   64 1   
    68   38   39 1   
    69   38   65 1   
    70   38   67 1   
    71   39   40 1   
    72   39   66 1   
    73   39   68 1   
@<TRIPOS>SUBSTRUCTURE
     1 3F2         1 TEMP              0 ****  ****    0 ROOT
