@<TRIPOS>MOLECULE
3F3
   53    57     1     0     0
SMALL
bcc


@<TRIPOS>ATOM
      1 C           0.9530    0.3700   -0.9200 c3        1 3F3      0.113700
      2 O           2.1460    0.5600   -0.1690 os        1 3F3     -0.323900
      3 C1          2.1170    0.1230    1.1410 ca        1 3F3      0.124100
      4 C22         0.9840   -0.3950    1.7790 ca        1 3F3     -0.196000
      5 C21         1.0800   -0.7920    3.1120 ca        1 3F3     -0.097000
      6 C20         2.2820   -0.6740    3.8040 ca        1 3F3     -0.151000
      7 C3          3.4130   -0.1540    3.1620 ca        1 3F3     -0.064300
      8 C2          3.3390    0.2450    1.8280 ca        1 3F3     -0.134000
      9 C4          4.6930   -0.0010    3.9130 c3        1 3F3     -0.053400
     10 C5          5.6910   -1.0200    3.5180 cc        1 3F3      0.459700
     11 O1          5.9580   -2.0550    4.4290 os        1 3F3     -0.391800
     12 C6          6.9360   -2.8300    3.7720 cc        1 3F3      0.553200
     13 N1          7.2040   -2.2690    2.5710 nd        1 3F3     -0.331000
     14 N           6.4570   -1.1880    2.4220 nd        1 3F3     -0.346000
     15 C7          7.4470   -3.9930    4.4300 cc        1 3F3     -0.199200
     16 S           7.6720   -4.0780    6.1110 ss        1 3F3      0.088500
     17 C19         8.3030   -5.6350    6.0600 ca        1 3F3     -0.068100
     18 C18         8.7480   -6.4320    7.1240 ca        1 3F3     -0.103000
     19 C17         9.2090   -7.7110    6.8650 ca        1 3F3     -0.106000
     20 C16         9.2290   -8.2200    5.5530 ca        1 3F3     -0.138000
     21 C15         8.7970   -7.4470    4.4890 ca        1 3F3     -0.077000
     22 C14         8.3390   -6.1430    4.7330 ca        1 3F3     -0.115800
     23 C8          7.8350   -5.1620    3.7950 cd        1 3F3      0.169900
     24 O2          7.6310   -5.3990    2.4650 os        1 3F3     -0.307900
     25 C9          8.8320   -5.6800    1.7000 c3        1 3F3      0.145100
     26 C13         8.4430   -6.7610    0.6990 c3        1 3F3     -0.092900
     27 C12         9.5880   -7.0020   -0.2830 c3        1 3F3      0.166300
     28 N2         10.0460   -5.7910   -0.9330 n7        1 3F3     -0.821200
     29 C11        10.3760   -4.7170   -0.0170 c3        1 3F3      0.166300
     30 C10         9.2630   -4.4090    0.9820 c3        1 3F3     -0.092900
     31 HC1         1.2250    0.7480   -1.9390 h1        1 3F3      0.044367
     32 HC2         0.1170    0.9720   -0.4880 h1        1 3F3      0.044367
     33 HC3         0.6770   -0.7110   -0.9620 h1        1 3F3      0.044367
     34 H22         0.0280   -0.4940    1.2460 ha        1 3F3      0.138000
     35 H2          4.2210    0.6420    1.3020 ha        1 3F3      0.163000
     36 H21         0.1940   -1.2040    3.6200 ha        1 3F3      0.134000
     37 H20         2.3450   -0.9940    4.8550 ha        1 3F3      0.135000
     38 H41C        4.5090   -0.0900    5.0190 hc        1 3F3      0.082200
     39 H42C        5.1300    1.0170    3.7130 hc        1 3F3      0.082200
     40 H18         8.7270   -6.0390    8.1520 ha        1 3F3      0.141000
     41 H17         9.5620   -8.3450    7.6930 ha        1 3F3      0.137000
     42 H16         9.5900   -9.2450    5.3790 ha        1 3F3      0.137000
     43 H15         8.7940   -7.8400    3.4610 ha        1 3F3      0.143000
     44 H9          9.6480   -6.0470    2.3800 h1        1 3F3      0.049700
     45 H131        7.5190   -6.4400    0.1520 hc        1 3F3      0.068200
     46 H132        8.2100   -7.7160    1.2350 hc        1 3F3      0.068200
     47 H101        8.3780   -3.9620    0.4600 hc        1 3F3      0.068200
     48 H102        9.6330   -3.6560    1.7230 hc        1 3F3      0.068200
     49 H121       10.4210   -7.5270    0.2740 h1        1 3F3      0.028200
     50 H122        9.2290   -7.7000   -1.0910 h1        1 3F3      0.028200
     51 HA         10.8330   -5.9950   -1.5210 hn        1 3F3      0.364800
     52 H111       11.3210   -4.9350    0.5650 h1        1 3F3      0.028200
     53 H112       10.5650   -3.7960   -0.6380 h1        1 3F3      0.028200
@<TRIPOS>BOND
     1    1    2 1   
     2    1   31 1   
     3    1   32 1   
     4    1   33 1   
     5    2    3 1   
     6    3    4 ar  
     7    3    8 ar  
     8    4    5 ar  
     9    4   34 1   
    10    5    6 ar  
    11    5   36 1   
    12    6    7 ar  
    13    6   37 1   
    14    7    8 ar  
    15    7    9 1   
    16    8   35 1   
    17    9   10 1   
    18    9   38 1   
    19    9   39 1   
    20   10   11 1   
    21   10   14 2   
    22   11   12 1   
    23   12   13 2   
    24   12   15 1   
    25   13   14 1   
    26   15   16 1   
    27   15   23 2   
    28   16   17 1   
    29   17   18 ar  
    30   17   22 ar  
    31   18   19 ar  
    32   18   40 1   
    33   19   20 ar  
    34   19   41 1   
    35   20   21 ar  
    36   20   42 1   
    37   21   22 ar  
    38   21   43 1   
    39   22   23 1   
    40   23   24 1   
    41   24   25 1   
    42   25   26 1   
    43   25   30 1   
    44   25   44 1   
    45   26   27 1   
    46   26   45 1   
    47   26   46 1   
    48   27   28 1   
    49   27   49 1   
    50   27   50 1   
    51   28   29 1   
    52   28   51 1   
    53   29   30 1   
    54   29   52 1   
    55   29   53 1   
    56   30   47 1   
    57   30   48 1   
@<TRIPOS>SUBSTRUCTURE
     1 3F3         1 TEMP              0 ****  ****    0 ROOT
