@<TRIPOS>MOLECULE
3F3
   53    57     1     0     0
SMALL
bcc


@<TRIPOS>ATOM
      1 C          -0.0760    1.0220   -0.0530 c3        1 3F3      0.113700
      2 O           1.1960    1.3370    0.5000 os        1 3F3     -0.326900
      3 C1          1.7230    0.4130    1.3820 ca        1 3F3      0.124100
      4 C22         1.0630   -0.7470    1.8030 ca        1 3F3     -0.197000
      5 C21         1.7020   -1.5990    2.7050 ca        1 3F3     -0.092000
      6 C20         2.9730   -1.3010    3.1840 ca        1 3F3     -0.153000
      7 C3          3.6290   -0.1370    2.7610 ca        1 3F3     -0.060300
      8 C2          3.0110    0.7250    1.8560 ca        1 3F3     -0.141000
      9 C4          4.9780    0.2010    3.3020 c3        1 3F3     -0.054400
     10 C5          5.9630   -0.8770    3.0590 cc        1 3F3      0.460700
     11 O1          6.0600   -1.8990    4.0180 os        1 3F3     -0.395800
     12 C6          7.0730   -2.7380    3.5070 cc        1 3F3      0.553200
     13 N1          7.5180   -2.2220    2.3390 nd        1 3F3     -0.331000
     14 N           6.8510   -1.1110    2.0740 nd        1 3F3     -0.342000
     15 C7          7.4370   -3.9060    4.2470 cc        1 3F3     -0.200200
     16 S           7.4760   -3.9480    5.9440 ss        1 3F3      0.088500
     17 C19         8.0100   -5.5410    6.0030 ca        1 3F3     -0.068100
     18 C18         8.2890   -6.3260    7.1300 ca        1 3F3     -0.103000
     19 C17         8.6940   -7.6390    6.9570 ca        1 3F3     -0.106000
     20 C16         8.8210   -8.1920    5.6680 ca        1 3F3     -0.138000
     21 C15         8.5530   -7.4310    4.5440 ca        1 3F3     -0.077000
     22 C14         8.1550   -6.0940    4.7020 ca        1 3F3     -0.116800
     23 C8          7.8160   -5.1170    3.6890 cd        1 3F3      0.170900
     24 O2          7.7400   -5.3850    2.3510 os        1 3F3     -0.308900
     25 C9          8.9950   -5.7630    1.7290 c3        1 3F3      0.145100
     26 C13         8.6460   -6.8510    0.7200 c3        1 3F3     -0.092900
     27 C12         9.8710   -7.1920   -0.1260 c3        1 3F3      0.166800
     28 N2         10.4710   -6.0330   -0.7550 n3        1 3F3     -0.821200
     29 C11        10.7700   -4.9510    0.1630 c3        1 3F3      0.166800
     30 C10         9.5800   -4.5440    1.0290 c3        1 3F3     -0.092900
     31 HC1        -0.2770    1.8770   -0.7470 h1        1 3F3      0.045033
     32 HC2        -0.0360    0.0580   -0.6160 h1        1 3F3      0.045033
     33 HC3        -0.8530    0.9750    0.7490 h1        1 3F3      0.045033
     34 H22         0.0590   -0.9960    1.4330 ha        1 3F3      0.138000
     35 H2          3.5080    1.6390    1.5020 ha        1 3F3      0.152000
     36 H21         1.1920   -2.5160    3.0370 ha        1 3F3      0.135000
     37 H20         3.4770   -1.9790    3.8910 ha        1 3F3      0.143000
     38 H41C        4.8980    0.3670    4.4130 hc        1 3F3      0.084700
     39 H42C        5.3650    1.1480    2.8330 hc        1 3F3      0.084700
     40 H18         8.1840   -5.8990    8.1380 ha        1 3F3      0.141000
     41 H17         8.9170   -8.2650    7.8350 ha        1 3F3      0.137000
     42 H16         9.1330   -9.2410    5.5620 ha        1 3F3      0.137000
     43 H15         8.6350   -7.8570    3.5330 ha        1 3F3      0.143000
     44 H9          9.7090   -6.1550    2.5020 h1        1 3F3      0.049700
     45 H131        8.2990   -7.7720    1.2520 hc        1 3F3      0.068450
     46 H132        7.8070   -6.4930    0.0680 hc        1 3F3      0.068450
     47 H101        8.7850   -4.0610    0.4020 hc        1 3F3      0.068450
     48 H102        9.9170   -3.7910    1.7850 hc        1 3F3      0.068450
     49 H121        9.5560   -7.8940   -0.9500 h1        1 3F3      0.028450
     50 H122       10.6070   -7.7470    0.5300 h1        1 3F3      0.028450
     51 HA         11.3010   -6.3020   -1.2500 hn        1 3F3      0.364800
     52 H111       11.0820   -4.0640   -0.4580 h1        1 3F3      0.028450
     53 H112       11.6330   -5.2070    0.8490 h1        1 3F3      0.028450
@<TRIPOS>BOND
     1    1    2 1   
     2    1   31 1   
     3    1   32 1   
     4    1   33 1   
     5    2    3 1   
     6    3    4 ar  
     7    3    8 ar  
     8    4    5 ar  
     9    4   34 1   
    10    5    6 ar  
    11    5   36 1   
    12    6    7 ar  
    13    6   37 1   
    14    7    8 ar  
    15    7    9 1   
    16    8   35 1   
    17    9   10 1   
    18    9   38 1   
    19    9   39 1   
    20   10   11 1   
    21   10   14 2   
    22   11   12 1   
    23   12   13 2   
    24   12   15 1   
    25   13   14 1   
    26   15   16 1   
    27   15   23 2   
    28   16   17 1   
    29   17   18 ar  
    30   17   22 ar  
    31   18   19 ar  
    32   18   40 1   
    33   19   20 ar  
    34   19   41 1   
    35   20   21 ar  
    36   20   42 1   
    37   21   22 ar  
    38   21   43 1   
    39   22   23 1   
    40   23   24 1   
    41   24   25 1   
    42   25   26 1   
    43   25   30 1   
    44   25   44 1   
    45   26   27 1   
    46   26   45 1   
    47   26   46 1   
    48   27   28 1   
    49   27   49 1   
    50   27   50 1   
    51   28   29 1   
    52   28   51 1   
    53   29   30 1   
    54   29   52 1   
    55   29   53 1   
    56   30   47 1   
    57   30   48 1   
@<TRIPOS>SUBSTRUCTURE
     1 3F3         1 TEMP              0 ****  ****    0 ROOT
