@<TRIPOS>MOLECULE
3F4
   28    30     1     0     0
SMALL
bcc


@<TRIPOS>ATOM
      1 O1         -2.1400   -2.6800   -0.7970 o         1 3F4     -0.625500
      2 C13        -1.7330   -1.5480   -0.4800 c         1 3F4      0.708100
      3 N1         -0.3480   -1.3240   -0.4030 n         1 3F4     -0.494400
      4 C6          0.1600   -0.0660   -0.0480 cc        1 3F4      0.550500
      5 C3          1.6410    0.0530   -0.0000 ca        1 3F4     -0.188900
      6 C4          2.2670    1.1570   -0.5970 ca        1 3F4     -0.056500
      7 C5          3.6500    1.2830   -0.5610 ca        1 3F4     -0.192500
      8 C           4.4120    0.2950    0.0880 ca        1 3F4      0.147100
      9 O           5.7730    0.4740    0.0880 oh        1 3F4     -0.490100
     10 C1          3.7920   -0.8070    0.6970 ca        1 3F4     -0.192500
     11 C2          2.4060   -0.9210    0.6500 ca        1 3F4     -0.056500
     12 N          -0.5890    0.9880    0.2350 nd        1 3F4     -0.617100
     13 C7         -1.9800    0.8440    0.1780 ca        1 3F4      0.182400
     14 C8         -2.5910   -0.3910   -0.1680 ca        1 3F4     -0.190600
     15 C12        -2.8180    1.9490    0.4750 ca        1 3F4     -0.123000
     16 C11        -4.1950    1.8070    0.4210 ca        1 3F4     -0.095000
     17 C10        -4.7840    0.5830    0.0770 ca        1 3F4     -0.154000
     18 C9         -3.9860   -0.5130   -0.2170 ca        1 3F4     -0.059000
     19 H1          0.2780   -2.0660   -0.6220 hn        1 3F4      0.337500
     20 H4          1.6610    1.9320   -1.0940 ha        1 3F4      0.149000
     21 H2          1.9210   -1.7780    1.1440 ha        1 3F4      0.149000
     22 H5          4.1570    2.1410   -1.0260 ha        1 3F4      0.150000
     23 H           6.1740   -0.2620    0.5740 ho        1 3F4      0.424000
     24 HA          4.3950   -1.5690    1.2100 ha        1 3F4      0.150000
     25 H12        -2.3670    2.9160    0.7480 ha        1 3F4      0.153000
     26 H9         -4.4270   -1.4860   -0.4900 ha        1 3F4      0.158000
     27 H11        -4.8390    2.6700    0.6530 ha        1 3F4      0.137000
     28 H10        -5.8800    0.4940    0.0410 ha        1 3F4      0.140000
@<TRIPOS>BOND
     1    1    2 2   
     2    2    3 1   
     3    2   14 1   
     4    3    4 1   
     5    3   19 1   
     6    4    5 1   
     7    4   12 2   
     8    5    6 ar  
     9    5   11 ar  
    10    6    7 ar  
    11    6   20 1   
    12    7    8 ar  
    13    7   22 1   
    14    8    9 1   
    15    8   10 ar  
    16    9   23 1   
    17   10   11 ar  
    18   10   24 1   
    19   11   21 1   
    20   12   13 1   
    21   13   14 ar  
    22   13   15 ar  
    23   14   18 ar  
    24   15   16 ar  
    25   15   25 1   
    26   16   17 ar  
    27   16   27 1   
    28   17   18 ar  
    29   17   28 1   
    30   18   26 1   
@<TRIPOS>SUBSTRUCTURE
     1 3F4         1 TEMP              0 ****  ****    0 ROOT
