@<TRIPOS>MOLECULE
3F4
   28    30     1     0     0
SMALL
bcc


@<TRIPOS>ATOM
      1 O1          0.0400   -0.7630   -0.0200 o         1 3F4     -0.624500
      2 C13         1.2470   -0.4640   -0.0690 c         1 3F4      0.708100
      3 N1          1.9810   -0.4130    1.1270 n         1 3F4     -0.494400
      4 C6          3.3420   -0.0800    1.1230 cc        1 3F4      0.550500
      5 C3          4.0170   -0.0580    2.4480 ca        1 3F4     -0.188900
      6 C4          5.2670   -0.6690    2.5980 ca        1 3F4     -0.056500
      7 C5          5.9070   -0.6540    3.8340 ca        1 3F4     -0.192000
      8 C           5.2920   -0.0160    4.9210 ca        1 3F4      0.147100
      9 O           5.8600    0.0380    6.1700 oh        1 3F4     -0.491100
     10 C1          4.0410    0.6100    4.7760 ca        1 3F4     -0.192000
     11 C2          3.4120    0.5850    3.5370 ca        1 3F4     -0.056500
     12 N           4.0380    0.2030    0.0330 nd        1 3F4     -0.619100
     13 C7          3.3760    0.1710   -1.2000 ca        1 3F4      0.183400
     14 C8          1.9960   -0.1510   -1.2990 ca        1 3F4     -0.190600
     15 C12         4.0840    0.4700   -2.3910 ca        1 3F4     -0.124000
     16 C11         3.4290    0.4410   -3.6110 ca        1 3F4     -0.095000
     17 C10         2.0670    0.1200   -3.6950 ca        1 3F4     -0.154000
     18 C9          1.3520   -0.1750   -2.5430 ca        1 3F4     -0.059000
     19 H1          1.5270   -0.6300    1.9860 hn        1 3F4      0.338500
     20 H4          5.7500   -1.1600    1.7380 ha        1 3F4      0.149500
     21 H2          2.4410    1.0910    3.4190 ha        1 3F4      0.149500
     22 H5          6.8880   -1.1350    3.9560 ha        1 3F4      0.150000
     23 H           6.7170   -0.4120    6.1310 ho        1 3F4      0.424000
     24 HA          3.5820    1.1120    5.6390 ha        1 3F4      0.150000
     25 H12         5.1540    0.7250   -2.3380 ha        1 3F4      0.152000
     26 H9          0.2800   -0.4300   -2.5850 ha        1 3F4      0.158000
     27 H11         3.9860    0.6740   -4.5320 ha        1 3F4      0.137000
     28 H10         1.5680    0.1030   -4.6750 ha        1 3F4      0.140000
@<TRIPOS>BOND
     1    1    2 2   
     2    2    3 1   
     3    2   14 1   
     4    3    4 1   
     5    3   19 1   
     6    4    5 1   
     7    4   12 2   
     8    5    6 ar  
     9    5   11 ar  
    10    6    7 ar  
    11    6   20 1   
    12    7    8 ar  
    13    7   22 1   
    14    8    9 1   
    15    8   10 ar  
    16    9   23 1   
    17   10   11 ar  
    18   10   24 1   
    19   11   21 1   
    20   12   13 1   
    21   13   14 ar  
    22   13   15 ar  
    23   14   18 ar  
    24   15   16 ar  
    25   15   25 1   
    26   16   17 ar  
    27   16   27 1   
    28   17   18 ar  
    29   17   28 1   
    30   18   26 1   
@<TRIPOS>SUBSTRUCTURE
     1 3F4         1 TEMP              0 ****  ****    0 ROOT
