@<TRIPOS>MOLECULE
3F4
   28    30     1     0     0
SMALL
bcc


@<TRIPOS>ATOM
      1 O1          0.0300   -0.7330   -0.0050 o         1 3F4     -0.624500
      2 C13         1.2390   -0.4470   -0.0600 c         1 3F4      0.708100
      3 N1          1.9780   -0.3950    1.1340 n         1 3F4     -0.494400
      4 C6          3.3430   -0.0760    1.1240 cc        1 3F4      0.550500
      5 C3          4.0210   -0.0530    2.4470 ca        1 3F4     -0.188900
      6 C4          5.2660   -0.6740    2.5970 ca        1 3F4     -0.056500
      7 C5          5.9100   -0.6580    3.8320 ca        1 3F4     -0.192000
      8 C           5.3040   -0.0070    4.9160 ca        1 3F4      0.147100
      9 O           5.8760    0.0490    6.1630 oh        1 3F4     -0.491100
     10 C1          4.0580    0.6300    4.7700 ca        1 3F4     -0.192000
     11 C2          3.4260    0.6030    3.5340 ca        1 3F4     -0.056500
     12 N           4.0380    0.1920    0.0300 nd        1 3F4     -0.619100
     13 C7          3.3720    0.1590   -1.2010 ca        1 3F4      0.183400
     14 C8          1.9880   -0.1500   -1.2940 ca        1 3F4     -0.190600
     15 C12         4.0800    0.4420   -2.3960 ca        1 3F4     -0.124000
     16 C11         3.4210    0.4110   -3.6140 ca        1 3F4     -0.095000
     17 C10         2.0550    0.1040   -3.6920 ca        1 3F4     -0.154000
     18 C9          1.3410   -0.1760   -2.5360 ca        1 3F4     -0.059000
     19 H1          1.5240   -0.6020    1.9960 hn        1 3F4      0.338500
     20 H4          5.7420   -1.1750    1.7390 ha        1 3F4      0.149500
     21 H2          2.4590    1.1180    3.4150 ha        1 3F4      0.149500
     22 H5          6.8860   -1.1480    3.9530 ha        1 3F4      0.150000
     23 H           6.7290   -0.4090    6.1250 ho        1 3F4      0.424000
     24 HA          3.6070    1.1420    5.6320 ha        1 3F4      0.150000
     25 H12         5.1520    0.6860   -2.3480 ha        1 3F4      0.152000
     26 H9          0.2660   -0.4200   -2.5730 ha        1 3F4      0.158000
     27 H11         3.9780    0.6330   -4.5380 ha        1 3F4      0.137000
     28 H10         1.5530    0.0860   -4.6700 ha        1 3F4      0.140000
@<TRIPOS>BOND
     1    1    2 2   
     2    2    3 1   
     3    2   14 1   
     4    3    4 1   
     5    3   19 1   
     6    4    5 1   
     7    4   12 2   
     8    5    6 ar  
     9    5   11 ar  
    10    6    7 ar  
    11    6   20 1   
    12    7    8 ar  
    13    7   22 1   
    14    8    9 1   
    15    8   10 ar  
    16    9   23 1   
    17   10   11 ar  
    18   10   24 1   
    19   11   21 1   
    20   12   13 1   
    21   13   14 ar  
    22   13   15 ar  
    23   14   18 ar  
    24   15   16 ar  
    25   15   25 1   
    26   16   17 ar  
    27   16   27 1   
    28   17   18 ar  
    29   17   28 1   
    30   18   26 1   
@<TRIPOS>SUBSTRUCTURE
     1 3F4         1 TEMP              0 ****  ****    0 ROOT
