@<TRIPOS>MOLECULE
3F4
   28    30     1     0     0
SMALL
bcc


@<TRIPOS>ATOM
      1 O1          0.0410   -0.7690   -0.0190 o         1 3F4     -0.624500
      2 C13         1.2470   -0.4670   -0.0690 c         1 3F4      0.708100
      3 N1          1.9820   -0.4180    1.1270 ns        1 3F4     -0.494400
      4 C6          3.3430   -0.0810    1.1230 cc        1 3F4      0.550500
      5 C3          4.0180   -0.0620    2.4480 ca        1 3F4     -0.188900
      6 C4          5.2700   -0.6700    2.5950 ca        1 3F4     -0.056500
      7 C5          5.9120   -0.6580    3.8300 ca        1 3F4     -0.192000
      8 C           5.2950   -0.0250    4.9200 ca        1 3F4      0.147100
      9 O           5.8640    0.0270    6.1680 oh        1 3F4     -0.491100
     10 C1          4.0420    0.5990    4.7770 ca        1 3F4     -0.192000
     11 C2          3.4130    0.5760    3.5390 ca        1 3F4     -0.056500
     12 N           4.0370    0.2070    0.0340 nd        1 3F4     -0.619100
     13 C7          3.3730    0.1780   -1.1990 ca        1 3F4      0.183400
     14 C8          1.9940   -0.1480   -1.2980 ca        1 3F4     -0.190600
     15 C12         4.0800    0.4820   -2.3900 ca        1 3F4     -0.124000
     16 C11         3.4240    0.4550   -3.6100 ca        1 3F4     -0.095000
     17 C10         2.0630    0.1310   -3.6930 ca        1 3F4     -0.154000
     18 C9          1.3490   -0.1700   -2.5420 ca        1 3F4     -0.059000
     19 H1          1.5300   -0.6390    1.9860 hn        1 3F4      0.338500
     20 H4          5.7540   -1.1570    1.7330 ha        1 3F4      0.149500
     21 H2          2.4400    1.0800    3.4230 ha        1 3F4      0.149500
     22 H5          6.8940   -1.1370    3.9490 ha        1 3F4      0.150000
     23 H           6.7230   -0.4210    6.1270 ho        1 3F4      0.424000
     24 HA          3.5830    1.0970    5.6430 ha        1 3F4      0.150000
     25 H12         5.1490    0.7390   -2.3370 ha        1 3F4      0.152000
     26 H9          0.2780   -0.4270   -2.5830 ha        1 3F4      0.158000
     27 H11         3.9790    0.6930   -4.5300 ha        1 3F4      0.137000
     28 H10         1.5630    0.1160   -4.6730 ha        1 3F4      0.140000
@<TRIPOS>BOND
     1    1    2 2   
     2    2    3 1   
     3    2   14 1   
     4    3    4 1   
     5    3   19 1   
     6    4    5 1   
     7    4   12 2   
     8    5    6 ar  
     9    5   11 ar  
    10    6    7 ar  
    11    6   20 1   
    12    7    8 ar  
    13    7   22 1   
    14    8    9 1   
    15    8   10 ar  
    16    9   23 1   
    17   10   11 ar  
    18   10   24 1   
    19   11   21 1   
    20   12   13 1   
    21   13   14 ar  
    22   13   15 ar  
    23   14   18 ar  
    24   15   16 ar  
    25   15   25 1   
    26   16   17 ar  
    27   16   27 1   
    28   17   18 ar  
    29   17   28 1   
    30   18   26 1   
@<TRIPOS>SUBSTRUCTURE
     1 3F4         1 TEMP              0 ****  ****    0 ROOT
