@<TRIPOS>MOLECULE
3F4
   28    24     1     0     0
SMALL
bcc


@<TRIPOS>ATOM
      1 O1         -3.5470   -0.0910   -0.9380 o         1 3F4     -0.349000
      2 C13        -2.3320   -0.0980   -0.9170 c1        1 3F4      0.345000
      3 N1         -1.6530   -0.0960    0.3100 n2        1 3F4     -0.334000
      4 C6         -0.2250   -0.0470    0.3350 c2        1 3F4      0.172000
      5 C3          0.5060   -0.0160    1.6580 c2        1 3F4     -0.105000
      6 C4          0.7990    1.1980    2.2600 c2        1 3F4     -0.037000
      7 C5          1.4760    1.2280    3.4690 c1        1 3F4     -0.222000
      8 C           1.8600    0.0430    4.0770 c1        1 3F4      0.102000
      9 O           2.5170    0.0710    5.3210 oh        1 3F4     -0.245000
     10 C1          1.5670   -1.1710    3.4760 c1        1 3F4     -0.162000
     11 C2          0.8910   -1.2010    2.2660 c1        1 3F4     -0.076000
     12 N           0.5200    0.0000   -0.9030 n1        1 3F4     -0.192000
     13 C7         -0.1840   -0.0020   -2.1800 c1        1 3F4      0.044000
     14 C8         -1.5560   -0.0490   -2.2070 c2        1 3F4     -0.170000
     15 C12         0.5420    0.0490   -3.3830 c1        1 3F4     -0.124000
     16 C11        -0.1290    0.0520   -4.5980 c1        1 3F4     -0.124500
     17 C10        -1.5170    0.0040   -4.6260 c1        1 3F4     -0.124500
     18 C9         -2.2340   -0.0460   -3.4380 c1        1 3F4     -0.059000
     19 H1         -2.1220   -0.1290    1.0910 hn        1 3F4      0.252000
     20 H4          0.5280    2.0330    1.8320 ha        1 3F4      0.156000
     21 H2          0.6840   -2.0550    1.8430 ha        1 3F4      0.143000
     22 H5          1.6820    2.0820    3.8920 ha        1 3F4      0.142000
     23 H           3.3930    0.1490    5.1920 ho        1 3F4      0.223000
     24 HA          1.8380   -2.0060    3.9040 ha        1 3F4      0.158000
     25 H12         1.5170    0.0830   -3.3640 ha        1 3F4      0.152000
     26 H9         -3.2090   -0.0790   -3.4580 ha        1 3F4      0.158000
     27 H11         0.3750    0.0870   -5.4330 ha        1 3F4      0.138500
     28 H10        -1.9880    0.0060   -5.4800 ha        1 3F4      0.138500
@<TRIPOS>BOND
     1    1    2 1   
     2    2   14 1   
     3    3    4 1   
     4    3   19 1   
     5    4    5 1   
     6    4   12 1   
     7    5    6 1   
     8    5   11 1   
     9    6    7 1   
    10    6   20 1   
    11    7   22 1   
    12    8    9 1   
    13    8   10 1   
    14    9   23 1   
    15   10   24 1   
    16   11   21 1   
    17   13   14 1   
    18   13   15 1   
    19   14   18 1   
    20   15   25 1   
    21   16   17 1   
    22   16   27 1   
    23   17   28 1   
    24   18   26 1   
@<TRIPOS>SUBSTRUCTURE
     1 3F4         1 TEMP              0 ****  ****    0 ROOT
