@<TRIPOS>MOLECULE
3F5
   45    47     1     0     0
SMALL
bcc


@<TRIPOS>ATOM
      1 N1         -0.2240   -3.2330    3.7400 nb        1 3F5     -0.771000
      2 C2          1.0840   -3.2970    4.0490 ca        1 3F5      0.712900
      3 N3          1.9530   -2.3070    4.3930 nb        1 3F5     -0.874000
      4 C4         -0.8270   -1.9840    3.7370 ca        1 3F5      0.788200
      5 N5          1.9080    0.1990    4.7020 na        1 3F5     -0.285000
      6 C6          0.8160    1.1350    4.5160 cc        1 3F5      0.544700
      7 N7         -0.3290    0.5180    4.1340 nd        1 3F5     -0.533100
      8 C8         -0.0200   -0.8420    4.0790 ca        1 3F5     -0.226200
      9 C9          1.3780   -1.0640    4.4230 ca        1 3F5      0.493800
     10 N10        -2.1380   -1.8420    3.4160 nh        1 3F5     -0.919500
     11 C11         3.1790    0.5970    5.2660 c3        1 3F5      0.245800
     12 O12         4.0800   -0.5150    5.3770 os        1 3F5     -0.466600
     13 C13         4.5840   -0.6530    6.7180 c3        1 3F5      0.085100
     14 C14         3.7920    0.2940    7.6420 c3        1 3F5      0.133100
     15 C15         3.0680    1.2610    6.6820 c3        1 3F5      0.087100
     16 C16         4.4540   -2.1100    7.1500 c3        1 3F5      0.098400
     17 O17         5.5780   -2.8030    6.5850 os        1 3F5     -0.411600
     18 O18         3.7890    2.4720    6.6480 oh        1 3F5     -0.591800
     19 O19         4.6210    0.9230    8.5780 oh        1 3F5     -0.562800
     20 N20         1.0240    2.5280    4.7530 nh        1 3F5     -0.767200
     21 C21         1.4910    3.2530    3.5900 c3        1 3F5      0.140100
     22 C22         5.3160   -4.1120    6.1480 c3        1 3F5      0.070400
     23 C23         4.9050   -4.1640    4.6850 c         1 3F5      0.505100
     24 O24         4.7540   -5.1840    4.0250 o         1 3F5     -0.429100
     25 N25         4.6600   -2.8730    3.9930 n4        1 3F5     -0.788400
     26 H2          1.5120   -4.3240    4.0230 h5        1 3F5      0.052100
     27 HN10       -2.5470   -0.9380    3.4220 hn        1 3F5      0.466800
     28 HN1A       -2.6940   -2.6290    3.1740 hn        1 3F5      0.466800
     29 H11         3.6660    1.3170    4.5370 h2        1 3F5      0.107700
     30 H13         5.6710   -0.3570    6.6800 h1        1 3F5      0.102700
     31 H14         3.0420   -0.2770    8.2590 h1        1 3F5      0.099700
     32 H15         2.0070    1.4180    7.0080 h1        1 3F5      0.095700
     33 H16         3.4840   -2.5510    6.8080 h1        1 3F5      0.079700
     34 H16A        4.5520   -2.1850    8.2670 h1        1 3F5      0.079700
     35 HO18        3.1540    3.1850    6.4980 ho        1 3F5      0.442000
     36 HO19        5.1120    1.6330    8.1360 ho        1 3F5      0.436000
     37 HN20        0.1720    2.9320    5.1120 hn        1 3F5      0.411800
     38 H21         0.7710    3.2330    2.7280 h1        1 3F5      0.055367
     39 H21A        1.6530    4.3190    3.9030 h1        1 3F5      0.055367
     40 H21B        2.4680    2.8220    3.2480 h1        1 3F5      0.055367
     41 H22         4.5220   -4.6300    6.7520 h1        1 3F5      0.126200
     42 H22A        6.2980   -4.6630    6.2450 h1        1 3F5      0.126200
     43 HN25        5.3010   -2.1540    4.3470 hn        1 3F5      0.487467
     44 HN2A        4.7540   -2.9690    2.9820 hn        1 3F5      0.487467
     45 H253        3.6580   -2.5410    4.2210 hn        1 3F5      0.487467
@<TRIPOS>BOND
     1    1    2 ar  
     2    1    4 ar  
     3    2    3 ar  
     4    2   26 1   
     5    3    9 ar  
     6    4    8 ar  
     7    4   10 1   
     8    5    6 1   
     9    5    9 1   
    10    5   11 1   
    11    6    7 2   
    12    6   20 1   
    13    7    8 1   
    14    8    9 ar  
    15   10   27 1   
    16   10   28 1   
    17   11   12 1   
    18   11   15 1   
    19   11   29 1   
    20   12   13 1   
    21   13   14 1   
    22   13   16 1   
    23   13   30 1   
    24   14   15 1   
    25   14   19 1   
    26   14   31 1   
    27   15   18 1   
    28   15   32 1   
    29   16   17 1   
    30   16   33 1   
    31   16   34 1   
    32   17   22 1   
    33   18   35 1   
    34   19   36 1   
    35   20   21 1   
    36   20   37 1   
    37   21   38 1   
    38   21   39 1   
    39   21   40 1   
    40   22   23 1   
    41   22   41 1   
    42   22   42 1   
    43   23   24 2   
    44   23   25 1   
    45   25   43 1   
    46   25   44 1   
    47   25   45 1   
@<TRIPOS>SUBSTRUCTURE
     1 3F5         1 TEMP              0 ****  ****    0 ROOT
