@<TRIPOS>MOLECULE
3F5
   44    46     1     0     0
SMALL
bcc


@<TRIPOS>ATOM
      1 N1         -4.5630    1.2020    1.8660 nb        1 3F5     -0.786000
      2 C2         -3.7250    0.3220    2.4730 ca        1 3F5      0.681900
      3 N3         -2.5960   -0.2690    2.0110 nb        1 3F5     -0.729000
      4 C4         -4.2640    1.5790    0.5760 ca        1 3F5      0.748200
      5 N5         -1.2290   -0.2770   -0.1010 na        1 3F5     -0.283000
      6 C6         -1.3990    0.4710   -1.3240 cc        1 3F5      0.579700
      7 N7         -2.5090    1.2600   -1.3030 nd        1 3F5     -0.578100
      8 C8         -3.0840    1.0460   -0.0430 ca        1 3F5     -0.209200
      9 C9         -2.2900    0.1110    0.7360 ca        1 3F5      0.472800
     10 N10        -5.0950    2.4190   -0.1230 nh        1 3F5     -0.953500
     11 C11        -0.1380   -1.1330    0.2590 c3        1 3F5      0.260800
     12 O12         1.1050   -0.4020    0.1250 os        1 3F5     -0.438600
     13 C13         2.1330   -1.2580   -0.3900 c3        1 3F5      0.067100
     14 C14         1.4450   -2.4060   -1.1520 c3        1 3F5      0.089100
     15 C15        -0.0080   -2.4130   -0.6280 c3        1 3F5      0.071100
     16 C16         3.0650   -0.4320   -1.2740 c3        1 3F5      0.136400
     17 O17         4.0810    0.1990   -0.5110 os        1 3F5     -0.425600
     18 O18        -0.2050   -3.5140    0.2390 oh        1 3F5     -0.589800
     19 O19         2.0820   -3.6440   -0.9490 oh        1 3F5     -0.583800
     20 N20        -0.5080    0.2710   -2.4070 nh        1 3F5     -0.764200
     21 C21        -0.7370    1.0870   -3.5730 c3        1 3F5      0.166100
     22 C22         3.6190    1.3400    0.2110 c3        1 3F5      0.046400
     23 C23         4.7570    1.9040    1.0550 c         1 3F5      0.657100
     24 O24         4.7510    3.1160    1.3530 o         1 3F5     -0.614100
     25 N25         5.7290    1.0650    1.5310 n         1 3F5     -0.654000
     26 H2         -4.0120    0.0470    3.5110 h5        1 3F5      0.054100
     27 HN10       -5.8410    2.8760    0.3410 hn        1 3F5      0.443800
     28 HN1A       -4.7740    2.7800   -0.9880 hn        1 3F5      0.443800
     29 H11        -0.2450   -1.4220    1.3490 h2        1 3F5      0.129700
     30 H13         2.7090   -1.6600    0.4900 h1        1 3F5      0.078700
     31 H14         1.4770   -2.2440   -2.2630 h1        1 3F5      0.097700
     32 H15        -0.7450   -2.4310   -1.4720 h1        1 3F5      0.088700
     33 H16         3.6350   -1.1210   -1.9570 h1        1 3F5      0.064200
     34 H16A        2.4930    0.3250   -1.8690 h1        1 3F5      0.064200
     35 HO18       -0.3100   -4.2940   -0.3210 ho        1 3F5      0.422000
     36 HO19        2.0150   -3.8600   -0.0060 ho        1 3F5      0.419000
     37 HN20        0.4460    0.3100   -2.0870 hn        1 3F5      0.396800
     38 H21         0.0150    0.7830   -4.3490 h1        1 3F5      0.050033
     39 H21A       -1.7690    0.8900   -3.9670 h1        1 3F5      0.050033
     40 H21B       -0.6360    2.1880   -3.3760 h1        1 3F5      0.050033
     41 H22         3.2820    2.1320   -0.5100 h1        1 3F5      0.075200
     42 H22A        2.7680    1.0530    0.8860 h1        1 3F5      0.075200
     43 HN25        5.8010    0.1440    1.1770 hn        1 3F5      0.315500
     44 HN2A        6.4930    1.4450    2.0320 hn        1 3F5      0.315500
@<TRIPOS>BOND
     1    1    2 ar  
     2    1    4 ar  
     3    2    3 ar  
     4    2   26 1   
     5    3    9 ar  
     6    4    8 ar  
     7    4   10 1   
     8    5    6 1   
     9    5    9 1   
    10    5   11 1   
    11    6    7 2   
    12    6   20 1   
    13    7    8 1   
    14    8    9 ar  
    15   10   27 1   
    16   10   28 1   
    17   11   12 1   
    18   11   15 1   
    19   11   29 1   
    20   12   13 1   
    21   13   14 1   
    22   13   16 1   
    23   13   30 1   
    24   14   15 1   
    25   14   19 1   
    26   14   31 1   
    27   15   18 1   
    28   15   32 1   
    29   16   17 1   
    30   16   33 1   
    31   16   34 1   
    32   17   22 1   
    33   18   35 1   
    34   19   36 1   
    35   20   21 1   
    36   20   37 1   
    37   21   38 1   
    38   21   39 1   
    39   21   40 1   
    40   22   23 1   
    41   22   41 1   
    42   22   42 1   
    43   23   24 2   
    44   23   25 1   
    45   25   43 1   
    46   25   44 1   
@<TRIPOS>SUBSTRUCTURE
     1 3F5         1 TEMP              0 ****  ****    0 ROOT
