@<TRIPOS>MOLECULE
3F5
   44    41     1     0     0
SMALL
bcc


@<TRIPOS>ATOM
      1 N1         -3.1490    0.0930   -4.7760 n1        1 3F5     -0.262000
      2 C2         -1.7860   -0.1650   -4.7360 c1        1 3F5      0.018000
      3 N3         -1.0940   -0.0350   -3.5510 n1        1 3F5     -0.202000
      4 C4         -3.7870    0.4640   -3.6780 c1        1 3F5      0.229000
      5 N5         -1.3050    0.6530   -1.1480 n2        1 3F5     -0.176500
      6 C6         -2.3570    1.0870   -0.4240 c1        1 3F5      0.099000
      7 N7         -3.4460    1.0590   -1.2120 n2        1 3F5     -0.176500
      8 C8         -3.0680    0.6000   -2.4440 c1        1 3F5     -0.070000
      9 C9         -1.7540    0.3510   -2.4050 c1        1 3F5     -0.070000
     10 N10        -5.1770    0.4310   -4.1240 n3        1 3F5     -0.353000
     11 C11         0.1140    0.4940   -0.9830 c2        1 3F5      0.172000
     12 O12         0.4260   -0.7720   -0.0500 os        1 3F5     -0.285000
     13 C13         1.6110   -0.5700    0.4490 c3        1 3F5     -0.006000
     14 C14         1.7800    0.9580    0.4750 c3        1 3F5     -0.021000
     15 C15         0.6120    1.5220   -0.3780 c3        1 3F5     -0.041000
     16 C16         1.6990   -1.1430    1.8950 c3        1 3F5     -0.026000
     17 O17         2.6730   -2.1860    1.9330 os        1 3F5     -0.284000
     18 O18         1.1220    2.4950   -1.3650 oh        1 3F5     -0.315000
     19 O19         2.9720    1.3110   -0.0680 oh        1 3F5     -0.311000
     20 N20        -2.7000    1.3810    0.9620 n2        1 3F5     -0.249000
     21 C21        -4.0830    1.6520    1.3290 c3        1 3F5     -0.111000
     22 C22         3.2950   -2.3640    3.2320 c3        1 3F5     -0.045000
     23 C23         4.6400   -3.1260    3.0660 c2        1 3F5      0.301000
     24 O24         4.8580   -3.7620    2.0500 o         1 3F5     -0.376000
     25 N25         5.6940   -3.0130    4.1150 n         1 3F5     -0.412000
     26 H2         -1.3240   -0.4340   -5.5340 ha        1 3F5      0.190000
     27 HN10       -5.7340    1.0830   -3.8860 hn        1 3F5      0.240000
     28 HN1A       -5.4610   -0.2330   -4.7180 hn        1 3F5      0.240000
     29 H11         0.5540    0.3790   -1.8780 h4        1 3F5      0.171000
     30 H13         2.2880   -0.9730   -0.1160 h1        1 3F5      0.130000
     31 H14         1.7170    1.2790    1.3710 h1        1 3F5      0.140000
     32 H15        -0.0700    1.9460    0.2100 h1        1 3F5      0.124000
     33 H16         1.9740   -0.3930    2.5450 h1        1 3F5      0.085500
     34 H16A        0.8030   -1.5100    2.1660 h1        1 3F5      0.085500
     35 HO18        1.0400    3.3480   -1.0280 ho        1 3F5      0.222000
     36 HO19        3.4180    1.8100    0.5040 ho        1 3F5      0.217000
     37 HN20       -2.0150    1.4120    1.6270 hn        1 3F5      0.193000
     38 H21        -4.1980    1.5080    2.2810 h1        1 3F5      0.088333
     39 H21A       -4.3030    2.5820    1.1100 h1        1 3F5      0.088333
     40 H21B       -4.6760    1.0510    0.8340 h1        1 3F5      0.088333
     41 H22         3.4710   -1.4560    3.6500 h1        1 3F5      0.103500
     42 H22A        2.6950   -2.8830    3.8160 h1        1 3F5      0.103500
     43 HN25        6.5040   -3.4010    3.9880 hn        1 3F5      0.232500
     44 HN2A        5.5280   -2.5290    4.8930 hn        1 3F5      0.232500
@<TRIPOS>BOND
     1    1    4 1   
     2    2    3 1   
     3    2   26 1   
     4    4   10 1   
     5    5    6 1   
     6    5    9 1   
     7    6    7 1   
     8    7    8 1   
     9    8    9 1   
    10   10   27 1   
    11   10   28 1   
    12   11   12 1   
    13   11   15 1   
    14   11   29 1   
    15   12   13 1   
    16   13   14 1   
    17   13   16 1   
    18   13   30 1   
    19   14   15 1   
    20   14   19 1   
    21   14   31 1   
    22   15   18 1   
    23   15   32 1   
    24   16   17 1   
    25   16   33 1   
    26   16   34 1   
    27   17   22 1   
    28   18   35 1   
    29   19   36 1   
    30   20   21 1   
    31   20   37 1   
    32   21   38 1   
    33   21   39 1   
    34   21   40 1   
    35   22   23 1   
    36   22   41 1   
    37   22   42 1   
    38   23   24 1   
    39   23   25 1   
    40   25   43 1   
    41   25   44 1   
@<TRIPOS>SUBSTRUCTURE
     1 3F5         1 TEMP              0 ****  ****    0 ROOT
