@<TRIPOS>MOLECULE
3F5
   47    49     1     0     0
SMALL
bcc


@<TRIPOS>ATOM
      1 N1          0.3650    2.1250    0.5810 nb        1 3F5     -0.637000
      2 C2          1.6760    1.7200    0.7380 ca        1 3F5      0.725900
      3 N3          2.1990    0.9640    1.7220 nb        1 3F5     -0.602000
      4 C4         -0.5220    1.7320    1.5070 ca        1 3F5      0.587200
      5 N5          1.4520   -0.2350    3.8110 na        1 3F5     -0.225000
      6 C6          0.1400   -0.3350    4.3720 cc        1 3F5      0.472700
      7 N7         -0.8140    0.3600    3.6850 nd        1 3F5     -0.491100
      8 C8         -0.1300    0.9210    2.6120 ca        1 3F5     -0.172200
      9 C9          1.2950    0.5580    2.6630 ca        1 3F5      0.490800
     10 N10        -1.9310    2.1460    1.3700 n4        1 3F5     -0.828300
     11 C11         2.6160   -1.0430    4.1650 c3        1 3F5      0.199800
     12 O12         2.6440   -1.2140    5.5920 os        1 3F5     -0.483600
     13 C13         4.0100   -1.2800    6.0660 c3        1 3F5      0.124100
     14 C14         4.9160   -0.7000    4.9640 c3        1 3F5      0.087100
     15 C15         4.0070   -0.4670    3.7340 c3        1 3F5      0.107100
     16 C16         4.1070   -0.5180    7.3860 c3        1 3F5      0.112400
     17 O17         3.8780   -1.4270    8.4690 os        1 3F5     -0.383600
     18 O18         4.4490   -1.1080    2.5760 oh        1 3F5     -0.543800
     19 O19         5.8880   -1.6830    4.6810 oh        1 3F5     -0.588800
     20 N20        -0.1410   -1.0890    5.6020 n4        1 3F5     -0.679000
     21 C21        -1.4850   -1.7330    5.5950 c3        1 3F5      0.091100
     22 C22         4.9520   -1.6490    9.3510 c3        1 3F5      0.079400
     23 C23         5.6430   -2.9540    8.9760 c         1 3F5      0.500100
     24 O24         5.5410   -3.5820    7.9370 o         1 3F5     -0.379100
     25 N25         6.5530   -3.5590   10.0200 n4        1 3F5     -0.760400
     26 H2          2.3800    2.0700   -0.0640 h5        1 3F5      0.137100
     27 HN10       -2.2190    2.6520    2.2190 hn        1 3F5      0.495133
     28 HN1A       -2.5190    1.3080    1.2530 hn        1 3F5      0.495133
     29 H11         2.4580   -2.0690    3.7010 h2        1 3F5      0.112700
     30 H13         4.2360   -2.3760    6.2280 h1        1 3F5      0.122700
     31 H14         5.3980    0.2660    5.2750 h1        1 3F5      0.089700
     32 H15         3.9700    0.6270    3.4800 h1        1 3F5      0.129700
     33 H16         5.1010   -0.0070    7.4710 h1        1 3F5      0.087200
     34 H16A        3.2810    0.2400    7.4750 h1        1 3F5      0.087200
     35 HO18        4.7830   -1.9920    2.8060 ho        1 3F5      0.437000
     36 HO19        6.5750   -1.2730    4.1340 ho        1 3F5      0.454000
     37 HN20       -0.0730   -0.4260    6.3920 hn        1 3F5      0.488800
     38 H21        -2.2900   -0.9480    5.5880 hx        1 3F5      0.128033
     39 H21A       -1.5880   -2.3890    4.6880 hx        1 3F5      0.128033
     40 H21B       -1.5700   -2.3540    6.5310 hx        1 3F5      0.128033
     41 H22         5.7100   -0.8190    9.3530 h1        1 3F5      0.122200
     42 H22A        4.4720   -1.7490   10.3680 h1        1 3F5      0.122200
     43 HN25        7.2810   -2.8890   10.2950 hn        1 3F5      0.482133
     44 HN2A        7.0080   -4.4070    9.6470 hn        1 3F5      0.482133
     45 H103       -2.0590    2.7640    0.5470 hn        1 3F5      0.495133
     46 H202        0.5890   -1.8150    5.7280 hn        1 3F5      0.488800
     47 H253        6.0130   -3.8190   10.8540 hn        1 3F5      0.482133
@<TRIPOS>BOND
     1    1    2 ar  
     2    1    4 ar  
     3    2    3 ar  
     4    2   26 1   
     5    3    9 ar  
     6    4    8 ar  
     7    4   10 1   
     8    5    6 1   
     9    5    9 1   
    10    5   11 1   
    11    6    7 2   
    12    6   20 1   
    13    7    8 1   
    14    8    9 ar  
    15   10   27 1   
    16   10   28 1   
    17   10   45 1   
    18   11   12 1   
    19   11   15 1   
    20   11   29 1   
    21   12   13 1   
    22   13   14 1   
    23   13   16 1   
    24   13   30 1   
    25   14   15 1   
    26   14   19 1   
    27   14   31 1   
    28   15   18 1   
    29   15   32 1   
    30   16   17 1   
    31   16   33 1   
    32   16   34 1   
    33   17   22 1   
    34   18   35 1   
    35   19   36 1   
    36   20   21 1   
    37   20   37 1   
    38   20   46 1   
    39   21   38 1   
    40   21   39 1   
    41   21   40 1   
    42   22   23 1   
    43   22   41 1   
    44   22   42 1   
    45   23   24 2   
    46   23   25 1   
    47   25   43 1   
    48   25   44 1   
    49   25   47 1   
@<TRIPOS>SUBSTRUCTURE
     1 3F5         1 TEMP              0 ****  ****    0 ROOT
