@<TRIPOS>MOLECULE
3F5
   45    47     1     0     0
SMALL
bcc


@<TRIPOS>ATOM
      1 N1         -0.1400   -3.2300    3.5810 nb        1 3F5     -0.771000
      2 C2          1.1540   -3.2880    3.9440 ca        1 3F5      0.712900
      3 N3          2.0010   -2.2970    4.3390 nb        1 3F5     -0.874000
      4 C4         -0.7520   -1.9850    3.5730 ca        1 3F5      0.788200
      5 N5          1.9230    0.2020    4.6860 na        1 3F5     -0.285000
      6 C6          0.8320    1.1330    4.4710 cc        1 3F5      0.544700
      7 N7         -0.2910    0.5130    4.0320 nd        1 3F5     -0.533100
      8 C8          0.0300   -0.8430    3.9670 ca        1 3F5     -0.226200
      9 C9          1.4150   -1.0600    4.3660 ca        1 3F5      0.493800
     10 N10        -2.0500   -1.8480    3.2010 nv        1 3F5     -0.919500
     11 C11         3.1660    0.6010    5.3090 c3        1 3F5      0.245800
     12 O12         4.0710   -0.5070    5.4390 os        1 3F5     -0.466600
     13 C13         4.5190   -0.6620    6.7980 c3        1 3F5      0.085100
     14 C14         3.6830    0.2630    7.7030 c3        1 3F5      0.133100
     15 C15         2.9900    1.2400    6.7300 c3        1 3F5      0.087100
     16 C16         4.3840   -2.1270    7.2000 c3        1 3F5      0.098400
     17 O17         5.5370   -2.8020    6.6710 os        1 3F5     -0.411600
     18 O18         3.7020    2.4570    6.7450 oh        1 3F5     -0.591800
     19 O19         4.4670    0.8830    8.6830 oh        1 3F5     -0.562800
     20 N20         1.0180    2.5230    4.7380 nu        1 3F5     -0.767200
     21 C21         1.5270    3.2710    3.6070 c3        1 3F5      0.140100
     22 C22         5.3030   -4.1060    6.2020 c3        1 3F5      0.070400
     23 C23         4.9530   -4.1370    4.7230 c         1 3F5      0.505100
     24 O24         4.8380   -5.1480    4.0420 o         1 3F5     -0.429100
     25 N25         4.7260   -2.8370    4.0430 nz        1 3F5     -0.788400
     26 H2          1.5910   -4.3120    3.9190 h5        1 3F5      0.052100
     27 HN10       -2.5890   -2.6350    2.9240 hn        1 3F5      0.466800
     28 HN1A       -2.4660   -0.9470    3.2040 hn        1 3F5      0.466800
     29 H11         3.6760    1.3370    4.6120 h2        1 3F5      0.107700
     30 H13         5.6050   -0.3580    6.8090 h1        1 3F5      0.102700
     31 H14         2.9130   -0.3230    8.2790 h1        1 3F5      0.099700
     32 H15         1.9170    1.3840    7.0140 h1        1 3F5      0.095700
     33 H16         3.4330   -2.5700    6.8120 h1        1 3F5      0.079700
     34 H16A        4.4370   -2.2200    8.3190 h1        1 3F5      0.079700
     35 HO18        3.0680    3.1680    6.5800 ho        1 3F5      0.442000
     36 HO19        4.9690    1.6040    8.2730 ho        1 3F5      0.436000
     37 HN20        0.1490    2.9140    5.0690 hn        1 3F5      0.411800
     38 H21         1.6670    4.3330    3.9440 h1        1 3F5      0.055367
     39 H21A        0.8430    3.2600    2.7160 h1        1 3F5      0.055367
     40 H21B        2.5210    2.8520    3.2990 h1        1 3F5      0.055367
     41 H22         6.2850   -4.6510    6.3310 h1        1 3F5      0.126200
     42 H22A        4.4890   -4.6400    6.7640 h1        1 3F5      0.126200
     43 HN25        5.3470   -2.1190    4.4340 hn        1 3F5      0.487467
     44 HN2A        4.8630   -2.9150    3.0340 hn        1 3F5      0.487467
     45 H253        3.7130   -2.5160    4.2350 hn        1 3F5      0.487467
@<TRIPOS>BOND
     1    1    2 ar  
     2    1    4 ar  
     3    2    3 ar  
     4    2   26 1   
     5    3    9 ar  
     6    4    8 ar  
     7    4   10 1   
     8    5    6 1   
     9    5    9 1   
    10    5   11 1   
    11    6    7 2   
    12    6   20 1   
    13    7    8 1   
    14    8    9 ar  
    15   10   27 1   
    16   10   28 1   
    17   11   12 1   
    18   11   15 1   
    19   11   29 1   
    20   12   13 1   
    21   13   14 1   
    22   13   16 1   
    23   13   30 1   
    24   14   15 1   
    25   14   19 1   
    26   14   31 1   
    27   15   18 1   
    28   15   32 1   
    29   16   17 1   
    30   16   33 1   
    31   16   34 1   
    32   17   22 1   
    33   18   35 1   
    34   19   36 1   
    35   20   21 1   
    36   20   37 1   
    37   21   38 1   
    38   21   39 1   
    39   21   40 1   
    40   22   23 1   
    41   22   41 1   
    42   22   42 1   
    43   23   24 2   
    44   23   25 1   
    45   25   43 1   
    46   25   44 1   
    47   25   45 1   
@<TRIPOS>SUBSTRUCTURE
     1 3F5         1 TEMP              0 ****  ****    0 ROOT
