@<TRIPOS>MOLECULE
3F6
   64    70     1     0     0
SMALL
bcc


@<TRIPOS>ATOM
      1 NAU        -0.2180   -0.2020    0.0390 nh        1 3F6     -0.840200
      2 CAQ         1.0820   -0.7660    0.3210 c3        1 3F6      0.183800
      3 CAM         1.7060   -0.3280    1.6460 c3        1 3F6     -0.131400
      4 CAO         1.4780    1.1660    1.8750 c3        1 3F6      0.109800
      5 NAS         0.1580    1.6470    1.5710 n2        1 3F6     -0.642900
      6 CAY        -0.6030    0.9580    0.7620 ce        1 3F6      0.633800
      7 CBA        -1.9970    1.4260    0.4940 ca        1 3F6     -0.115900
      8 CAI        -2.7980    1.8060    1.5640 ca        1 3F6     -0.105000
      9 CAE        -2.4650    1.4800   -0.8380 ca        1 3F6     -0.135000
     10 CAG        -3.7510    1.9030   -1.1290 ca        1 3F6     -0.090000
     11 CBG        -4.5960    2.2820   -0.0830 ca        1 3F6     -0.087800
     12 CAK        -5.9540    2.7570   -0.0110 cc        1 3F6     -0.168200
     13 CBI        -4.1040    2.2360    1.2760 ca        1 3F6     -0.047200
     14 NAW        -5.1200    2.6770    2.1230 na        1 3F6     -0.183400
     15 CBE        -6.2470    2.9860    1.3390 cd        1 3F6     -0.007300
     16 CBC        -7.4950    3.4710    1.9030 ca        1 3F6     -0.030800
     17 CAB        -8.7020    3.1890    1.2440 ca        1 3F6     -0.115500
     18 CAD        -9.9090    3.6530    1.7550 ca        1 3F6     -0.115500
     19 CAA        -7.5240    4.2240    3.0850 ca        1 3F6     -0.115500
     20 CAC        -8.7330    4.6860    3.5980 ca        1 3F6     -0.115500
     21 CBD        -9.9380    4.4060    2.9390 ca        1 3F6     -0.030800
     22 CBF       -11.2140    4.8660    3.4580 cc        1 3F6     -0.007300
     23 CAL       -12.4660    4.2530    3.3080 cd        1 3F6     -0.168200
     24 NAX       -11.3550    6.0410    4.2170 na        1 3F6     -0.183400
     25 CBJ       -12.7020    6.1920    4.5480 ca        1 3F6     -0.047200
     26 CAJ       -13.3540    7.1960    5.2820 ca        1 3F6     -0.105000
     27 CBH       -13.4310    5.0720    3.9940 ca        1 3F6     -0.087800
     28 CAH       -14.8090    4.9830    4.2060 ca        1 3F6     -0.090000
     29 CAF       -15.4460    5.9760    4.9310 ca        1 3F6     -0.135000
     30 CBB       -14.7280    7.0730    5.4570 ca        1 3F6     -0.115900
     31 CAZ       -15.4580    8.1250    6.2280 ce        1 3F6      0.633800
     32 NAT       -14.9710    8.5310    7.3720 n2        1 3F6     -0.642900
     33 CAP       -15.6410    9.5840    8.0850 c3        1 3F6      0.109800
     34 CAN       -16.5530   10.4770    7.2450 c3        1 3F6     -0.131400
     35 CAR       -17.3890    9.6320    6.2840 c3        1 3F6      0.183800
     36 NAV       -16.6790    8.5500    5.6420 nh        1 3F6     -0.840200
     37 H1         -0.9510   -0.8680   -0.0720 hn        1 3F6      0.406800
     38 H2          1.7640   -0.4420   -0.5190 h1        1 3F6      0.046200
     39 H3          1.0220   -1.8900    0.2950 h1        1 3F6      0.046200
     40 H4          1.2570   -0.9120    2.4890 hc        1 3F6      0.051200
     41 H5          2.8020   -0.5460    1.6240 hc        1 3F6      0.051200
     42 H6          2.2200    1.7520    1.2600 h1        1 3F6      0.059200
     43 H7          1.6680    1.4100    2.9580 h1        1 3F6      0.059200
     44 H8         -2.4220    1.7840    2.5960 ha        1 3F6      0.149000
     45 H9         -1.7890    1.1930   -1.6580 ha        1 3F6      0.145000
     46 H10        -4.1080    1.9460   -2.1680 ha        1 3F6      0.137000
     47 H11        -6.6200    2.9200   -0.8530 ha        1 3F6      0.158000
     48 H12        -5.0790    2.7170    3.1050 hn        1 3F6      0.301700
     49 H13        -8.6880    2.5960    0.3170 ha        1 3F6      0.138500
     50 H14       -10.8500    3.4300    1.2290 ha        1 3F6      0.138500
     51 H15        -6.5900    4.4710    3.6120 ha        1 3F6      0.138500
     52 H16        -8.7310    5.2630    4.5350 ha        1 3F6      0.138500
     53 H17       -12.6710    3.3240    2.7850 ha        1 3F6      0.158000
     54 H18       -10.6320    6.6730    4.4320 hn        1 3F6      0.301700
     55 H19       -12.7960    8.0390    5.7120 ha        1 3F6      0.149000
     56 H20       -15.3740    4.1300    3.8030 ha        1 3F6      0.137000
     57 H21       -16.5300    5.9050    5.1130 ha        1 3F6      0.145000
     58 H22       -14.8360   10.2140    8.5590 h1        1 3F6      0.059200
     59 H23       -16.2440    9.1200    8.9180 h1        1 3F6      0.059200
     60 H24       -17.2370   11.0580    7.9120 hc        1 3F6      0.051200
     61 H25       -15.9340   11.2110    6.6660 hc        1 3F6      0.051200
     62 H26       -17.8440   10.3030    5.5030 h1        1 3F6      0.046200
     63 H27       -18.2360    9.1630    6.8650 h1        1 3F6      0.046200
     64 H28       -16.6530    8.5950    4.6460 hn        1 3F6      0.406800
@<TRIPOS>BOND
     1    1    2 1   
     2    1    6 1   
     3    1   37 1   
     4    2    3 1   
     5    2   38 1   
     6    2   39 1   
     7    3    4 1   
     8    3   40 1   
     9    3   41 1   
    10    4    5 1   
    11    4   42 1   
    12    4   43 1   
    13    5    6 2   
    14    6    7 1   
    15    7    8 ar  
    16    7    9 ar  
    17    8   13 ar  
    18    8   44 1   
    19    9   10 ar  
    20    9   45 1   
    21   10   11 ar  
    22   10   46 1   
    23   11   12 1   
    24   11   13 ar  
    25   12   15 2   
    26   12   47 1   
    27   13   14 1   
    28   14   15 1   
    29   14   48 1   
    30   15   16 1   
    31   16   17 ar  
    32   16   19 ar  
    33   17   18 ar  
    34   17   49 1   
    35   18   21 ar  
    36   18   50 1   
    37   19   20 ar  
    38   19   51 1   
    39   20   21 ar  
    40   20   52 1   
    41   21   22 1   
    42   22   23 2   
    43   22   24 1   
    44   23   27 1   
    45   23   53 1   
    46   24   25 1   
    47   24   54 1   
    48   25   26 ar  
    49   25   27 ar  
    50   26   30 ar  
    51   26   55 1   
    52   27   28 ar  
    53   28   29 ar  
    54   28   56 1   
    55   29   30 ar  
    56   29   57 1   
    57   30   31 1   
    58   31   32 2   
    59   31   36 1   
    60   32   33 1   
    61   33   34 1   
    62   33   58 1   
    63   33   59 1   
    64   34   35 1   
    65   34   60 1   
    66   34   61 1   
    67   35   36 1   
    68   35   62 1   
    69   35   63 1   
    70   36   64 1   
@<TRIPOS>SUBSTRUCTURE
     1 3F6         1 TEMP              0 ****  ****    0 ROOT
