@<TRIPOS>MOLECULE
3F6
   64    70     1     0     0
SMALL
bcc


@<TRIPOS>ATOM
      1 NAU        -0.2180   -0.2040    0.0420 nu        1 3F6     -0.840200
      2 CAQ         1.0810   -0.7690    0.3240 c3        1 3F6      0.183800
      3 CAM         1.7040   -0.3330    1.6500 c3        1 3F6     -0.131400
      4 CAO         1.4760    1.1610    1.8810 c3        1 3F6      0.109800
      5 NAS         0.1570    1.6430    1.5760 n2        1 3F6     -0.642900
      6 CAY        -0.6030    0.9550    0.7650 ce        1 3F6      0.633800
      7 CBA        -1.9970    1.4240    0.4970 ca        1 3F6     -0.115900
      8 CAI        -2.7990    1.8040    1.5660 ca        1 3F6     -0.105000
      9 CAE        -2.4640    1.4790   -0.8360 ca        1 3F6     -0.135000
     10 CAG        -3.7500    1.9030   -1.1270 ca        1 3F6     -0.090000
     11 CBG        -4.5960    2.2820   -0.0820 ca        1 3F6     -0.087800
     12 CAK        -5.9530    2.7570   -0.0110 cc        1 3F6     -0.168200
     13 CBI        -4.1040    2.2340    1.2780 ca        1 3F6     -0.047200
     14 NAW        -5.1210    2.6750    2.1240 na        1 3F6     -0.183400
     15 CBE        -6.2470    2.9860    1.3400 cd        1 3F6     -0.007300
     16 CBC        -7.4950    3.4710    1.9030 ca        1 3F6     -0.030800
     17 CAB        -8.7010    3.1910    1.2430 ca        1 3F6     -0.115500
     18 CAD        -9.9080    3.6550    1.7530 ca        1 3F6     -0.115500
     19 CAA        -7.5240    4.2240    3.0850 ca        1 3F6     -0.115500
     20 CAC        -8.7330    4.6860    3.5980 ca        1 3F6     -0.115500
     21 CBD        -9.9380    4.4070    2.9370 ca        1 3F6     -0.030800
     22 CBF       -11.2140    4.8670    3.4560 cc        1 3F6     -0.007300
     23 CAL       -12.4660    4.2550    3.3050 cd        1 3F6     -0.168200
     24 NAX       -11.3550    6.0420    4.2160 na        1 3F6     -0.183400
     25 CBJ       -12.7020    6.1940    4.5460 ca        1 3F6     -0.047200
     26 CAJ       -13.3540    7.1970    5.2800 ca        1 3F6     -0.105000
     27 CBH       -13.4310    5.0750    3.9910 ca        1 3F6     -0.087800
     28 CAH       -14.8100    4.9860    4.2010 ca        1 3F6     -0.090000
     29 CAF       -15.4470    5.9790    4.9260 ca        1 3F6     -0.135000
     30 CBB       -14.7280    7.0750    5.4540 ca        1 3F6     -0.115900
     31 CAZ       -15.4570    8.1270    6.2260 ce        1 3F6      0.633800
     32 NAT       -14.9710    8.5330    7.3700 n2        1 3F6     -0.642900
     33 CAP       -15.6410    9.5850    8.0830 c3        1 3F6      0.109800
     34 CAN       -16.5520   10.4790    7.2430 c3        1 3F6     -0.131400
     35 CAR       -17.3880    9.6350    6.2820 c3        1 3F6      0.183800
     36 NAV       -16.6780    8.5530    5.6390 nu        1 3F6     -0.840200
     37 H1         -0.9510   -0.8700   -0.0700 hn        1 3F6      0.406800
     38 H2          1.7650   -0.4450   -0.5150 h1        1 3F6      0.046200
     39 H3          1.0210   -1.8930    0.2970 h1        1 3F6      0.046200
     40 H4          2.8010   -0.5520    1.6300 hc        1 3F6      0.051200
     41 H5          1.2540   -0.9180    2.4930 hc        1 3F6      0.051200
     42 H6          2.2190    1.7480    1.2670 h1        1 3F6      0.059200
     43 H7          1.6660    1.4040    2.9640 h1        1 3F6      0.059200
     44 H8         -2.4240    1.7800    2.5990 ha        1 3F6      0.149000
     45 H9         -1.7870    1.1920   -1.6550 ha        1 3F6      0.145000
     46 H10        -4.1060    1.9470   -2.1670 ha        1 3F6      0.137000
     47 H11        -6.6190    2.9210   -0.8530 ha        1 3F6      0.158000
     48 H12        -5.0800    2.7140    3.1070 hn        1 3F6      0.301700
     49 H13        -8.6880    2.5980    0.3150 ha        1 3F6      0.138500
     50 H14       -10.8500    3.4330    1.2260 ha        1 3F6      0.138500
     51 H15        -6.5910    4.4690    3.6140 ha        1 3F6      0.138500
     52 H16        -8.7310    5.2620    4.5350 ha        1 3F6      0.138500
     53 H17       -12.6720    3.3270    2.7810 ha        1 3F6      0.158000
     54 H18       -10.6320    6.6740    4.4320 hn        1 3F6      0.301700
     55 H19       -12.7960    8.0400    5.7110 ha        1 3F6      0.149000
     56 H20       -15.3740    4.1340    3.7970 ha        1 3F6      0.137000
     57 H21       -16.5300    5.9090    5.1090 ha        1 3F6      0.145000
     58 H22       -14.8360   10.2150    8.5580 h1        1 3F6      0.059200
     59 H23       -16.2440    9.1210    8.9160 h1        1 3F6      0.059200
     60 H24       -17.2360   11.0600    7.9100 hc        1 3F6      0.051200
     61 H25       -15.9330   11.2130    6.6650 hc        1 3F6      0.051200
     62 H26       -17.8430   10.3070    5.5010 h1        1 3F6      0.046200
     63 H27       -18.2360    9.1660    6.8620 h1        1 3F6      0.046200
     64 H28       -16.6520    8.5990    4.6440 hn        1 3F6      0.406800
@<TRIPOS>BOND
     1    1    2 1   
     2    1    6 1   
     3    1   37 1   
     4    2    3 1   
     5    2   38 1   
     6    2   39 1   
     7    3    4 1   
     8    3   40 1   
     9    3   41 1   
    10    4    5 1   
    11    4   42 1   
    12    4   43 1   
    13    5    6 2   
    14    6    7 1   
    15    7    8 ar  
    16    7    9 ar  
    17    8   13 ar  
    18    8   44 1   
    19    9   10 ar  
    20    9   45 1   
    21   10   11 ar  
    22   10   46 1   
    23   11   12 1   
    24   11   13 ar  
    25   12   15 2   
    26   12   47 1   
    27   13   14 1   
    28   14   15 1   
    29   14   48 1   
    30   15   16 1   
    31   16   17 ar  
    32   16   19 ar  
    33   17   18 ar  
    34   17   49 1   
    35   18   21 ar  
    36   18   50 1   
    37   19   20 ar  
    38   19   51 1   
    39   20   21 ar  
    40   20   52 1   
    41   21   22 1   
    42   22   23 2   
    43   22   24 1   
    44   23   27 1   
    45   23   53 1   
    46   24   25 1   
    47   24   54 1   
    48   25   26 ar  
    49   25   27 ar  
    50   26   30 ar  
    51   26   55 1   
    52   27   28 ar  
    53   28   29 ar  
    54   28   56 1   
    55   29   30 ar  
    56   29   57 1   
    57   30   31 1   
    58   31   32 2   
    59   31   36 1   
    60   32   33 1   
    61   33   34 1   
    62   33   58 1   
    63   33   59 1   
    64   34   35 1   
    65   34   60 1   
    66   34   61 1   
    67   35   36 1   
    68   35   62 1   
    69   35   63 1   
    70   36   64 1   
@<TRIPOS>SUBSTRUCTURE
     1 3F6         1 TEMP              0 ****  ****    0 ROOT
