@<TRIPOS>MOLECULE
3F7
   28    30     1     0     0
SMALL
bcc


@<TRIPOS>ATOM
      1 OAA         0.0090    0.4980    0.1180 o         1 3F7     -0.546500
      2 CAO         1.2120    0.2420    0.1020 c         1 3F7      0.692700
      3 CAI         2.1300    0.1380    1.3020 cc        1 3F7     -0.171200
      4 CAJ         3.3720   -0.1610    0.8750 cd        1 3F7     -0.171200
      5 CAP         3.3570   -0.2710   -0.6350 c         1 3F7      0.692700
      6 OAB         4.3160   -0.5280   -1.3620 o         1 3F7     -0.546500
      7 NAS         2.0140   -0.0160   -1.0530 n         1 3F7     -0.435600
      8 CAM         1.5550   -0.0190   -2.3860 ca        1 3F7      0.048600
      9 CAF         2.4390    0.2380   -3.4560 ca        1 3F7     -0.128000
     10 CAH         1.9870    0.2350   -4.7680 ca        1 3F7     -0.128000
     11 CAE         0.2010   -0.2800   -2.6850 ca        1 3F7     -0.128000
     12 CAG        -0.2510   -0.2820   -3.9970 ca        1 3F7     -0.128000
     13 CAN         0.6330   -0.0250   -5.0670 ca        1 3F7      0.048600
     14 NAT         0.1740   -0.0280   -6.4000 n         1 3F7     -0.435600
     15 CAQ         0.9760   -0.2860   -7.5550 c         1 3F7      0.692700
     16 OAC         2.1790   -0.5430   -7.5710 o         1 3F7     -0.546500
     17 CAK         0.0580   -0.1820   -8.7550 cc        1 3F7     -0.171200
     18 CAL        -1.1830    0.1180   -8.3280 cd        1 3F7     -0.171200
     19 CAR        -1.1680    0.2280   -6.8180 c         1 3F7      0.692700
     20 OAD        -2.1270    0.4860   -6.0910 o         1 3F7     -0.546500
     21 H1          1.7440    0.2990    2.3080 ha        1 3F7      0.184000
     22 H2          4.2960   -0.3180    1.4320 ha        1 3F7      0.184000
     23 H3          3.5080    0.4330   -3.2670 ha        1 3F7      0.162000
     24 H4          2.7130    0.4280   -5.5760 ha        1 3F7      0.162000
     25 H5         -0.5250   -0.4720   -1.8770 ha        1 3F7      0.162000
     26 H6         -1.3200   -0.4770   -4.1860 ha        1 3F7      0.162000
     27 H7          0.4440   -0.3430   -9.7610 ha        1 3F7      0.184000
     28 H8         -2.1070    0.2760   -8.8850 ha        1 3F7      0.184000
@<TRIPOS>BOND
     1    1    2 2   
     2    2    3 1   
     3    2    7 1   
     4    3    4 2   
     5    3   21 1   
     6    4    5 1   
     7    4   22 1   
     8    5    6 2   
     9    5    7 1   
    10    7    8 1   
    11    8    9 ar  
    12    8   11 ar  
    13    9   10 ar  
    14    9   23 1   
    15   10   13 ar  
    16   10   24 1   
    17   11   12 ar  
    18   11   25 1   
    19   12   13 ar  
    20   12   26 1   
    21   13   14 1   
    22   14   15 1   
    23   14   19 1   
    24   15   16 2   
    25   15   17 1   
    26   17   18 2   
    27   17   27 1   
    28   18   19 1   
    29   18   28 1   
    30   19   20 2   
@<TRIPOS>SUBSTRUCTURE
     1 3F7         1 TEMP              0 ****  ****    0 ROOT
