@<TRIPOS>MOLECULE
3F7
   28    30     1     0     0
SMALL
bcc


@<TRIPOS>ATOM
      1 OAA         0.1690    1.0070    0.0540 o         1 3F7     -0.547500
      2 CAO         1.2890    0.5000    0.0710 c         1 3F7      0.693700
      3 CAI         2.1710    0.2930    1.2840 cc        1 3F7     -0.171200
      4 CAJ         3.3170   -0.2960    0.8940 cd        1 3F7     -0.171200
      5 CAP         3.2700   -0.5140   -0.6040 c         1 3F7      0.693700
      6 OAB         4.1460   -1.0250   -1.3000 o         1 3F7     -0.547500
      7 NAS         2.0100   -0.0110   -1.0520 n         1 3F7     -0.435600
      8 CAM         1.5530   -0.0160   -2.3860 ca        1 3F7      0.048600
      9 CAF         2.4650   -0.0180   -3.4630 ca        1 3F7     -0.127000
     10 CAH         2.0150   -0.0310   -4.7760 ca        1 3F7     -0.127000
     11 CAE         0.1730   -0.0200   -2.6770 ca        1 3F7     -0.127000
     12 CAG        -0.2770   -0.0190   -3.9900 ca        1 3F7     -0.127000
     13 CAN         0.6350   -0.0280   -5.0670 ca        1 3F7      0.048600
     14 NAT         0.1780   -0.0330   -6.4010 n         1 3F7     -0.435600
     15 CAQ         0.8990    0.4660   -7.5280 c         1 3F7      0.693700
     16 OAC         2.0200    0.9730   -7.5160 o         1 3F7     -0.547500
     17 CAK         0.0170    0.2500   -8.7400 cc        1 3F7     -0.171200
     18 CAL        -1.1300   -0.3350   -8.3450 cd        1 3F7     -0.171200
     19 CAR        -1.0830   -0.5390   -6.8450 c         1 3F7      0.693700
     20 OAD        -1.9590   -1.0430   -6.1440 o         1 3F7     -0.547500
     21 H1          1.8350    0.6080    2.2720 ha        1 3F7      0.184000
     22 H2          4.1900   -0.6040    1.4700 ha        1 3F7      0.184000
     23 H3          3.5530   -0.0260   -3.2770 ha        1 3F7      0.162000
     24 H4          2.7600   -0.0260   -5.5900 ha        1 3F7      0.162000
     25 H5         -0.5720   -0.0080   -1.8640 ha        1 3F7      0.162000
     26 H6         -1.3650   -0.0280   -4.1760 ha        1 3F7      0.162000
     27 H7          0.3540    0.5550   -9.7310 ha        1 3F7      0.184000
     28 H8         -2.0030   -0.6470   -8.9180 ha        1 3F7      0.184000
@<TRIPOS>BOND
     1    1    2 2   
     2    2    3 1   
     3    2    7 1   
     4    3    4 2   
     5    3   21 1   
     6    4    5 1   
     7    4   22 1   
     8    5    6 2   
     9    5    7 1   
    10    7    8 1   
    11    8    9 ar  
    12    8   11 ar  
    13    9   10 ar  
    14    9   23 1   
    15   10   13 ar  
    16   10   24 1   
    17   11   12 ar  
    18   11   25 1   
    19   12   13 ar  
    20   12   26 1   
    21   13   14 1   
    22   14   15 1   
    23   14   19 1   
    24   15   16 2   
    25   15   17 1   
    26   17   18 2   
    27   17   27 1   
    28   18   19 1   
    29   18   28 1   
    30   19   20 2   
@<TRIPOS>SUBSTRUCTURE
     1 3F7         1 TEMP              0 ****  ****    0 ROOT
