@<TRIPOS>MOLECULE
3F8
   38    39     1     0     0
SMALL
bcc


@<TRIPOS>ATOM
      1 OAA         1.2060    0.5800    1.3050 o         1 3F8     -0.558500
      2 CAQ         2.2110    0.0890    0.7910 c         1 3F8      0.690200
      3 CAE         3.3800   -0.5740    1.4920 cc        1 3F8     -0.173700
      4 CAF         4.2730   -0.9700    0.5630 cd        1 3F8     -0.173700
      5 CAR         3.7450   -0.5970   -0.8080 c         1 3F8      0.690200
      6 OAB         4.2730   -0.8140   -1.9000 o         1 3F8     -0.558500
      7 NAU         2.5100    0.0750   -0.6010 n         1 3F8     -0.523400
      8 CAM         1.6020    0.4730   -1.6360 c3        1 3F8      0.106000
      9 CAK         1.0990   -0.6590   -2.5420 c3        1 3F8      0.103400
     10 OAO         0.1890   -1.4380   -1.7740 os        1 3F8     -0.427600
     11 CAI        -0.3340   -2.5440   -2.5090 c3        1 3F8      0.125400
     12 CAJ        -1.4680   -3.1210   -1.6690 c3        1 3F8      0.125400
     13 OAP        -2.6780   -2.8070   -2.3570 os        1 3F8     -0.427600
     14 CAL        -3.8340   -3.0810   -1.5730 c3        1 3F8      0.103400
     15 CAN        -5.0560   -2.7260   -2.4300 c3        1 3F8      0.106000
     16 NAV        -5.3350   -3.6280   -3.5070 n         1 3F8     -0.523400
     17 CAS        -5.5680   -5.0230   -3.3680 c         1 3F8      0.690200
     18 OAC        -5.6980   -5.6300   -2.3040 o         1 3F8     -0.558500
     19 CAG        -5.6390   -5.5940   -4.7700 cc        1 3F8     -0.173700
     20 CAH        -5.4200   -4.6000   -5.6530 cd        1 3F8     -0.173700
     21 CAT        -5.1970   -3.3100   -4.8880 c         1 3F8      0.690200
     22 OAD        -4.9710   -2.1920   -5.3490 o         1 3F8     -0.558500
     23 H1          3.4000   -0.6620    2.5770 ha        1 3F8      0.180000
     24 H2          5.2320   -1.4750    0.6720 ha        1 3F8      0.180000
     25 H3          2.1290    1.2180   -2.2980 h1        1 3F8      0.077200
     26 H4          0.7150    0.9670   -1.1430 h1        1 3F8      0.077200
     27 H5          1.9450   -1.3010   -2.9070 h1        1 3F8      0.046700
     28 H6          0.5650   -0.2080   -3.4200 h1        1 3F8      0.046700
     29 H7         -0.7130   -2.2040   -3.5100 h1        1 3F8      0.046200
     30 H8          0.4780   -3.3040   -2.6510 h1        1 3F8      0.046200
     31 H9         -1.3720   -4.2360   -1.5880 h1        1 3F8      0.046200
     32 H10        -1.4730   -2.6670   -0.6420 h1        1 3F8      0.046200
     33 H11        -3.8330   -2.4290   -0.6580 h1        1 3F8      0.046700
     34 H12        -3.8460   -4.1600   -1.2640 h1        1 3F8      0.046700
     35 H13        -5.9510   -2.7130   -1.7420 h1        1 3F8      0.077200
     36 H14        -4.9070   -1.6990   -2.8720 h1        1 3F8      0.077200
     37 H15        -5.8420   -6.6530   -4.9310 ha        1 3F8      0.180000
     38 H16        -5.3910   -4.6120   -6.7420 ha        1 3F8      0.180000
@<TRIPOS>BOND
     1    1    2 2   
     2    2    3 1   
     3    2    7 1   
     4    3    4 2   
     5    3   23 1   
     6    4    5 1   
     7    4   24 1   
     8    5    6 2   
     9    5    7 1   
    10    7    8 1   
    11    8    9 1   
    12    8   25 1   
    13    8   26 1   
    14    9   10 1   
    15    9   27 1   
    16    9   28 1   
    17   10   11 1   
    18   11   12 1   
    19   11   29 1   
    20   11   30 1   
    21   12   13 1   
    22   12   31 1   
    23   12   32 1   
    24   13   14 1   
    25   14   15 1   
    26   14   33 1   
    27   14   34 1   
    28   15   16 1   
    29   15   35 1   
    30   15   36 1   
    31   16   17 1   
    32   16   21 1   
    33   17   18 2   
    34   17   19 1   
    35   19   20 2   
    36   19   37 1   
    37   20   21 1   
    38   20   38 1   
    39   21   22 2   
@<TRIPOS>SUBSTRUCTURE
     1 3F8         1 TEMP              0 ****  ****    0 ROOT
