@<TRIPOS>MOLECULE
3F8
   38    39     1     0     0
SMALL
bcc


@<TRIPOS>ATOM
      1 OAA         1.2090    0.5690    1.3050 o         1 3F8     -0.558500
      2 CAQ         2.2140    0.0800    0.7900 c         1 3F8      0.690200
      3 CAE         3.3840   -0.5830    1.4890 cc        1 3F8     -0.173700
      4 CAF         4.2770   -0.9780    0.5600 cd        1 3F8     -0.173700
      5 CAR         3.7480   -0.6040   -0.8100 c         1 3F8      0.690200
      6 OAB         4.2770   -0.8190   -1.9030 o         1 3F8     -0.558500
      7 NAU         2.5130    0.0670   -0.6020 n         1 3F8     -0.523400
      8 CAM         1.6050    0.4660   -1.6360 c3        1 3F8      0.106000
      9 CAK         1.1020   -0.6650   -2.5430 c3        1 3F8      0.103400
     10 OAO         0.1920   -1.4460   -1.7760 os        1 3F8     -0.427600
     11 CAI        -0.3320   -2.5490   -2.5130 c3        1 3F8      0.125400
     12 CAJ        -1.4650   -3.1280   -1.6720 c3        1 3F8      0.125400
     13 OAP        -2.6760   -2.8090   -2.3560 os        1 3F8     -0.427600
     14 CAL        -3.8300   -3.0830   -1.5690 c3        1 3F8      0.103400
     15 CAN        -5.0540   -2.7200   -2.4210 c3        1 3F8      0.106000
     16 NAV        -5.3390   -3.6170   -3.5020 n         1 3F8     -0.523400
     17 CAS        -5.5760   -5.0110   -3.3690 c         1 3F8      0.690200
     18 OAC        -5.7050   -5.6230   -2.3070 o         1 3F8     -0.558500
     19 CAG        -5.6540   -5.5750   -4.7740 cc        1 3F8     -0.173700
     20 CAH        -5.4340   -4.5770   -5.6520 cd        1 3F8     -0.173700
     21 CAT        -5.2040   -3.2920   -4.8820 c         1 3F8      0.690200
     22 OAD        -4.9760   -2.1720   -5.3380 o         1 3F8     -0.558500
     23 H1          3.4040   -0.6730    2.5750 ha        1 3F8      0.180000
     24 H2          5.2370   -1.4820    0.6680 ha        1 3F8      0.180000
     25 H3          0.7180    0.9590   -1.1420 h1        1 3F8      0.077200
     26 H4          2.1310    1.2120   -2.2980 h1        1 3F8      0.077200
     27 H5          1.9480   -1.3060   -2.9100 h1        1 3F8      0.046700
     28 H6          0.5670   -0.2130   -3.4210 h1        1 3F8      0.046700
     29 H7         -0.7120   -2.2080   -3.5120 h1        1 3F8      0.046200
     30 H8          0.4800   -3.3100   -2.6570 h1        1 3F8      0.046200
     31 H9         -1.3710   -4.2430   -1.5970 h1        1 3F8      0.046200
     32 H10        -1.4660   -2.6790   -0.6430 h1        1 3F8      0.046200
     33 H11        -3.8450   -4.1630   -1.2660 h1        1 3F8      0.046700
     34 H12        -3.8250   -2.4360   -0.6510 h1        1 3F8      0.046700
     35 H13        -4.9030   -1.6910   -2.8590 h1        1 3F8      0.077200
     36 H14        -5.9460   -2.7080   -1.7300 h1        1 3F8      0.077200
     37 H15        -5.8590   -6.6320   -4.9390 ha        1 3F8      0.180000
     38 H16        -5.4090   -4.5840   -6.7420 ha        1 3F8      0.180000
@<TRIPOS>BOND
     1    1    2 2   
     2    2    3 1   
     3    2    7 1   
     4    3    4 2   
     5    3   23 1   
     6    4    5 1   
     7    4   24 1   
     8    5    6 2   
     9    5    7 1   
    10    7    8 1   
    11    8    9 1   
    12    8   25 1   
    13    8   26 1   
    14    9   10 1   
    15    9   27 1   
    16    9   28 1   
    17   10   11 1   
    18   11   12 1   
    19   11   29 1   
    20   11   30 1   
    21   12   13 1   
    22   12   31 1   
    23   12   32 1   
    24   13   14 1   
    25   14   15 1   
    26   14   33 1   
    27   14   34 1   
    28   15   16 1   
    29   15   35 1   
    30   15   36 1   
    31   16   17 1   
    32   16   21 1   
    33   17   18 2   
    34   17   19 1   
    35   19   20 2   
    36   19   37 1   
    37   20   21 1   
    38   20   38 1   
    39   21   22 2   
@<TRIPOS>SUBSTRUCTURE
     1 3F8         1 TEMP              0 ****  ****    0 ROOT
