@<TRIPOS>MOLECULE
3F9
   67    71     1     0     0
SMALL
bcc


@<TRIPOS>ATOM
      1 N1          0.0450    0.2610   -0.3850 n         1 3F9     -0.464800
      2 C4         -7.7020    4.4540    4.9090 ca        1 3F9     -0.131000
      3 C5          4.5480   -0.9940   -4.9480 ca        1 3F9     -0.120000
      4 C6          3.2960   -3.2120   -3.7750 ca        1 3F9     -0.114000
      5 C7          3.5490    0.4840   -3.2200 ca        1 3F9     -0.117000
      6 C8          2.7590    0.6450   -2.1100 ca        1 3F9     -0.110000
      7 C10        -6.9670    3.5190    4.1680 ca        1 3F9     -0.118000
      8 C13         3.1030   -1.9240   -3.2040 ca        1 3F9     -0.043000
      9 C15        -4.9310    4.6550    4.8590 ca        1 3F9     -0.085300
     10 C17         1.3150   -0.2900   -0.2770 c         1 3F9      0.668700
     11 C20         0.2740    3.6520    2.5920 c3        1 3F9     -0.077400
     12 C21         0.4360    2.2940    1.9460 c3        1 3F9     -0.075400
     13 C22        -0.8800    3.6530    3.5930 c3        1 3F9      0.165800
     14 C24        -0.8760    1.8450    1.3300 c3        1 3F9     -0.078700
     15 C26        -0.7840    0.4080    0.7930 c3        1 3F9      0.085000
     16 C28        -1.3470   -0.6310   -2.2830 c3        1 3F9      0.101400
     17 C1          4.7170   -2.2490   -5.4800 ca        1 3F9     -0.121000
     18 C2          4.0850   -3.3690   -4.8880 ca        1 3F9     -0.126000
     19 C3         -7.0580    5.4700    5.6100 ca        1 3F9     -0.131000
     20 C9         -5.6610    5.5790    5.5900 ca        1 3F9     -0.118000
     21 C11         2.2920   -1.7370   -2.0510 ca        1 3F9     -0.081000
     22 C12         3.7370   -0.8020   -3.7960 ca        1 3F9     -0.030000
     23 C14         2.1200   -0.4780   -1.5230 ca        1 3F9     -0.126600
     24 C16        -5.5850    3.6240    4.1460 ca        1 3F9     -0.085300
     25 C18        -3.4540    4.5730    4.6770 c3        1 3F9     -0.035600
     26 C19        -4.6000    2.7650    3.4300 c3        1 3F9     -0.035600
     27 C23        -1.9980    1.8820    2.3780 c3        1 3F9      0.168800
     28 C25        -3.2160    3.1850    4.0090 c3        1 3F9      0.182500
     29 C27        -0.5670    0.5370   -1.6570 c3        1 3F9      0.094000
     30 N2         -2.1380    3.1860    3.0190 n3        1 3F9     -0.718600
     31 O1          1.7820   -0.6050    0.8360 o         1 3F9     -0.593100
     32 O2         -2.5670   -0.7560   -1.5590 os        1 3F9     -0.425600
     33 C33        -3.3860   -1.8040   -2.0490 c3        1 3F9      0.115700
     34 H2          5.0370   -0.1180   -5.4000 ha        1 3F9      0.135000
     35 H3          2.8040   -4.0770   -3.3050 ha        1 3F9      0.135000
     36 H4          4.0530    1.3470   -3.6800 ha        1 3F9      0.138000
     37 H5          2.6170    1.6380   -1.6550 ha        1 3F9      0.143000
     38 H6         -7.4810    2.7190    3.6170 ha        1 3F9      0.132000
     39 H7          1.2120    3.9330    3.1370 hc        1 3F9      0.045700
     40 H8          0.0900    4.4270    1.8040 hc        1 3F9      0.045700
     41 H9          1.2320    2.3380    1.1590 hc        1 3F9      0.049700
     42 H10         0.7700    1.5420    2.7100 hc        1 3F9      0.049700
     43 H11        -0.5780    3.0280    4.4860 h1        1 3F9      0.030200
     44 H12        -1.0370    4.7070    3.9550 h1        1 3F9      0.030200
     45 H13        -1.1450    2.5470    0.4920 hc        1 3F9      0.060700
     46 H14        -0.3770   -0.2560    1.6090 h1        1 3F9      0.070200
     47 H15        -1.8250    0.0530    0.5310 h1        1 3F9      0.070200
     48 H16        -0.7710   -1.5920   -2.2320 h1        1 3F9      0.035700
     49 H17        -1.5700   -0.3890   -3.3560 h1        1 3F9      0.035700
     50 H18         5.3450   -2.4000   -6.3710 ha        1 3F9      0.135000
     51 H19         4.2380   -4.3640   -5.3310 ha        1 3F9      0.135000
     52 H20        -7.6480    6.1960    6.1870 ha        1 3F9      0.129000
     53 H21        -5.1580    6.3830    6.1450 ha        1 3F9      0.132000
     54 H22         1.8140   -2.6140   -1.5870 ha        1 3F9      0.144000
     55 H23        -2.9080    4.6360    5.6490 hc        1 3F9      0.061200
     56 H24        -3.1080    5.4140    4.0230 hc        1 3F9      0.061200
     57 H25        -4.7830    1.6780    3.6090 hc        1 3F9      0.061200
     58 H26        -4.6650    2.9570    2.3280 hc        1 3F9      0.061200
     59 H27        -2.9710    1.6440    1.8650 h1        1 3F9      0.033200
     60 H28        -1.8030    1.0670    3.1370 h1        1 3F9      0.033200
     61 H29        -2.9740    2.4560    4.8440 h1        1 3F9      0.022700
     62 H30         0.2280    0.8420   -2.3970 h1        1 3F9      0.066700
     63 H31        -1.2800    1.4010   -1.5240 h1        1 3F9      0.066700
     64 H33        -4.2950   -1.7770   -1.3970 h1        1 3F9      0.034367
     65 H34        -2.8650   -2.7890   -1.9540 h1        1 3F9      0.034367
     66 H35        -3.6640   -1.6220   -3.1160 h1        1 3F9      0.034367
     67 H1         -8.7990    4.3810    4.9340 ha        1 3F9      0.129000
@<TRIPOS>BOND
     1    1   10 1   
     2    1   15 1   
     3    1   29 1   
     4    2    7 ar  
     5    2   19 ar  
     6    2   67 1   
     7    3   17 ar  
     8    3   22 ar  
     9    3   34 1   
    10    4    8 ar  
    11    4   18 ar  
    12    4   35 1   
    13    5    6 ar  
    14    5   22 ar  
    15    5   36 1   
    16    6   23 ar  
    17    6   37 1   
    18    7   24 ar  
    19    7   38 1   
    20    8   21 ar  
    21    8   22 ar  
    22    9   20 ar  
    23    9   24 ar  
    24    9   25 1   
    25   10   23 1   
    26   10   31 2   
    27   11   12 1   
    28   11   13 1   
    29   11   39 1   
    30   11   40 1   
    31   12   14 1   
    32   12   41 1   
    33   12   42 1   
    34   13   30 1   
    35   13   43 1   
    36   13   44 1   
    37   14   15 1   
    38   14   27 1   
    39   14   45 1   
    40   15   46 1   
    41   15   47 1   
    42   16   29 1   
    43   16   32 1   
    44   16   48 1   
    45   16   49 1   
    46   17   18 ar  
    47   17   50 1   
    48   18   51 1   
    49   19   20 ar  
    50   19   52 1   
    51   20   53 1   
    52   21   23 ar  
    53   21   54 1   
    54   24   26 1   
    55   25   28 1   
    56   25   55 1   
    57   25   56 1   
    58   26   28 1   
    59   26   57 1   
    60   26   58 1   
    61   27   30 1   
    62   27   59 1   
    63   27   60 1   
    64   28   30 1   
    65   28   61 1   
    66   29   62 1   
    67   29   63 1   
    68   32   33 1   
    69   33   64 1   
    70   33   65 1   
    71   33   66 1   
@<TRIPOS>SUBSTRUCTURE
     1 3F9         1 TEMP              0 ****  ****    0 ROOT
