@<TRIPOS>MOLECULE
3F9
   68    72     1     0     0
SMALL
bcc


@<TRIPOS>ATOM
      1 N1         -0.6150    0.5950   -1.3190 nx        1 3F9     -0.586200
      2 C4         -7.1430    4.7110    4.3980 ca        1 3F9     -0.123000
      3 C5          5.1300   -1.4250   -3.8650 ca        1 3F9     -0.125000
      4 C6          3.2230   -2.8660   -2.3870 ca        1 3F9     -0.115000
      5 C7          3.8210    0.6570   -3.5220 ca        1 3F9     -0.096000
      6 C8          2.7280    1.2990   -2.9980 ca        1 3F9     -0.088000
      7 C10        -6.5020    3.8040    3.5440 ca        1 3F9     -0.112500
      8 C13         3.0380   -1.4680   -2.5860 ca        1 3F9     -0.057000
      9 C15        -4.4280    4.2340    4.7370 ca        1 3F9     -0.092800
     10 C17         0.6300    1.3580   -1.7440 c         1 3F9      0.570700
     11 C20         0.7710    2.5280    2.9400 c3        1 3F9     -0.080400
     12 C21         0.7630    1.3780    1.9550 c3        1 3F9     -0.077400
     13 C22        -0.5120    2.5640    3.7670 c3        1 3F9      0.157800
     14 C24        -0.4960    1.4460    1.1000 c3        1 3F9     -0.095700
     15 C26        -0.5660    0.2520    0.1450 c3        1 3F9      0.116800
     16 C28        -2.9550    0.4030   -2.2520 c3        1 3F9      0.102400
     17 C1          5.2820   -2.7740   -3.6590 ca        1 3F9     -0.082000
     18 C2          4.3200   -3.5010   -2.9120 ca        1 3F9     -0.105000
     19 C3         -6.4340    5.3650    5.4020 ca        1 3F9     -0.123000
     20 C9         -5.0640    5.1310    5.5810 ca        1 3F9     -0.112500
     21 C11         1.9140   -0.7910   -2.0540 ca        1 3F9     -0.053000
     22 C12         4.0040   -0.7390   -3.3330 ca        1 3F9      0.007000
     23 C14         1.7520    0.5690   -2.2580 ca        1 3F9     -0.195600
     24 C16        -5.1470    3.5710    3.7180 ca        1 3F9     -0.092800
     25 C18        -2.9930    3.8330    4.7250 c3        1 3F9     -0.031100
     26 C19        -4.2540    2.6700    2.9370 c3        1 3F9     -0.031100
     27 C23        -1.7350    1.4420    2.0140 c3        1 3F9      0.173800
     28 C25        -2.9370    2.6060    3.7660 c3        1 3F9      0.177500
     29 C27        -1.8740    1.3240   -1.6780 c3        1 3F9      0.102800
     30 N2         -1.7220    2.5590    2.9490 n3        1 3F9     -0.719600
     31 O1          0.5710    2.5790   -1.6530 o         1 3F9     -0.435100
     32 O2         -3.1110   -0.6880   -1.3540 os        1 3F9     -0.461600
     33 C33        -4.2920   -1.4470   -1.6000 c3        1 3F9      0.115700
     34 H2          5.8730   -0.8530   -4.4430 ha        1 3F9      0.156000
     35 H3          2.4740   -3.4250   -1.8050 ha        1 3F9      0.141000
     36 H4          4.5770    1.2190   -4.0960 ha        1 3F9      0.164000
     37 H5          2.5890    2.3850   -3.1350 ha        1 3F9      0.167000
     38 H7          1.6400    2.4190    3.6390 hc        1 3F9      0.063200
     39 H8          0.8940    3.4970    2.3880 hc        1 3F9      0.063200
     40 H9          1.6730    1.4300    1.3030 hc        1 3F9      0.047200
     41 H10         0.7930    0.4040    2.5100 hc        1 3F9      0.047200
     42 H11        -0.5140    3.5110    4.3770 h1        1 3F9      0.047200
     43 H12        -0.5000    1.6920    4.4870 h1        1 3F9      0.047200
     44 H13        -0.4740    2.4200    0.5300 hc        1 3F9      0.093700
     45 H14         0.3420   -0.4040    0.2870 hx        1 3F9      0.104200
     46 H15        -1.4930   -0.3640    0.3500 hx        1 3F9      0.104200
     47 H16        -3.9070    0.9940   -2.3400 h1        1 3F9      0.069700
     48 H17        -2.6660    0.0110   -3.2650 h1        1 3F9      0.069700
     49 H18         6.1540   -3.3090   -4.0700 ha        1 3F9      0.158000
     50 H19         4.4690   -4.5820   -2.7610 ha        1 3F9      0.156000
     51 H20        -6.9520    6.0740    6.0660 ha        1 3F9      0.138500
     52 H21        -4.5100    5.6500    6.3760 ha        1 3F9      0.135000
     53 H22         1.2010   -1.3920   -1.4660 ha        1 3F9      0.127000
     54 H23        -2.3660    4.6840    4.3520 hc        1 3F9      0.058200
     55 H24        -2.6290    3.5470    5.7420 hc        1 3F9      0.058200
     56 H25        -4.6900    1.6470    2.8210 hc        1 3F9      0.058200
     57 H26        -4.0850    3.1020    1.9170 hc        1 3F9      0.058200
     58 H27        -1.7810    0.4450    2.5460 h1        1 3F9      0.035700
     59 H28        -2.6580    1.5300    1.3750 h1        1 3F9      0.035700
     60 H29        -2.9970    1.6760    4.4120 h1        1 3F9      0.030700
     61 H30        -2.2630    1.8390   -0.7530 hx        1 3F9      0.119200
     62 H31        -1.6340    2.1140   -2.4470 hx        1 3F9      0.119200
     63 H33        -4.2700   -1.8730   -2.6330 h1        1 3F9      0.055700
     64 H34        -5.1990   -0.8090   -1.4600 h1        1 3F9      0.055700
     65 H35        -4.2560   -2.2600   -0.8320 h1        1 3F9      0.055700
     66 H1         -8.2190    4.9040    4.2720 ha        1 3F9      0.138500
     67 H111       -0.6240   -0.3000   -1.8300 hn        1 3F9      0.454800
     68 H6         -7.0680    3.2890    2.7560 ha        1 3F9      0.135000
@<TRIPOS>BOND
     1    1   10 1   
     2    1   15 1   
     3    1   29 1   
     4    1   67 1   
     5    2    7 ar  
     6    2   19 ar  
     7    2   66 1   
     8    3   17 ar  
     9    3   22 ar  
    10    3   34 1   
    11    4    8 ar  
    12    4   18 ar  
    13    4   35 1   
    14    5    6 ar  
    15    5   22 ar  
    16    5   36 1   
    17    6   23 ar  
    18    6   37 1   
    19    7   24 ar  
    20    7   68 1   
    21    8   21 ar  
    22    8   22 ar  
    23    9   20 ar  
    24    9   24 ar  
    25    9   25 1   
    26   10   23 1   
    27   10   31 2   
    28   11   12 1   
    29   11   13 1   
    30   11   38 1   
    31   11   39 1   
    32   12   14 1   
    33   12   40 1   
    34   12   41 1   
    35   13   30 1   
    36   13   42 1   
    37   13   43 1   
    38   14   15 1   
    39   14   27 1   
    40   14   44 1   
    41   15   45 1   
    42   15   46 1   
    43   16   29 1   
    44   16   32 1   
    45   16   47 1   
    46   16   48 1   
    47   17   18 ar  
    48   17   49 1   
    49   18   50 1   
    50   19   20 ar  
    51   19   51 1   
    52   20   52 1   
    53   21   23 ar  
    54   21   53 1   
    55   24   26 1   
    56   25   28 1   
    57   25   54 1   
    58   25   55 1   
    59   26   28 1   
    60   26   56 1   
    61   26   57 1   
    62   27   30 1   
    63   27   58 1   
    64   27   59 1   
    65   28   30 1   
    66   28   60 1   
    67   29   61 1   
    68   29   62 1   
    69   32   33 1   
    70   33   63 1   
    71   33   64 1   
    72   33   65 1   
@<TRIPOS>SUBSTRUCTURE
     1 3F9         1 TEMP              0 ****  ****    0 ROOT
