@<TRIPOS>MOLECULE
3F9
   68    72     1     0     0
SMALL
bcc


@<TRIPOS>ATOM
      1 N1         -0.4470    0.1850   -0.4310 n4        1 3F9     -0.593200
      2 C4         -7.4330    4.4500    3.9970 ca        1 3F9     -0.122000
      3 C5          4.7560   -1.6610   -3.9270 ca        1 3F9     -0.124000
      4 C6          2.2190   -2.8670   -3.8880 ca        1 3F9     -0.113000
      5 C7          3.8580    0.2750   -2.6580 ca        1 3F9     -0.093000
      6 C8          2.8100    0.9040   -2.0370 ca        1 3F9     -0.097000
      7 C10        -6.6140    3.4960    3.3780 ca        1 3F9     -0.112000
      8 C13         2.3990   -1.6060   -3.2540 ca        1 3F9     -0.056000
      9 C15        -4.7000    4.4970    4.4950 ca        1 3F9     -0.093300
     10 C17         0.4490    1.0200   -1.3440 c         1 3F9      0.577700
     11 C20         0.7920    3.2910    3.2470 c3        1 3F9     -0.080400
     12 C21         1.0130    1.9700    2.5410 c3        1 3F9     -0.075400
     13 C22        -0.5290    3.3030    4.0120 c3        1 3F9      0.157800
     14 C24        -0.1890    1.6550    1.6590 c3        1 3F9     -0.095700
     15 C26         0.0040    0.2900    0.9950 c3        1 3F9      0.118800
     16 C28        -2.4360    0.1350   -1.9780 c3        1 3F9      0.102400
     17 C1          4.5540   -2.8800   -4.5280 ca        1 3F9     -0.085000
     18 C2          3.2740   -3.4880   -4.5090 ca        1 3F9     -0.106000
     19 C3         -6.8890    5.4090    4.8490 ca        1 3F9     -0.122000
     20 C9         -5.5120    5.4400    5.1060 ca        1 3F9     -0.112000
     21 C11         1.3260   -0.9460   -2.6050 ca        1 3F9     -0.054000
     22 C12         3.6830   -0.9940   -3.2770 ca        1 3F9      0.000000
     23 C14         1.5320    0.2790   -1.9980 ca        1 3F9     -0.201600
     24 C16        -5.2520    3.5250    3.6300 ca        1 3F9     -0.093300
     25 C18        -3.2230    4.3370    4.6050 c3        1 3F9     -0.030600
     26 C19        -4.1900    2.6320    3.0870 c3        1 3F9     -0.030600
     27 C23        -1.4650    1.6530    2.5200 c3        1 3F9      0.171800
     28 C25        -2.9290    2.9570    3.9420 c3        1 3F9      0.176500
     29 C27        -1.8890    0.5310   -0.6030 c3        1 3F9      0.100800
     30 N2         -1.6740    2.9310    3.1840 n3        1 3F9     -0.717600
     31 O1          0.1940    2.2130   -1.4230 o         1 3F9     -0.424100
     32 O2         -2.1120   -1.2360   -2.1830 os        1 3F9     -0.469600
     33 C33        -2.9200   -1.8600   -3.1760 c3        1 3F9      0.117700
     34 H2          5.7470   -1.1810   -3.9400 ha        1 3F9      0.154000
     35 H3          1.2220   -3.3330   -3.8710 ha        1 3F9      0.141000
     36 H4          4.8530    0.7490   -2.6940 ha        1 3F9      0.162000
     37 H5          2.9360    1.8970   -1.5760 ha        1 3F9      0.158000
     38 H7          0.8050    4.1260    2.4980 hc        1 3F9      0.064200
     39 H8          1.6240    3.4730    3.9760 hc        1 3F9      0.064200
     40 H9          1.1520    1.1530    3.2970 hc        1 3F9      0.049200
     41 H10         1.9440    2.0250    1.9200 hc        1 3F9      0.049200
     42 H11        -0.4330    2.6220    4.9090 h1        1 3F9      0.048700
     43 H12        -0.7090    4.3480    4.3940 h1        1 3F9      0.048700
     44 H13        -0.2740    2.4690    0.8830 hc        1 3F9      0.095700
     45 H14         1.1020    0.0210    0.9960 hx        1 3F9      0.098200
     46 H15        -0.5550   -0.5010    1.5750 hx        1 3F9      0.098200
     47 H16        -3.5470    0.2950   -1.9730 h1        1 3F9      0.074700
     48 H17        -1.9720    0.7490   -2.7970 h1        1 3F9      0.074700
     49 H18         5.3840   -3.3980   -5.0350 ha        1 3F9      0.157000
     50 H19         3.1400   -4.4640   -5.0020 ha        1 3F9      0.155000
     51 H20        -7.5450    6.1510    5.3280 ha        1 3F9      0.139000
     52 H21        -5.0890    6.1980    5.7800 ha        1 3F9      0.135500
     53 H22         0.3290   -1.4220   -2.6350 ha        1 3F9      0.149000
     54 H23        -2.7120    5.1770    4.0680 hc        1 3F9      0.057450
     55 H24        -2.8790    4.3360    5.6680 hc        1 3F9      0.057450
     56 H25        -4.0290    2.8590    2.0020 hc        1 3F9      0.057450
     57 H26        -4.4610    1.5530    3.1880 hc        1 3F9      0.057450
     58 H27        -1.3950    0.7980    3.2580 h1        1 3F9      0.029700
     59 H28        -2.3510    1.4560    1.8540 h1        1 3F9      0.029700
     60 H29        -2.8870    2.1900    4.7750 h1        1 3F9      0.030700
     61 H30        -2.4650   -0.0140    0.1980 hx        1 3F9      0.116200
     62 H31        -2.0110    1.6450   -0.4630 hx        1 3F9      0.116200
     63 H33        -3.9940   -1.8480   -2.8650 h1        1 3F9      0.055700
     64 H34        -2.7920   -1.3450   -4.1590 h1        1 3F9      0.055700
     65 H35        -2.5330   -2.9090   -3.2200 h1        1 3F9      0.055700
     66 H1         -8.5170    4.4380    3.8080 ha        1 3F9      0.139000
     67 H111       -0.3370   -0.8030   -0.7120 hn        1 3F9      0.465800
     68 H6         -7.0510    2.7410    2.7100 ha        1 3F9      0.135500
@<TRIPOS>BOND
     1    1   10 1   
     2    1   15 1   
     3    1   29 1   
     4    1   67 1   
     5    2    7 ar  
     6    2   19 ar  
     7    2   66 1   
     8    3   17 ar  
     9    3   22 ar  
    10    3   34 1   
    11    4    8 ar  
    12    4   18 ar  
    13    4   35 1   
    14    5    6 ar  
    15    5   22 ar  
    16    5   36 1   
    17    6   23 ar  
    18    6   37 1   
    19    7   24 ar  
    20    7   68 1   
    21    8   21 ar  
    22    8   22 ar  
    23    9   20 ar  
    24    9   24 ar  
    25    9   25 1   
    26   10   23 1   
    27   10   31 2   
    28   11   12 1   
    29   11   13 1   
    30   11   38 1   
    31   11   39 1   
    32   12   14 1   
    33   12   40 1   
    34   12   41 1   
    35   13   30 1   
    36   13   42 1   
    37   13   43 1   
    38   14   15 1   
    39   14   27 1   
    40   14   44 1   
    41   15   45 1   
    42   15   46 1   
    43   16   29 1   
    44   16   32 1   
    45   16   47 1   
    46   16   48 1   
    47   17   18 ar  
    48   17   49 1   
    49   18   50 1   
    50   19   20 ar  
    51   19   51 1   
    52   20   52 1   
    53   21   23 ar  
    54   21   53 1   
    55   24   26 1   
    56   25   28 1   
    57   25   54 1   
    58   25   55 1   
    59   26   28 1   
    60   26   56 1   
    61   26   57 1   
    62   27   30 1   
    63   27   58 1   
    64   27   59 1   
    65   28   30 1   
    66   28   60 1   
    67   29   61 1   
    68   29   62 1   
    69   32   33 1   
    70   33   63 1   
    71   33   64 1   
    72   33   65 1   
@<TRIPOS>SUBSTRUCTURE
     1 3F9         1 TEMP              0 ****  ****    0 ROOT
