@<TRIPOS>MOLECULE
3FA
   14    14     1     0     0
SMALL
bcc


@<TRIPOS>ATOM
      1 O1          0.0380   -0.0050   -0.3130 oh        1 3FA     -0.509100
      2 C1          1.4060    0.0030   -0.1420 ca        1 3FA      0.005100
      3 C3          2.0330    0.0990    1.1170 ca        1 3FA      0.081900
      4 F1          1.2670    0.1900    2.2330 f         1 3FA     -0.143900
      5 C5          3.4340    0.1000    1.2050 ca        1 3FA     -0.162000
      6 C6          4.1950    0.0050    0.0430 ca        1 3FA     -0.104000
      7 C4          3.5930   -0.0910   -1.2100 ca        1 3FA     -0.145000
      8 C2          2.1940   -0.0920   -1.3070 ca        1 3FA      0.133100
      9 O2          1.6470   -0.1890   -2.5620 oh        1 3FA     -0.490100
     10 HO1        -0.3690    0.0660    0.5650 ho        1 3FA      0.440000
     11 H5          3.9130    0.1750    2.1910 ha        1 3FA      0.152000
     12 H6          5.2930    0.0060    0.1150 ha        1 3FA      0.143000
     13 H4          4.1930   -0.1660   -2.1280 ha        1 3FA      0.158000
     14 HO2         0.6810   -0.1770   -2.4730 ho        1 3FA      0.441000
@<TRIPOS>BOND
     1    1    2 1   
     2    1   10 1   
     3    2    3 ar  
     4    2    8 ar  
     5    3    4 1   
     6    3    5 ar  
     7    5    6 ar  
     8    5   11 1   
     9    6    7 ar  
    10    6   12 1   
    11    7    8 ar  
    12    7   13 1   
    13    8    9 1   
    14    9   14 1   
@<TRIPOS>SUBSTRUCTURE
     1 3FA         1 TEMP              0 ****  ****    0 ROOT
