@<TRIPOS>MOLECULE
3FA
   14    12     1     0     0
SMALL
bcc


@<TRIPOS>ATOM
      1 O1         -2.4140   -0.0100    0.1960 oh        1 3FA     -0.263000
      2 C1         -1.0070   -0.0100    0.1960 c2        1 3FA     -0.040000
      3 C3         -0.3140   -0.0100    1.3960 c2        1 3FA      0.047000
      4 F1         -0.9840    0.0060    2.5560 f         1 3FA     -0.109000
      5 C5          1.0720   -0.0100    1.3970 c1        1 3FA     -0.162000
      6 C6          1.7650   -0.0100    0.1960 c1        1 3FA     -0.124500
      7 C4          1.0720   -0.0100   -1.0040 c1        1 3FA     -0.124500
      8 C2         -0.3140   -0.0100   -1.0040 c1        1 3FA      0.088000
      9 O2         -1.0170    0.0400   -2.2220 oh        1 3FA     -0.244000
     10 HO1        -2.7100    0.8190    0.3060 ho        1 3FA      0.239000
     11 H5          1.5600   -0.0100    2.2420 ha        1 3FA      0.152000
     12 H6          2.7410   -0.0100    0.1960 ha        1 3FA      0.150500
     13 H4          1.5600   -0.0100   -1.8490 ha        1 3FA      0.150500
     14 HO2        -1.0070   -0.7620   -2.6030 ho        1 3FA      0.240000
@<TRIPOS>BOND
     1    1    2 1   
     2    1   10 1   
     3    2    3 1   
     4    2    8 1   
     5    3    4 1   
     6    3    5 1   
     7    5   11 1   
     8    6    7 1   
     9    6   12 1   
    10    7   13 1   
    11    8    9 1   
    12    9   14 1   
@<TRIPOS>SUBSTRUCTURE
     1 3FA         1 TEMP              0 ****  ****    0 ROOT
