@<TRIPOS>MOLECULE
3FA
   14    14     1     0     0
SMALL
bcc


@<TRIPOS>ATOM
      1 O1          0.0370   -0.0620   -0.2860 oh        1 3FA     -0.509100
      2 C1          1.4060   -0.0210   -0.1310 ca        1 3FA      0.005100
      3 C3          2.0450    0.0850    1.1220 ca        1 3FA      0.081900
      4 F1          1.2900    0.1530    2.2470 f         1 3FA     -0.143900
      5 C5          3.4470    0.1200    1.1930 ca        1 3FA     -0.162000
      6 C6          4.1970    0.0480    0.0220 ca        1 3FA     -0.104000
      7 C4          3.5830   -0.0580   -1.2240 ca        1 3FA     -0.145000
      8 C2          2.1830   -0.0930   -1.3050 ca        1 3FA      0.133100
      9 O2          1.6250   -0.1980   -2.5540 oh        1 3FA     -0.490100
     10 HO1        -0.3610   -0.0040    0.5970 ho        1 3FA      0.440000
     11 H5          3.9360    0.2030    2.1740 ha        1 3FA      0.152000
     12 H6          5.2960    0.0750    0.0810 ha        1 3FA      0.143000
     13 H4          4.1740   -0.1140   -2.1490 ha        1 3FA      0.158000
     14 HO2         0.6590   -0.2100   -2.4530 ho        1 3FA      0.441000
@<TRIPOS>BOND
     1    1    2 1   
     2    1   10 1   
     3    2    3 ar  
     4    2    8 ar  
     5    3    4 1   
     6    3    5 ar  
     7    5    6 ar  
     8    5   11 1   
     9    6    7 ar  
    10    6   12 1   
    11    7    8 ar  
    12    7   13 1   
    13    8    9 1   
    14    9   14 1   
@<TRIPOS>SUBSTRUCTURE
     1 3FA         1 TEMP              0 ****  ****    0 ROOT
