@<TRIPOS>MOLECULE
3FA
   14    14     1     0     0
SMALL
bcc


@<TRIPOS>ATOM
      1 O1          0.2710   -2.0160    0.0050 oh        1 3FA     -0.509100
      2 C1          0.1500   -0.6430   -0.0090 ca        1 3FA      0.005100
      3 C3         -1.0860    0.0280   -0.1160 ca        1 3FA      0.081900
      4 F1         -2.2280   -0.6980   -0.2110 f         1 3FA     -0.143900
      5 C5         -1.1230    1.4320   -0.1230 ca        1 3FA     -0.162000
      6 C6          0.0650    2.1510   -0.0240 ca        1 3FA     -0.104000
      7 C4          1.2940    1.5040    0.0820 ca        1 3FA     -0.145000
      8 C2          1.3410    0.1030    0.0900 ca        1 3FA      0.133100
      9 O2          2.5750   -0.4880    0.1970 oh        1 3FA     -0.490100
     10 HO1        -0.6210   -2.3920   -0.0690 ho        1 3FA      0.440000
     11 H5         -2.0910    1.9460   -0.2070 ha        1 3FA      0.152000
     12 H6          0.0330    3.2510   -0.0300 ha        1 3FA      0.143000
     13 H4          2.2330    2.0710    0.1600 ha        1 3FA      0.158000
     14 HO2         2.4510   -1.4500    0.1890 ho        1 3FA      0.441000
@<TRIPOS>BOND
     1    1    2 1   
     2    1   10 1   
     3    2    3 ar  
     4    2    8 ar  
     5    3    4 1   
     6    3    5 ar  
     7    5    6 ar  
     8    5   11 1   
     9    6    7 ar  
    10    6   12 1   
    11    7    8 ar  
    12    7   13 1   
    13    8    9 1   
    14    9   14 1   
@<TRIPOS>SUBSTRUCTURE
     1 3FA         1 TEMP              0 ****  ****    0 ROOT
