@<TRIPOS>MOLECULE
3FB
   26    26     1     0     0
SMALL
bcc


@<TRIPOS>ATOM
      1 N          -0.0930    0.1770   -0.0090 n3        1 3FB     -0.920800
      2 CA          1.3470    0.0050    0.0270 c3        1 3FB      0.166500
      3 CB          1.9710    0.0590    1.4370 c3        1 3FB     -0.073100
      4 CG          1.6100    1.3130    2.1480 ca        1 3FB     -0.093300
      5 CD1         0.4600    1.3690    2.9450 ca        1 3FB     -0.129500
      6 CE1         0.1240    2.5440    3.6150 ca        1 3FB     -0.124500
      7 CH          0.9350    3.6730    3.4960 ca        1 3FB     -0.126000
      8 CE2         2.0830    3.6230    2.7050 ca        1 3FB     -0.124500
      9 CD2         2.4200    2.4490    2.0340 ca        1 3FB     -0.129500
     10 CCC         1.7730   -1.3170   -0.6310 c3        1 3FB     -0.175400
     11 C           1.7030   -1.2520   -2.1270 c         1 3FB      0.632100
     12 O           2.6550   -1.4020   -2.8970 o         1 3FB     -0.504000
     13 OXT         0.5150   -1.0490   -2.7610 oh        1 3FB     -0.582100
     14 H          -0.1850   -0.8640   -2.1180 ho        1 3FB      0.448000
     15 HN2        -0.3340    1.1190    0.2300 hn        1 3FB      0.358800
     16 HA          1.7950    0.8530   -0.5760 h1        1 3FB      0.075700
     17 HB1         3.0860   -0.0120    1.3350 hc        1 3FB      0.058200
     18 HB2         1.6300   -0.8310    2.0290 hc        1 3FB      0.058200
     19 HD1        -0.1770    0.4780    3.0490 ha        1 3FB      0.131500
     20 HE1        -0.7790    2.5790    4.2410 ha        1 3FB      0.135000
     21 HH          0.6700    4.6000    4.0260 ha        1 3FB      0.135000
     22 HE2         2.7250    4.5120    2.6110 ha        1 3FB      0.135000
     23 HD2         3.3280    2.4130    1.4130 ha        1 3FB      0.131500
     24 HC1         2.8360   -1.5410   -0.3440 hc        1 3FB      0.079700
     25 HC2         1.1350   -2.1680   -0.2750 hc        1 3FB      0.079700
     26 HN3        -0.5390   -0.4440    0.6390 hn        1 3FB      0.358800
@<TRIPOS>BOND
     1    1    2 1   
     2    1   15 1   
     3    1   26 1   
     4    2    3 1   
     5    2   10 1   
     6    2   16 1   
     7    3    4 1   
     8    3   17 1   
     9    3   18 1   
    10    4    5 ar  
    11    4    9 ar  
    12    5    6 ar  
    13    5   19 1   
    14    6    7 ar  
    15    6   20 1   
    16    7    8 ar  
    17    7   21 1   
    18    8    9 ar  
    19    8   22 1   
    20    9   23 1   
    21   10   11 1   
    22   10   24 1   
    23   10   25 1   
    24   11   12 2   
    25   11   13 1   
    26   13   14 1   
@<TRIPOS>SUBSTRUCTURE
     1 3FB         1 TEMP              0 ****  ****    0 ROOT
