@<TRIPOS>MOLECULE
3FB
   25    23     1     0     0
SMALL
bcc


@<TRIPOS>ATOM
      1 N          -1.3970   -1.2210   -0.9590 n3        1 3FB     -0.335000
      2 CA         -0.0060   -0.9210   -0.9560 c3        1 3FB     -0.018000
      3 CB          0.4980   -0.8840    0.4680 c3        1 3FB     -0.129000
      4 CG          0.1610    0.4530    1.0870 c2        1 3FB     -0.036000
      5 CD1        -0.9820    0.5900    1.8590 c2        1 3FB     -0.107000
      6 CE1        -1.2650    1.8020    2.4690 c1        1 3FB     -0.140000
      7 CH         -0.4060    2.8760    2.3060 c1        1 3FB     -0.146000
      8 CE2         0.7370    2.7390    1.5340 c1        1 3FB     -0.146000
      9 CD2         1.0200    1.5280    0.9240 c1        1 3FB     -0.137000
     10 CCC         0.7410   -1.9860   -1.7270 c3        1 3FB     -0.261000
     11 C           0.5650   -1.7490   -3.2140 c2        1 3FB      0.326000
     12 O           1.2290   -0.8480   -3.7910 o         1 3FB     -0.584000
     13 OXT        -0.2310   -2.4670   -3.8750 o         1 3FB     -0.584000
     14 H          -1.5170   -2.1090   -1.1450 hn        1 3FB      0.148500
     15 HN2        -1.8170   -0.7150   -1.5980 hn        1 3FB      0.148500
     16 HA          0.1410   -0.0510   -1.3760 h1        1 3FB      0.093000
     17 HB1         0.0730   -1.5980    0.9830 hc        1 3FB      0.078500
     18 HB2         1.4680   -1.0100    0.4740 hc        1 3FB      0.078500
     19 HD1        -1.5880   -0.1670    1.9740 ha        1 3FB      0.145000
     20 HE1        -2.0700    1.8980    3.0120 ha        1 3FB      0.117000
     21 HH         -0.5990    3.7260    2.7470 ha        1 3FB      0.114000
     22 HE2         1.3420    3.4960    1.4200 ha        1 3FB      0.114000
     23 HD2         1.8250    1.4310    0.3800 ha        1 3FB      0.128000
     24 HC1         0.3870   -2.8670   -1.4930 hc        1 3FB      0.066000
     25 HC2         1.6920   -1.9460   -1.5010 hc        1 3FB      0.066000
@<TRIPOS>BOND
     1    1    2 1   
     2    1   14 1   
     3    1   15 1   
     4    2    3 1   
     5    2   10 1   
     6    2   16 1   
     7    3    4 1   
     8    3   17 1   
     9    3   18 1   
    10    4    5 1   
    11    4    9 1   
    12    5    6 1   
    13    5   19 1   
    14    6   20 1   
    15    7    8 1   
    16    7   21 1   
    17    8   22 1   
    18    9   23 1   
    19   10   11 1   
    20   10   24 1   
    21   10   25 1   
    22   11   12 1   
    23   11   13 1   
@<TRIPOS>SUBSTRUCTURE
     1 3FB         1 TEMP              0 ****  ****    0 ROOT
