@<TRIPOS>MOLECULE
3FB
   26    26     1     0     0
SMALL
bcc


@<TRIPOS>ATOM
      1 N          -0.0990    0.2080   -0.0200 n3        1 3FB     -0.920800
      2 CA          1.3370    0.0040    0.0270 c3        1 3FB      0.166500
      3 CB          1.9510    0.0430    1.4420 c3        1 3FB     -0.073100
      4 CG          1.6120    1.3040    2.1510 ca        1 3FB     -0.093300
      5 CD1         0.4580    1.3850    2.9400 ca        1 3FB     -0.129500
      6 CE1         0.1440    2.5670    3.6090 ca        1 3FB     -0.124500
      7 CH          0.9790    3.6780    3.4950 ca        1 3FB     -0.126000
      8 CE2         2.1300    3.6040    2.7110 ca        1 3FB     -0.124500
      9 CD2         2.4470    2.4230    2.0420 ca        1 3FB     -0.129500
     10 CCC         1.7380   -1.3280   -0.6280 c3        1 3FB     -0.175400
     11 C           1.6820   -1.2600   -2.1250 c         1 3FB      0.632100
     12 O           2.6360   -1.4350   -2.8860 o         1 3FB     -0.504000
     13 OXT         0.5060   -1.0260   -2.7690 oh        1 3FB     -0.582100
     14 H          -0.5640   -0.4030    0.6230 hn        1 3FB      0.358800
     15 HN2        -0.3200    1.1560    0.2190 hn        1 3FB      0.358800
     16 HA          1.8090    0.8410   -0.5710 h1        1 3FB      0.075700
     17 HB1         1.5850   -0.8400    2.0310 hc        1 3FB      0.058200
     18 HB2         3.0650   -0.0530    1.3490 hc        1 3FB      0.058200
     19 HD1        -0.1980    0.5080    3.0400 ha        1 3FB      0.131500
     20 HE1        -0.7630    2.6210    4.2290 ha        1 3FB      0.135000
     21 HH          0.7310    4.6110    4.0240 ha        1 3FB      0.135000
     22 HE2         2.7920    4.4790    2.6210 ha        1 3FB      0.135000
     23 HD2         3.3570    2.3670    1.4270 ha        1 3FB      0.131500
     24 HC1         1.0770   -2.1640   -0.2790 hc        1 3FB      0.079700
     25 HC2         2.7930   -1.5760   -0.3320 hc        1 3FB      0.079700
     26 HN3        -0.1950   -0.8230   -2.1310 ho        1 3FB      0.448000
@<TRIPOS>BOND
     1    1    2 1   
     2    1   14 1   
     3    1   15 1   
     4    2    3 1   
     5    2   10 1   
     6    2   16 1   
     7    3    4 1   
     8    3   17 1   
     9    3   18 1   
    10    4    5 ar  
    11    4    9 ar  
    12    5    6 ar  
    13    5   19 1   
    14    6    7 ar  
    15    6   20 1   
    16    7    8 ar  
    17    7   21 1   
    18    8    9 ar  
    19    8   22 1   
    20    9   23 1   
    21   10   11 1   
    22   10   24 1   
    23   10   25 1   
    24   11   12 2   
    25   11   13 1   
    26   13   26 1   
@<TRIPOS>SUBSTRUCTURE
     1 3FB         1 TEMP              0 ****  ****    0 ROOT
