@<TRIPOS>MOLECULE
3FB
   26    26     1     0     0
SMALL
bcc


@<TRIPOS>ATOM
      1 N          -0.0940    0.2190   -0.0330 n8        1 3FB     -0.920800
      2 CA          1.3390   -0.0000    0.0300 c3        1 3FB      0.166500
      3 CB          1.9370    0.0370    1.4520 c3        1 3FB     -0.073100
      4 CG          1.6050    1.3040    2.1540 ca        1 3FB     -0.093300
      5 CD1         0.4430    1.4000    2.9290 ca        1 3FB     -0.129500
      6 CE1         0.1340    2.5880    3.5910 ca        1 3FB     -0.124500
      7 CH          0.9830    3.6890    3.4830 ca        1 3FB     -0.126000
      8 CE2         2.1430    3.5990    2.7140 ca        1 3FB     -0.124500
      9 CD2         2.4540    2.4130    2.0520 ca        1 3FB     -0.129500
     10 CCC         1.7330   -1.3380   -0.6160 c3        1 3FB     -0.175400
     11 C           1.6940   -1.2740   -2.1140 c         1 3FB      0.632100
     12 O           2.6550   -1.4600   -2.8640 o         1 3FB     -0.504000
     13 OXT         0.5260   -1.0310   -2.7710 oh        1 3FB     -0.582100
     14 H          -0.1790   -0.8200   -2.1420 ho        1 3FB      0.448000
     15 HN2        -0.5730   -0.3840    0.6070 hn        1 3FB      0.358800
     16 HA          1.8270    0.8310   -0.5650 h1        1 3FB      0.075700
     17 HB1         1.5560   -0.8400    2.0400 hc        1 3FB      0.058200
     18 HB2         3.0520   -0.0720    1.3710 hc        1 3FB      0.058200
     19 HD1        -0.2250    0.5310    3.0230 ha        1 3FB      0.131500
     20 HE1        -0.7790    2.6540    4.2000 ha        1 3FB      0.135000
     21 HH          0.7400    4.6250    4.0060 ha        1 3FB      0.135000
     22 HE2         2.8160    4.4660    2.6290 ha        1 3FB      0.135000
     23 HD2         3.3710    2.3450    1.4470 ha        1 3FB      0.131500
     24 HC1         2.7820   -1.5960   -0.3080 hc        1 3FB      0.079700
     25 HC2         1.0600   -2.1660   -0.2710 hc        1 3FB      0.079700
     26 HN3        -0.3070    1.1700    0.2000 hn        1 3FB      0.358800
@<TRIPOS>BOND
     1    1    2 1   
     2    1   15 1   
     3    1   26 1   
     4    2    3 1   
     5    2   10 1   
     6    2   16 1   
     7    3    4 1   
     8    3   17 1   
     9    3   18 1   
    10    4    5 ar  
    11    4    9 ar  
    12    5    6 ar  
    13    5   19 1   
    14    6    7 ar  
    15    6   20 1   
    16    7    8 ar  
    17    7   21 1   
    18    8    9 ar  
    19    8   22 1   
    20    9   23 1   
    21   10   11 1   
    22   10   24 1   
    23   10   25 1   
    24   11   12 2   
    25   11   13 1   
    26   13   14 1   
@<TRIPOS>SUBSTRUCTURE
     1 3FB         1 TEMP              0 ****  ****    0 ROOT
