@<TRIPOS>MOLECULE
3FB
   25    25     1     0     0
SMALL
bcc


@<TRIPOS>ATOM
      1 N           0.8880    2.1340   -0.1550 n3        1 3FB     -0.903800
      2 CA          0.9330    0.6800   -0.1370 c3        1 3FB      0.166500
      3 CB         -0.0730    0.0090   -1.1030 c3        1 3FB     -0.080100
      4 CG         -1.4230   -0.1050   -0.4920 ca        1 3FB     -0.058300
      5 CD1        -2.5120    0.6330   -0.9630 ca        1 3FB     -0.132000
      6 CE1        -3.7680    0.4890   -0.3700 ca        1 3FB     -0.144000
      7 CH         -3.9410   -0.3920    0.6950 ca        1 3FB     -0.155000
      8 CE2        -2.8560   -1.1320    1.1690 ca        1 3FB     -0.144000
      9 CD2        -1.6010   -0.9940    0.5820 ca        1 3FB     -0.132000
     10 CCC         2.3290    0.1200   -0.4150 c3        1 3FB     -0.194400
     11 C           2.4320   -1.3720   -0.0490 c         1 3FB      0.909600
     12 O           1.5510   -1.8920    0.6990 o         1 3FB     -0.852800
     13 OXT         3.4140   -2.0130   -0.5210 o         1 3FB     -0.852800
     14 H           1.2910    2.4810   -1.0040 hn        1 3FB      0.323300
     15 HN2        -0.0670    2.4380   -0.1180 hn        1 3FB      0.323300
     16 HA          0.6590    0.3580    0.9150 h1        1 3FB      0.088700
     17 HB1        -0.1210    0.5660   -2.0740 hc        1 3FB      0.058700
     18 HB2         0.3070   -1.0290   -1.3160 hc        1 3FB      0.058700
     19 HD1        -2.3810    1.3270   -1.8040 ha        1 3FB      0.159500
     20 HE1        -4.6200    1.0730   -0.7460 ha        1 3FB      0.114500
     21 HH         -4.9300   -0.5040    1.1610 ha        1 3FB      0.109000
     22 HE2        -2.9910   -1.8270    2.0090 ha        1 3FB      0.114500
     23 HD2        -0.7210   -1.5690    0.9390 ha        1 3FB      0.159500
     24 HC1         2.5930    0.2470   -1.4940 hc        1 3FB      0.031200
     25 HC2         3.0910    0.6670    0.1940 hc        1 3FB      0.031200
@<TRIPOS>BOND
     1    1    2 1   
     2    1   14 1   
     3    1   15 1   
     4    2    3 1   
     5    2   10 1   
     6    2   16 1   
     7    3    4 1   
     8    3   17 1   
     9    3   18 1   
    10    4    5 ar  
    11    4    9 ar  
    12    5    6 ar  
    13    5   19 1   
    14    6    7 ar  
    15    6   20 1   
    16    7    8 ar  
    17    7   21 1   
    18    8    9 ar  
    19    8   22 1   
    20    9   23 1   
    21   10   11 1   
    22   10   24 1   
    23   10   25 1   
    24   11   12 1   
    25   11   13 1   
@<TRIPOS>SUBSTRUCTURE
     1 3FB         1 TEMP              0 ****  ****    0 ROOT
