@<TRIPOS>MOLECULE
3FC
   75    72     1     0     0
SMALL
bcc


@<TRIPOS>ATOM
      1 C1         -0.6090   -0.4160    3.6380 c3        1 3FC     -0.062000
      2 C2          0.8290   -0.2840    1.6530 c2        1 3FC      0.131000
      3 C3          2.3010   -0.4370    1.7800 c3        1 3FC     -0.221000
      4 C4          2.9640    0.1450    0.5390 c3        1 3FC     -0.160000
      5 C5          4.4980    0.1700    0.6700 c3        1 3FC      0.009000
      6 N6          4.9550    1.0480    1.7180 ns        1 3FC     -0.398000
      7 C7          6.0960    0.7410    2.4330 c2        1 3FC      0.436000
      8 O8          6.7410   -0.3290    2.3630 o         1 3FC     -0.468000
      9 O9          6.6060    1.6180    3.3430 oh        1 3FC     -0.253000
     10 C10        -1.5290    2.8700    5.8080 c2        1 3FC     -0.022000
     11 C11        -0.5630    3.7350    5.4620 c2        1 3FC     -0.174000
     12 C12         0.4090    3.4500    4.4370 c2        1 3FC      0.095000
     13 N13         0.6600    2.3930    3.6300 n2        1 3FC     -0.212000
     14 N14         1.6950    2.6740    2.8480 n2        1 3FC     -0.138000
     15 C15         2.1400    3.9100    3.1330 c2        1 3FC      0.010000
     16 O16         1.3470    4.4600    4.1530 os        1 3FC     -0.110000
     17 C17         3.2340    4.7650    2.6020 c3        1 3FC      0.019000
     18 C18         2.6860    5.9980    1.9700 c2        1 3FC     -0.538000
     19 C19         3.1320    6.6130    0.8910 c1        1 3FC      0.238000
     20 C20         5.2680    5.6260    0.2580 c2        1 3FC     -0.136000
     21 C21         4.6030    4.4860    0.5170 c2        1 3FC     -0.219000
     22 C22         4.1600    3.9940    1.7650 c1        1 3FC     -0.026000
     23 C23         5.7950    5.9320   -1.1470 c3        1 3FC      0.455000
     24 F24         7.0560    5.4290   -1.3590 f         1 3FC     -0.145667
     25 F25         5.0390    5.4100   -2.1660 f         1 3FC     -0.145667
     26 F26         5.8930    7.2700   -1.4100 f         1 3FC     -0.145667
     27 C27        -2.5690    3.1130    6.8560 c3        1 3FC     -0.046000
     28 C28        -2.4220    4.4710    7.5270 c3        1 3FC     -0.210000
     29 C29        -3.9420    3.0270    6.1950 c3        1 3FC     -0.210000
     30 C30        -2.4480    2.0170    7.9120 c3        1 3FC     -0.210000
     31 O34         6.7000   -1.1460   -0.6790 o         1 3FC     -0.428000
     32 N35         6.0200   -0.4080   -2.7320 nt        1 3FC     -0.370000
     33 N36         8.8190   -1.8940    1.4050 n7        1 3FC     -0.242000
     34 C37         9.8330   -2.7200    0.7630 c3        1 3FC     -0.115000
     35 C38        10.9120   -3.2510    1.6920 c2        1 3FC      0.182000
     36 O39        10.9000   -2.9690    2.8890 o         1 3FC     -0.265000
     37 C40         8.8580   -1.5800    2.6670 c1        1 3FC      0.484000
     38 O41         8.8670   -1.2720    3.7950 o         1 3FC      0.068000
     39 C31         5.0450    0.6040   -0.7010 c2        1 3FC      0.182000
     40 O32         4.7640    1.6880   -1.2060 o         1 3FC     -0.235000
     41 H11         0.4140   -0.3150    2.9620 hc        1 3FC      0.115000
     42 H12        -0.9330   -1.4710    3.5230 hc        1 3FC      0.115000
     43 H13        -1.3250    0.3310    3.2380 hc        1 3FC      0.115000
     44 H21A       -0.2260   -0.1620    4.6510 hc        1 3FC      0.115000
     45 H22A        0.4500    0.7230    1.3620 ha        1 3FC      0.163000
     46 H31         0.2580   -1.1500    1.2510 ha        1 3FC      0.163000
     47 H32         2.5890   -1.5160    1.9010 hc        1 3FC      0.147500
     48 H41         2.6720    0.1170    2.6900 hc        1 3FC      0.147500
     49 H42         2.5880    1.1880    0.3520 hc        1 3FC      0.120500
     50 H5          2.7080   -0.4830   -0.3550 hc        1 3FC      0.120500
     51 HN6         4.8780   -0.8760    0.8890 h1        1 3FC      0.160000
     52 H10         6.0930    2.4410    3.3940 ho        1 3FC      0.253000
     53 H111       -1.6140    1.8860    5.3110 ha        1 3FC      0.110000
     54 H112       -0.4510    4.7280    5.9360 ha        1 3FC      0.184000
     55 H18         3.8700    5.0810    3.5040 hc        1 3FC      0.188000
     56 H19         1.8250    6.4630    2.5010 ha        1 3FC      0.221000
     57 H21         5.5850    6.3640    1.0140 ha        1 3FC      0.186000
     58 H22         4.3940    3.7700   -0.3190 ha        1 3FC      0.215000
     59 H281       -1.4290    4.5570    8.0310 hc        1 3FC      0.088444
     60 H282       -3.2200    4.5950    8.3000 hc        1 3FC      0.088444
     61 H283       -2.5270    5.2930    6.7800 hc        1 3FC      0.088444
     62 H291       -4.7380    3.1710    6.9660 hc        1 3FC      0.088444
     63 H292       -4.0520    3.8210    5.4180 hc        1 3FC      0.088444
     64 H293       -4.0870    2.0290    5.7180 hc        1 3FC      0.088444
     65 H301       -2.5790    1.0100    7.4500 hc        1 3FC      0.088444
     66 H302       -1.4500    2.0620    8.4100 hc        1 3FC      0.088444
     67 H303       -3.2390    2.1570    8.6880 hc        1 3FC      0.088444
     68 H35         6.6370   -1.0270   -3.2060 hn        1 3FC      0.257500
     69 H371        8.0180   -1.5640    0.8620 hn        1 3FC      0.364000
     70 H372       10.3200   -2.0950   -0.0450 h1        1 3FC      0.165000
     71 H381        9.3020   -3.5920    0.2770 h1        1 3FC      0.165000
     72 H382       11.6790   -3.8880    1.2030 h4        1 3FC      0.178000
     73 C33         5.9920   -0.3820   -1.3770 c2        1 3FC      0.288000
     74 H62         4.5860    1.9900    1.7520 hn        1 3FC      0.287000
     75 H352        5.5200    0.2640   -3.2650 hn        1 3FC      0.257500
@<TRIPOS>BOND
     1    1   41 1   
     2    1   42 1   
     3    1   43 1   
     4    1   44 1   
     5    2    3 1   
     6    2   45 1   
     7    2   46 1   
     8    3    4 1   
     9    3   47 1   
    10    3   48 1   
    11    4    5 1   
    12    4   49 1   
    13    4   50 1   
    14    5    6 1   
    15    5   39 1   
    16    5   51 1   
    17    6    7 1   
    18    6   74 1   
    19    7    8 1   
    20    7    9 1   
    21    9   52 1   
    22   10   11 1   
    23   10   27 1   
    24   10   53 1   
    25   11   12 1   
    26   11   54 1   
    27   12   13 1   
    28   12   16 1   
    29   13   14 1   
    30   14   15 1   
    31   15   16 1   
    32   15   17 1   
    33   17   18 1   
    34   17   22 1   
    35   17   55 1   
    36   18   19 1   
    37   18   56 1   
    38   20   21 1   
    39   20   23 1   
    40   20   57 1   
    41   21   22 1   
    42   21   58 1   
    43   23   24 1   
    44   23   25 1   
    45   23   26 1   
    46   27   28 1   
    47   27   29 1   
    48   27   30 1   
    49   28   59 1   
    50   28   60 1   
    51   28   61 1   
    52   29   62 1   
    53   29   63 1   
    54   29   64 1   
    55   30   65 1   
    56   30   66 1   
    57   30   67 1   
    58   31   73 1   
    59   32   68 1   
    60   32   73 1   
    61   32   75 1   
    62   33   34 1   
    63   33   37 1   
    64   33   69 1   
    65   34   35 1   
    66   34   70 1   
    67   34   71 1   
    68   35   36 1   
    69   35   72 1   
    70   37   38 1   
    71   39   40 1   
    72   39   73 1   
@<TRIPOS>SUBSTRUCTURE
     1 3FC         1 TEMP              0 ****  ****    0 ROOT
