@<TRIPOS>MOLECULE
3FC
   73    75     1     0     0
SMALL
bcc


@<TRIPOS>ATOM
      1 C1          0.5730    3.1570    2.9260 c3        1 3FC     -0.093100
      2 C2         -0.4750    3.0630    1.8480 c3        1 3FC     -0.079400
      3 C3         -0.7830    1.6200    1.5030 c3        1 3FC     -0.079400
      4 C4         -1.8290    1.5380    0.4150 c3        1 3FC     -0.075400
      5 C5         -2.2390    0.0810    0.1300 c3        1 3FC      0.014700
      6 N6         -1.1750   -0.6800   -0.4810 n         1 3FC     -0.515900
      7 C7         -0.9620   -1.9920   -0.0820 c         1 3FC      0.735100
      8 O8         -1.3430   -2.5390    0.9630 o         1 3FC     -0.567000
      9 O9         -0.1800   -2.6840   -0.9830 os        1 3FC     -0.444900
     10 C10         0.3040   -3.9830   -0.5730 c3        1 3FC      0.166100
     11 C11         1.7830   -3.9920   -0.9690 c3        1 3FC     -0.115700
     12 C12         2.6270   -3.2960    0.0230 cc        1 3FC      0.464700
     13 N13         2.9290   -3.5420    1.3150 nd        1 3FC     -0.341000
     14 N14         3.7600   -2.6130    1.7520 nd        1 3FC     -0.330000
     15 C15         4.0190   -1.7410    0.7510 cc        1 3FC      0.496900
     16 O16         3.3070   -2.1420   -0.3960 os        1 3FC     -0.384800
     17 C17         4.8480   -0.5570    0.6760 ca        1 3FC     -0.102500
     18 C18         5.5640   -0.1400    1.8080 ca        1 3FC     -0.097000
     19 C19         6.3620    1.0010    1.7390 ca        1 3FC     -0.089000
     20 C20         6.4440    1.7220    0.5460 ca        1 3FC     -0.151300
     21 C21         5.7320    1.3110   -0.5830 ca        1 3FC     -0.089000
     22 C22         4.9330    0.1720   -0.5190 ca        1 3FC     -0.097000
     23 C23         7.3300    2.9600    0.4690 c3        1 3FC      0.686200
     24 F24         8.6190    2.7010    0.0660 f         1 3FC     -0.233967
     25 F25         6.8910    3.9210   -0.4090 f         1 3FC     -0.233967
     26 F26         7.4780    3.6310    1.6580 f         1 3FC     -0.233967
     27 C27        -0.5060   -5.0740   -1.3060 c3        1 3FC     -0.065000
     28 C28        -0.2390   -5.0370   -2.8010 c3        1 3FC     -0.092433
     29 C29        -0.1320   -6.4370   -0.7420 c3        1 3FC     -0.092433
     30 C30        -1.9900   -4.8360   -1.0530 c3        1 3FC     -0.092433
     31 O34        -4.9110    0.1840    1.2410 o         1 3FC     -0.544100
     32 N35        -5.6640    1.3550   -0.6360 n         1 3FC     -0.387500
     33 N36        -6.9200    1.6610   -0.2120 n         1 3FC     -0.261400
     34 C37        -7.0720    2.3660    1.0860 c3        1 3FC      0.010000
     35 C38        -8.3430    1.7810    1.7350 c3        1 3FC      0.109400
     36 O39        -8.7970    0.7230    0.8600 os        1 3FC     -0.381900
     37 C40        -7.9340    0.6070   -0.2100 c         1 3FC      0.754600
     38 O41        -8.1540   -0.2670   -1.0420 o         1 3FC     -0.556500
     39 C31        -3.5070    0.1300   -0.7230 c         1 3FC      0.482100
     40 O32        -3.5560   -0.1160   -1.9260 o         1 3FC     -0.486100
     41 H11         0.7850    4.2270    3.1680 hc        1 3FC      0.036367
     42 H12         0.2270    2.6460    3.8580 hc        1 3FC      0.036367
     43 H13         1.5240    2.6740    2.5960 hc        1 3FC      0.036367
     44 H21A       -1.4130    3.5760    2.1880 hc        1 3FC      0.038200
     45 H22A       -0.1190    3.6000    0.9290 hc        1 3FC      0.038200
     46 H31         0.1570    1.1070    1.1710 hc        1 3FC      0.055700
     47 H32        -1.1470    1.0840    2.4200 hc        1 3FC      0.055700
     48 H41        -2.7520    2.0910    0.7400 hc        1 3FC      0.053700
     49 H42        -1.4490    2.0260   -0.5200 hc        1 3FC      0.053700
     50 H5         -2.5160   -0.4160    1.1160 h1        1 3FC      0.138700
     51 HN6        -0.9400   -0.4490   -1.4210 hn        1 3FC      0.327500
     52 H10         0.1810   -4.1140    0.5390 h1        1 3FC      0.106700
     53 H111        2.1360   -5.0560   -1.0490 hc        1 3FC      0.094700
     54 H112        1.9060   -3.4970   -1.9710 hc        1 3FC      0.094700
     55 H18         5.5000   -0.7090    2.7490 ha        1 3FC      0.163500
     56 H19         6.9250    1.3370    2.6250 ha        1 3FC      0.158000
     57 H21         5.8000    1.8900   -1.5180 ha        1 3FC      0.158000
     58 H22         4.3680   -0.1590   -1.4050 ha        1 3FC      0.163500
     59 H281        0.8070   -5.3560   -3.0260 hc        1 3FC      0.042811
     60 H282       -0.9400   -5.7270   -3.3310 hc        1 3FC      0.042811
     61 H283       -0.3910   -4.0020   -3.1910 hc        1 3FC      0.042811
     62 H291       -0.2700   -6.4530    0.3660 hc        1 3FC      0.042811
     63 H292       -0.7870   -7.2220   -1.1930 hc        1 3FC      0.042811
     64 H293        0.9280   -6.6970   -0.9750 hc        1 3FC      0.042811
     65 H301       -2.3150   -3.8850   -1.5410 hc        1 3FC      0.042811
     66 H302       -2.5920   -5.6770   -1.4720 hc        1 3FC      0.042811
     67 H303       -2.1870   -4.7550    0.0440 hc        1 3FC      0.042811
     68 H35        -5.6620    1.2410   -1.6420 hn        1 3FC      0.347500
     69 H371       -6.1860    2.2430    1.7640 h1        1 3FC      0.086200
     70 H372       -7.2060    3.4530    0.8430 h1        1 3FC      0.086200
     71 H381       -8.1430    1.3130    2.7300 h1        1 3FC      0.078200
     72 H382       -9.1720    2.5270    1.7990 h1        1 3FC      0.078200
     73 C33        -4.7650    0.5120    0.0540 c         1 3FC      0.524100
@<TRIPOS>BOND
     1    1    2 1   
     2    1   41 1   
     3    1   42 1   
     4    1   43 1   
     5    2    3 1   
     6    2   44 1   
     7    2   45 1   
     8    3    4 1   
     9    3   46 1   
    10    3   47 1   
    11    4    5 1   
    12    4   48 1   
    13    4   49 1   
    14    5    6 1   
    15    5   39 1   
    16    5   50 1   
    17    6    7 1   
    18    6   51 1   
    19    7    8 2   
    20    7    9 1   
    21    9   10 1   
    22   10   11 1   
    23   10   27 1   
    24   10   52 1   
    25   11   12 1   
    26   11   53 1   
    27   11   54 1   
    28   12   13 2   
    29   12   16 1   
    30   13   14 1   
    31   14   15 2   
    32   15   16 1   
    33   15   17 1   
    34   17   18 ar  
    35   17   22 ar  
    36   18   19 ar  
    37   18   55 1   
    38   19   20 ar  
    39   19   56 1   
    40   20   21 ar  
    41   20   23 1   
    42   21   22 ar  
    43   21   57 1   
    44   22   58 1   
    45   23   24 1   
    46   23   25 1   
    47   23   26 1   
    48   27   28 1   
    49   27   29 1   
    50   27   30 1   
    51   28   59 1   
    52   28   60 1   
    53   28   61 1   
    54   29   62 1   
    55   29   63 1   
    56   29   64 1   
    57   30   65 1   
    58   30   66 1   
    59   30   67 1   
    60   31   73 2   
    61   32   33 1   
    62   32   68 1   
    63   32   73 1   
    64   33   34 1   
    65   33   37 1   
    66   34   35 1   
    67   34   69 1   
    68   34   70 1   
    69   35   36 1   
    70   35   71 1   
    71   35   72 1   
    72   36   37 1   
    73   37   38 2   
    74   39   40 2   
    75   39   73 1   
@<TRIPOS>SUBSTRUCTURE
     1 3FC         1 TEMP              0 ****  ****    0 ROOT
