@<TRIPOS>MOLECULE
3FC
   73    71     1     0     0
SMALL
bcc


@<TRIPOS>ATOM
      1 C1          6.2540   -4.0540    2.4550 c3        1 3FC     -0.094100
      2 C2          5.5200   -2.7330    2.2060 c3        1 3FC     -0.076400
      3 C3          5.0210   -2.6810    0.7290 c3        1 3FC     -0.091400
      4 C4          3.7010   -1.9310    0.6690 c3        1 3FC     -0.085400
      5 C5          3.0990   -2.0640   -0.7300 c3        1 3FC      0.018700
      6 N6          2.7740   -0.7630   -1.2400 n         1 3FC     -0.520900
      7 C7          1.4920   -0.1500   -0.9110 c         1 3FC      0.744100
      8 O8          0.4540   -0.7300   -1.1760 o         1 3FC     -0.599000
      9 O9          1.4540    1.1350   -0.3040 os        1 3FC     -0.436900
     10 C10         0.1490    1.5660    0.0560 c3        1 3FC      0.167100
     11 C11        -0.0150    3.0000   -0.2950 c3        1 3FC     -0.117700
     12 C12        -1.4980    3.2860   -0.6180 cc        1 3FC      0.460700
     13 N13        -2.3410    2.4600   -1.2740 nd        1 3FC     -0.337000
     14 N14        -3.5380    3.1000   -1.4100 nd        1 3FC     -0.332000
     15 C15        -3.4290    4.3130   -0.8400 cc        1 3FC      0.502400
     16 O16        -2.1640    4.4340   -0.3470 os        1 3FC     -0.390800
     17 C17        -4.4260    5.3470   -0.8620 cg        1 3FC     -0.105000
     18 C18        -4.0440    6.6840   -0.7740 c1        1 3FC     -0.037500
     19 C19        -5.0140    7.6970   -0.8390 c1        1 3FC     -0.037500
     20 C20        -6.3580    7.3680   -0.9910 c1        1 3FC     -0.114100
     21 C21        -6.7440    6.0230   -1.0800 c1        1 3FC     -0.031500
     22 C22        -5.7810    5.0140   -1.0160 c1        1 3FC     -0.032500
     23 C23        -7.4020    8.4580   -1.0140 c3        1 3FC      0.652000
     24 F24        -8.3520    8.1480   -1.9050 f         1 3FC     -0.233967
     25 F25        -7.9520    8.5760    0.2040 f         1 3FC     -0.233967
     26 F26        -6.8290    9.6160   -1.3580 f         1 3FC     -0.233967
     27 C27        -0.0530    1.3840    1.5560 c3        1 3FC     -0.065000
     28 C28         1.0540    2.2150    2.3550 c3        1 3FC     -0.092433
     29 C29        -1.4410    1.8830    1.9400 c3        1 3FC     -0.092433
     30 C30         0.0760   -0.0930    1.9080 c3        1 3FC     -0.092433
     31 C33         1.9120   -4.3690   -1.0140 c1        1 3FC      0.475500
     32 O34         2.8540   -4.8040   -1.6470 o         1 3FC     -0.557500
     33 N35         0.8170   -5.2350   -0.6690 n2        1 3FC     -0.508400
     34 N36         0.7870   -6.5660   -1.1500 n         1 3FC     -0.243400
     35 C37         0.0630   -7.0240   -2.2710 c3        1 3FC      0.005000
     36 C38         0.3330   -8.4900   -2.3940 c3        1 3FC      0.109400
     37 O39         1.2590   -8.8180   -1.3920 os        1 3FC     -0.385900
     38 C40         1.3620   -7.7060   -0.5020 c         1 3FC      0.757600
     39 O41         1.9500   -7.6960    0.5540 o         1 3FC     -0.556500
     40 C31         1.8530   -2.9020   -0.6620 c2        1 3FC      0.506300
     41 O32         0.7940   -2.3880   -0.3960 o         1 3FC     -0.486300
     42 H11         6.3830   -4.1790    3.4230 hc        1 3FC      0.037033
     43 H12         5.7210   -4.7980    2.0950 hc        1 3FC      0.037033
     44 H13         7.1350   -4.0310    2.0060 hc        1 3FC      0.037033
     45 H21A        6.1390   -1.9740    2.3730 hc        1 3FC      0.041200
     46 H22A        4.7450   -2.6670    2.8180 hc        1 3FC      0.041200
     47 H31         4.8950   -3.5880    0.3960 hc        1 3FC      0.054700
     48 H32         5.6900   -2.2140    0.1720 hc        1 3FC      0.054700
     49 H41         3.8530   -0.9920    0.8680 hc        1 3FC      0.064200
     50 H42         3.0800   -2.3100    1.3300 hc        1 3FC      0.064200
     51 H5          3.7600   -2.5000   -1.3350 h1        1 3FC      0.103700
     52 HN6         3.3360   -0.3520   -1.8320 hn        1 3FC      0.331500
     53 H10        -0.5150    1.0340   -0.4290 h1        1 3FC      0.105700
     54 H111        0.5330    3.2090   -1.0730 hc        1 3FC      0.094700
     55 H112        0.2630    3.5480    0.4510 hc        1 3FC      0.094700
     56 H18        -3.1120    6.9140   -0.6670 ha        1 3FC      0.100000
     57 H19        -4.7430    8.6410   -0.7770 ha        1 3FC      0.100000
     58 H21        -7.6930    5.7900   -1.1880 ha        1 3FC      0.102500
     59 H22        -6.0510    4.0750   -1.0770 ha        1 3FC      0.111500
     60 H281        1.8820    2.2640    1.8190 hc        1 3FC      0.043033
     61 H282        0.7160    3.1380    2.5310 hc        1 3FC      0.043033
     62 H283        1.2460    1.7640    3.2180 hc        1 3FC      0.043033
     63 H291       -2.0880    1.6050    1.2570 hc        1 3FC      0.043033
     64 H292       -1.6970    1.5050    2.8070 hc        1 3FC      0.043033
     65 H293       -1.4300    2.8530    2.0000 hc        1 3FC      0.043033
     66 H301       -0.5700   -0.6210    1.3680 hc        1 3FC      0.043033
     67 H302       -0.1130   -0.2190    2.8600 hc        1 3FC      0.043033
     68 H303        0.9890   -0.3960    1.7130 hc        1 3FC      0.043033
     69 H35         0.1250   -4.9170   -0.1540 hn        1 3FC      0.532400
     70 H371       -0.8800   -6.9340   -2.0480 h1        1 3FC      0.087200
     71 H372        0.4690   -6.5950   -3.0630 h1        1 3FC      0.087200
     72 H381       -0.5030   -8.9490   -2.1640 h1        1 3FC      0.076200
     73 H382        0.7880   -8.6180   -3.2450 h1        1 3FC      0.076200
@<TRIPOS>BOND
     1    1    2 1   
     2    1   42 1   
     3    1   43 1   
     4    1   44 1   
     5    2    3 1   
     6    2   45 1   
     7    2   46 1   
     8    3    4 1   
     9    3   47 1   
    10    3   48 1   
    11    4    5 1   
    12    4   49 1   
    13    4   50 1   
    14    5    6 1   
    15    5   40 1   
    16    5   51 1   
    17    6    7 1   
    18    6   52 1   
    19    7    8 2   
    20    7    9 1   
    21    9   10 1   
    22   10   11 1   
    23   10   27 1   
    24   10   53 1   
    25   11   12 1   
    26   11   54 1   
    27   11   55 1   
    28   12   13 2   
    29   12   16 1   
    30   13   14 1   
    31   14   15 2   
    32   15   16 1   
    33   15   17 1   
    34   17   22 3   
    35   18   19 3   
    36   18   56 1   
    37   19   57 1   
    38   20   21 3   
    39   20   23 1   
    40   21   58 1   
    41   22   59 1   
    42   23   24 1   
    43   23   25 1   
    44   23   26 1   
    45   27   28 1   
    46   27   29 1   
    47   27   30 1   
    48   28   60 1   
    49   28   61 1   
    50   28   62 1   
    51   29   63 1   
    52   29   64 1   
    53   29   65 1   
    54   30   66 1   
    55   30   67 1   
    56   30   68 1   
    57   31   32 2   
    58   31   40 2   
    59   33   34 2   
    60   33   69 1   
    61   34   35 1   
    62   34   38 1   
    63   35   36 1   
    64   35   70 1   
    65   35   71 1   
    66   36   37 1   
    67   36   72 1   
    68   36   73 1   
    69   37   38 1   
    70   38   39 2   
    71   40   41 1   
@<TRIPOS>SUBSTRUCTURE
     1 3FC         1 TEMP              0 ****  ****    0 ROOT
