@<TRIPOS>MOLECULE
3FD
   61    65     1     0     0
SMALL
bcc


@<TRIPOS>ATOM
      1 C18        -3.8570   -1.8690    1.3470 ca        1 3FD     -0.100000
      2 C17        -4.7470   -2.9380    1.2910 ca        1 3FD     -0.121000
      3 C16        -6.1240   -2.7020    1.1980 ca        1 3FD      0.024400
      4 CL20       -7.1850   -4.0230    1.1330 cl        1 3FD     -0.063400
      5 C15        -6.6030   -1.3840    1.1600 ca        1 3FD      0.013400
      6 C14        -5.7050   -0.3130    1.2110 ca        1 3FD     -0.108000
      7 C13        -4.3330   -0.5540    1.3070 ca        1 3FD     -0.102300
      8 C12        -3.3800    0.6020    1.4080 c3        1 3FD      0.230100
      9 N11        -2.3530    0.5520    0.3790 nh        1 3FD     -0.761200
     10 C6         -1.4920    1.6660    0.3150 cc        1 3FD      0.602700
     11 N7         -1.3530    2.6220    1.2770 nd        1 3FD     -0.591100
     12 C8         -0.3090    3.4410    0.8330 ca        1 3FD     -0.203200
     13 C4          0.3000    4.6070    1.4070 ca        1 3FD      0.750200
     14 N10        -0.1660    5.1230    2.5880 nh        1 3FD     -0.957500
     15 N1          1.3400    5.2090    0.7330 nb        1 3FD     -0.785000
     16 C2          1.7160    4.6640   -0.4500 ca        1 3FD      0.676900
     17 N3          1.2320    3.5820   -1.1070 nb        1 3FD     -0.755000
     18 C9          0.2020    2.9760   -0.4450 ca        1 3FD      0.455800
     19 N5         -0.5970    1.8720   -0.8100 na        1 3FD     -0.290000
     20 C21        -0.3060    0.8970   -1.8330 c3        1 3FD      0.251800
     21 O22         0.7130   -0.0260   -1.4230 os        1 3FD     -0.409600
     22 C24         0.1570    1.5170   -3.1870 c3        1 3FD      0.085100
     23 O26        -0.6490    0.9040   -4.1790 oh        1 3FD     -0.603800
     24 C25         1.6370    1.0990   -3.3400 c3        1 3FD      0.095100
     25 O27         1.8430    0.4350   -4.5670 oh        1 3FD     -0.587800
     26 C23         1.9420    0.1960   -2.1280 c3        1 3FD      0.104100
     27 C28         2.9790    0.7910   -1.1760 c3        1 3FD      0.121400
     28 O29         3.8870   -0.2710   -0.8740 os        1 3FD     -0.424600
     29 C30         4.8560    0.1210    0.0980 c3        1 3FD      0.172700
     30 C31         5.7570   -1.0360    0.3760 ca        1 3FD     -0.062300
     31 C32         5.4000   -2.3440    0.0350 ca        1 3FD     -0.122500
     32 C33         6.2550   -3.4050    0.3300 ca        1 3FD     -0.091500
     33 C34         7.4760   -3.1600    0.9730 ca        1 3FD     -0.021000
     34 C37         8.3500   -4.2390    1.2770 cg        1 3FD      0.234800
     35 N38         9.0650   -5.1230    1.5260 n1        1 3FD     -0.366800
     36 C35         7.8370   -1.8490    1.3150 ca        1 3FD     -0.091500
     37 C36         6.9800   -0.7940    1.0150 ca        1 3FD     -0.122500
     38 CL21       -8.2630   -1.0570    1.0480 cl        1 3FD     -0.065400
     39 H18        -2.7750   -2.0590    1.4250 ha        1 3FD      0.157000
     40 H17        -4.3680   -3.9710    1.3210 ha        1 3FD      0.156000
     41 H14        -6.0860    0.7210    1.1800 ha        1 3FD      0.154000
     42 H12        -3.9590    1.5720    1.3730 h1        1 3FD      0.067700
     43 H12A       -2.8560    0.5560    2.4080 h1        1 3FD      0.067700
     44 HN11       -2.7100    0.2770   -0.5160 hn        1 3FD      0.406800
     45 HN10       -0.8450    4.6110    3.0940 hn        1 3FD      0.448300
     46 HN1A        0.2960    5.8830    3.0210 hn        1 3FD      0.448300
     47 H2          2.5570    5.1880   -0.9560 h5        1 3FD      0.051100
     48 H21        -1.2260    0.2580   -1.9990 h2        1 3FD      0.108700
     49 H24         0.0330    2.6290   -3.2350 h1        1 3FD      0.092700
     50 HO26       -0.3240    1.2220   -5.0330 ho        1 3FD      0.427000
     51 H25         2.3100    1.9970   -3.3830 h1        1 3FD      0.112700
     52 HO27        1.3110   -0.3740   -4.5570 ho        1 3FD      0.415000
     53 H23         2.2770   -0.8290   -2.4600 h1        1 3FD      0.101700
     54 H28         3.5450    1.6330   -1.6560 h1        1 3FD      0.050200
     55 H28A        2.4870    1.1530   -0.2350 h1        1 3FD      0.050200
     56 H30         5.4460    0.9940   -0.2970 h1        1 3FD      0.043200
     57 H30A        4.3330    0.4320    1.0440 h1        1 3FD      0.043200
     58 H32         4.4400   -2.5310   -0.4720 ha        1 3FD      0.149000
     59 H33         5.9710   -4.4330    0.0580 ha        1 3FD      0.145500
     60 H35         8.7960   -1.6550    1.8190 ha        1 3FD      0.145500
     61 H36         7.2660    0.2340    1.2810 ha        1 3FD      0.149000
@<TRIPOS>BOND
     1    1    2 ar  
     2    1    7 ar  
     3    1   39 1   
     4    2    3 ar  
     5    2   40 1   
     6    3    4 1   
     7    3    5 ar  
     8    5    6 ar  
     9    5   38 1   
    10    6    7 ar  
    11    6   41 1   
    12    7    8 1   
    13    8    9 1   
    14    8   42 1   
    15    8   43 1   
    16    9   10 1   
    17    9   44 1   
    18   10   11 2   
    19   10   19 1   
    20   11   12 1   
    21   12   13 ar  
    22   12   18 ar  
    23   13   14 1   
    24   13   15 ar  
    25   14   45 1   
    26   14   46 1   
    27   15   16 ar  
    28   16   17 ar  
    29   16   47 1   
    30   17   18 ar  
    31   18   19 1   
    32   19   20 1   
    33   20   21 1   
    34   20   22 1   
    35   20   48 1   
    36   21   26 1   
    37   22   23 1   
    38   22   24 1   
    39   22   49 1   
    40   23   50 1   
    41   24   25 1   
    42   24   26 1   
    43   24   51 1   
    44   25   52 1   
    45   26   27 1   
    46   26   53 1   
    47   27   28 1   
    48   27   54 1   
    49   27   55 1   
    50   28   29 1   
    51   29   30 1   
    52   29   56 1   
    53   29   57 1   
    54   30   31 ar  
    55   30   37 ar  
    56   31   32 ar  
    57   31   58 1   
    58   32   33 ar  
    59   32   59 1   
    60   33   34 1   
    61   33   36 ar  
    62   34   35 3   
    63   36   37 ar  
    64   36   60 1   
    65   37   61 1   
@<TRIPOS>SUBSTRUCTURE
     1 3FD         1 TEMP              0 ****  ****    0 ROOT
