@<TRIPOS>MOLECULE
3FD
   61    55     1     0     0
SMALL
bcc


@<TRIPOS>ATOM
      1 C18         3.8150    5.3140    0.4400 c1        1 3FD     -0.100000
      2 C17         5.1990    5.4020    0.2390 c1        1 3FD     -0.121000
      3 C16         5.7510    5.0550   -1.0060 c1        1 3FD     -0.055000
      4 CL20        7.4700    5.0520   -1.2200 cl        1 3FD      0.014000
      5 C15         4.9270    4.6250   -2.0340 c2        1 3FD     -0.064000
      6 C14         3.5400    4.5370   -1.8290 c1        1 3FD     -0.107000
      7 C13         2.9910    4.8840   -0.5880 c1        1 3FD     -0.092000
      8 C12         1.4710    4.8330   -0.3790 c3        1 3FD     -0.013000
      9 N11         1.0880    3.5160    0.0050 n3        1 3FD     -0.252000
     10 C6         -0.3380    3.1630    0.0940 c2        1 3FD      0.117000
     11 N7         -1.1610    4.1850   -0.3180 n2        1 3FD     -0.162000
     12 C8         -2.4580    3.7170   -0.3120 c1        1 3FD     -0.215000
     13 C4         -3.6470    4.3120   -0.6270 c1        1 3FD      0.224000
     14 N10        -4.0780    5.6150   -1.0140 n3        1 3FD     -0.348000
     15 N1         -4.8190    3.6010   -0.5280 n1        1 3FD     -0.258000
     16 C2         -4.7990    2.3110   -0.1200 c1        1 3FD      0.016000
     17 N3         -3.6080    1.7120    0.1970 n1        1 3FD     -0.226000
     18 C9         -2.4350    2.4200    0.0990 c1        1 3FD      0.068000
     19 N5         -1.1150    2.0750    0.3520 n1        1 3FD     -0.206000
     20 C21        -0.4320    0.8450    0.7120 c2        1 3FD      0.152000
     21 O22        -0.8370   -0.3270   -0.2950 os        1 3FD     -0.289000
     22 C24        -0.8020    0.4550    1.8850 c3        1 3FD     -0.026000
     23 O26         0.1560    0.9520    2.9330 oh        1 3FD     -0.329000
     24 C25        -0.7710   -1.0760    1.8230 c3        1 3FD     -0.017000
     25 O27         0.2980   -1.5570    2.5310 oh        1 3FD     -0.312000
     26 C23        -0.6190   -1.4290    0.3360 c3        1 3FD     -0.006000
     27 C28        -1.6760   -2.5180   -0.0670 c3        1 3FD     -0.040000
     28 O29        -0.9940   -3.6910   -0.5480 os        1 3FD     -0.277000
     29 C30        -1.7800   -4.8810   -0.4950 c3        1 3FD      0.015000
     30 C31        -0.8360   -6.1340   -0.4370 c2        1 3FD     -0.058000
     31 C32        -0.6160   -6.9000   -1.5950 c2        1 3FD     -0.137000
     32 C33         0.2120   -8.0210   -1.5440 c1        1 3FD     -0.091000
     33 C34         0.8310   -8.3900   -0.3310 c1        1 3FD     -0.016000
     34 C37         1.6690   -9.6070   -0.2730 c1        1 3FD     -0.095000
     35 N38         2.3070  -10.5330   -0.2310 n1        1 3FD     -0.039000
     36 C35         0.6160   -7.6320    0.8210 c1        1 3FD     -0.091000
     37 C36        -0.2220   -6.4980    0.7710 c1        1 3FD     -0.109000
     38 CL21        5.6390    3.9660   -3.5140 cl        1 3FD      0.013000
     39 H18         3.4110    5.5660    1.3480 ha        1 3FD      0.154000
     40 H17         5.7790    5.7050    0.9650 ha        1 3FD      0.155000
     41 H14         2.9530    4.2330   -2.5580 ha        1 3FD      0.153000
     42 H12         1.0150    5.0750   -1.2160 h1        1 3FD      0.105500
     43 H12A        1.2150    5.4740    0.3370 h1        1 3FD      0.105500
     44 HN11        1.7100    2.9020    0.1730 hn        1 3FD      0.211000
     45 HN10       -3.4990    6.2980   -1.0110 hn        1 3FD      0.239000
     46 HN1A       -4.9140    5.7400   -1.3110 hn        1 3FD      0.239000
     47 H2         -5.6420    1.8030   -0.0510 ha        1 3FD      0.190000
     48 H21         0.5180    0.9790    0.6970 h4        1 3FD      0.164000
     49 H24        -1.6670    0.7540    2.0680 h1        1 3FD      0.145000
     50 HO26       -0.2940    1.0740    3.7240 ho        1 3FD      0.226000
     51 H25        -1.5970   -1.4410    2.1710 h1        1 3FD      0.155000
     52 HO27        0.0220   -1.9900    3.2010 ho        1 3FD      0.213000
     53 H23         0.2880   -1.7520    0.1530 h1        1 3FD      0.139000
     54 H28        -2.2260   -2.7600    0.7300 h1        1 3FD      0.087000
     55 H28A       -2.2710   -2.1580   -0.7840 h1        1 3FD      0.087000
     56 H30        -2.3600   -4.8630    0.3230 h1        1 3FD      0.084500
     57 H30A       -2.3650   -4.9370   -1.3270 h1        1 3FD      0.084500
     58 H32        -1.0410   -6.6480   -2.4310 ha        1 3FD      0.138000
     59 H33         0.3660   -8.5630   -2.3680 ha        1 3FD      0.145000
     60 H35         1.0410   -7.8850    1.6520 ha        1 3FD      0.147000
     61 H36        -0.3760   -5.9590    1.5860 ha        1 3FD      0.162000
@<TRIPOS>BOND
     1    1    7 1   
     2    1   39 1   
     3    2    3 1   
     4    2   40 1   
     5    3    5 1   
     6    5    6 1   
     7    5   38 1   
     8    6   41 1   
     9    7    8 1   
    10    8    9 1   
    11    8   42 1   
    12    8   43 1   
    13    9   10 1   
    14    9   44 1   
    15   10   11 1   
    16   10   19 1   
    17   11   12 1   
    18   12   18 1   
    19   13   14 1   
    20   13   15 1   
    21   14   45 1   
    22   14   46 1   
    23   16   17 1   
    24   16   47 1   
    25   20   21 1   
    26   20   22 1   
    27   20   48 1   
    28   21   26 1   
    29   22   23 1   
    30   22   24 1   
    31   22   49 1   
    32   23   50 1   
    33   24   25 1   
    34   24   26 1   
    35   24   51 1   
    36   25   52 1   
    37   26   27 1   
    38   26   53 1   
    39   27   28 1   
    40   27   54 1   
    41   27   55 1   
    42   28   29 1   
    43   29   30 1   
    44   29   56 1   
    45   29   57 1   
    46   30   31 1   
    47   30   37 1   
    48   31   32 1   
    49   31   58 1   
    50   32   59 1   
    51   33   34 1   
    52   33   36 1   
    53   34   35 1   
    54   36   60 1   
    55   37   61 1   
@<TRIPOS>SUBSTRUCTURE
     1 3FD         1 TEMP              0 ****  ****    0 ROOT
