@<TRIPOS>MOLECULE
3FD
   61    65     1     0     0
SMALL
bcc


@<TRIPOS>ATOM
      1 C18        -0.4840   -0.9930   -1.3150 ca        1 3FD     -0.110000
      2 C17         0.8850   -0.9180   -1.5540 ca        1 3FD     -0.120000
      3 C16         1.7800   -0.8010   -0.4840 ca        1 3FD      0.023400
      4 Cl20        3.4420   -0.7140   -0.8050 cl        1 3FD     -0.064400
      5 C15         1.2910   -0.7590    0.8310 ca        1 3FD      0.013400
      6 C14        -0.0860   -0.8310    1.0650 ca        1 3FD     -0.096000
      7 C13        -0.9740   -0.9470   -0.0060 ca        1 3FD     -0.099300
      8 C12        -2.4540   -0.9840    0.2410 c3        1 3FD      0.231100
      9 N11        -2.8330   -2.0850    1.1130 nu        1 3FD     -0.766200
     10 C6         -4.2190   -2.2490    1.3260 cc        1 3FD      0.599700
     11 N7         -5.2150   -1.4150    0.9170 nd        1 3FD     -0.590100
     12 C8         -6.3930   -1.9850    1.4130 ca        1 3FD     -0.204200
     13 C4         -7.7650   -1.5770    1.3110 ca        1 3FD      0.744200
     14 N10        -8.1020   -0.4480    0.6050 nv        1 3FD     -0.950500
     15 N1         -8.7340   -2.3620    1.8930 nb        1 3FD     -0.784000
     16 C2         -8.3270   -3.4950    2.5200 ca        1 3FD      0.677900
     17 N3         -7.0810   -3.9980    2.6900 nb        1 3FD     -0.755000
     18 C9         -6.1080   -3.2160    2.1350 ca        1 3FD      0.455800
     19 N5         -4.7070   -3.3450    2.1400 na        1 3FD     -0.288000
     20 C21        -3.8780   -4.4630    2.5200 c3        1 3FD      0.240800
     21 O22        -3.5390   -5.2540    1.3700 os        1 3FD     -0.420600
     22 C24        -4.4870   -5.4370    3.5680 c3        1 3FD      0.088100
     23 O26        -3.4380   -5.7030    4.4870 oh        1 3FD     -0.599800
     24 C25        -4.8370   -6.7150    2.7680 c3        1 3FD      0.092100
     25 O27        -4.2690   -7.8570    3.3660 oh        1 3FD     -0.586800
     26 C23        -4.2930   -6.4730    1.3440 c3        1 3FD      0.103100
     27 C28        -5.4190   -6.3850    0.3170 c3        1 3FD      0.115400
     28 O29        -4.8180   -6.6060   -0.9570 os        1 3FD     -0.418600
     29 C30        -5.7540   -6.4370   -2.0220 c3        1 3FD      0.170700
     30 C31        -5.0580   -6.6650   -3.3220 ca        1 3FD     -0.062300
     31 C32        -3.6680   -6.7850   -3.4080 ca        1 3FD     -0.123500
     32 C33        -3.0540   -6.9840   -4.6430 ca        1 3FD     -0.092000
     33 C34        -3.8330   -7.0610   -5.8060 ca        1 3FD     -0.021000
     34 C37        -3.2100   -7.2610   -7.0680 cg        1 3FD      0.234800
     35 N38        -2.7010   -7.4230   -8.1010 n1        1 3FD     -0.365800
     36 C35        -5.2280   -6.9410   -5.7230 ca        1 3FD     -0.092000
     37 C36        -5.8340   -6.7460   -4.4860 ca        1 3FD     -0.123500
     38 Cl21        2.3430   -0.6200    2.1530 cl        1 3FD     -0.064400
     39 H18        -1.1790   -1.0870   -2.1640 ha        1 3FD      0.145000
     40 H17         1.2670   -0.9510   -2.5870 ha        1 3FD      0.154000
     41 H14        -0.4730   -0.7940    2.0970 ha        1 3FD      0.164000
     42 H12        -2.7640   -0.0250    0.7520 h1        1 3FD      0.065700
     43 H12A       -2.9970   -1.0310   -0.7500 h1        1 3FD      0.065700
     44 HN11       -2.3850   -2.9520    0.8720 hn        1 3FD      0.416800
     45 HN10       -7.3740    0.1660    0.3340 hn        1 3FD      0.444300
     46 HN1A       -9.0300   -0.1030    0.6430 hn        1 3FD      0.444300
     47 H2         -9.1470   -4.1000    2.9640 h5        1 3FD      0.052100
     48 H21        -2.8900   -4.0530    2.9000 h2        1 3FD      0.126700
     49 H24        -5.3710   -5.0250    4.1150 h1        1 3FD      0.102700
     50 HO26       -3.8080   -6.2920    5.1600 ho        1 3FD      0.425000
     51 H25        -5.9440   -6.9060    2.7730 h1        1 3FD      0.109700
     52 HO27       -3.3080   -7.7330    3.3820 ho        1 3FD      0.417000
     53 H23        -3.5550   -7.2660    1.0380 h1        1 3FD      0.101700
     54 H28        -6.1830   -7.1860    0.5090 h1        1 3FD      0.046700
     55 H28A       -5.9100   -5.3760    0.3460 h1        1 3FD      0.046700
     56 H30        -6.5960   -7.1720   -1.8960 h1        1 3FD      0.044200
     57 H30A       -6.1720   -5.3920   -1.9910 h1        1 3FD      0.044200
     58 H32        -3.0590   -6.7250   -2.4910 ha        1 3FD      0.150000
     59 H33        -1.9600   -7.0800   -4.7050 ha        1 3FD      0.145500
     60 H35        -5.8410   -7.0040   -6.6350 ha        1 3FD      0.145500
     61 H36        -6.9290   -6.6550   -4.4220 ha        1 3FD      0.150000
@<TRIPOS>BOND
     1    1    2 ar  
     2    1    7 ar  
     3    1   39 1   
     4    2    3 ar  
     5    2   40 1   
     6    3    4 1   
     7    3    5 ar  
     8    5    6 ar  
     9    5   38 1   
    10    6    7 ar  
    11    6   41 1   
    12    7    8 1   
    13    8    9 1   
    14    8   42 1   
    15    8   43 1   
    16    9   10 1   
    17    9   44 1   
    18   10   11 2   
    19   10   19 1   
    20   11   12 1   
    21   12   13 ar  
    22   12   18 ar  
    23   13   14 1   
    24   13   15 ar  
    25   14   45 1   
    26   14   46 1   
    27   15   16 ar  
    28   16   17 ar  
    29   16   47 1   
    30   17   18 ar  
    31   18   19 1   
    32   19   20 1   
    33   20   21 1   
    34   20   22 1   
    35   20   48 1   
    36   21   26 1   
    37   22   23 1   
    38   22   24 1   
    39   22   49 1   
    40   23   50 1   
    41   24   25 1   
    42   24   26 1   
    43   24   51 1   
    44   25   52 1   
    45   26   27 1   
    46   26   53 1   
    47   27   28 1   
    48   27   54 1   
    49   27   55 1   
    50   28   29 1   
    51   29   30 1   
    52   29   56 1   
    53   29   57 1   
    54   30   31 ar  
    55   30   37 ar  
    56   31   32 ar  
    57   31   58 1   
    58   32   33 ar  
    59   32   59 1   
    60   33   34 1   
    61   33   36 ar  
    62   34   35 3   
    63   36   37 ar  
    64   36   60 1   
    65   37   61 1   
@<TRIPOS>SUBSTRUCTURE
     1 3FD         1 TEMP              0 ****  ****    0 ROOT
