@<TRIPOS>MOLECULE
3FD
   63    67     1     0     0
SMALL
bcc


@<TRIPOS>ATOM
      1 C18        -0.1140    0.1820    0.5680 ca        1 3FD     -0.083000
      2 C17         1.2700    0.2680    0.6610 ca        1 3FD     -0.112000
      3 C16         1.9140    0.0750    1.8930 ca        1 3FD      0.068400
      4 CL20        3.5880    0.1840    1.9740 cl        1 3FD      0.021600
      5 C15         1.1460   -0.2030    3.0430 ca        1 3FD      0.009400
      6 C14        -0.2460   -0.2830    2.9460 ca        1 3FD     -0.087000
      7 C13        -0.8770   -0.0930    1.7110 ca        1 3FD     -0.211300
      8 C12        -2.3580   -0.1240    1.6300 c3        1 3FD      0.205100
      9 N11        -2.8210   -1.5590    1.4410 n4        1 3FD     -0.702000
     10 C6         -4.2660   -1.6840    1.2350 cc        1 3FD      0.479700
     11 N7         -5.1910   -0.8000    1.7160 nd        1 3FD     -0.513100
     12 C8         -6.4130   -1.3230    1.3080 ca        1 3FD     -0.178200
     13 C4         -7.7630   -0.9060    1.4620 ca        1 3FD      0.569200
     14 N10        -8.0510    0.3430    2.1950 n4        1 3FD     -0.825300
     15 N1         -8.7830   -1.6180    0.9570 nb        1 3FD     -0.651000
     16 C2         -8.4690   -2.7790    0.2800 ca        1 3FD      0.701900
     17 N3         -7.2530   -3.3080    0.0470 nb        1 3FD     -0.565000
     18 C9         -6.2160   -2.5770    0.5560 ca        1 3FD      0.491800
     19 N5         -4.8340   -2.7840    0.5250 na        1 3FD     -0.230000
     20 C21        -4.0430   -3.7860   -0.2050 c3        1 3FD      0.204800
     21 O22        -4.8640   -4.6280   -0.9820 os        1 3FD     -0.347600
     22 C24        -3.1770   -4.6810    0.7500 c3        1 3FD      0.106100
     23 O26        -1.8930   -4.1170    0.8280 oh        1 3FD     -0.645800
     24 C25        -3.2870   -6.0850    0.1170 c3        1 3FD      0.102100
     25 O27        -2.1550   -6.2390   -0.7130 oh        1 3FD     -0.604800
     26 C23        -4.5840   -6.0260   -0.7140 c3        1 3FD      0.068100
     27 C28        -5.7730   -6.6710   -0.0010 c3        1 3FD      0.122400
     28 O29        -6.8610   -6.8200   -0.8920 os        1 3FD     -0.399600
     29 C30        -7.0340   -8.1320   -1.4310 c3        1 3FD      0.161700
     30 C31        -6.0320   -8.4860   -2.4790 ca        1 3FD     -0.132300
     31 C32        -5.3960   -9.7320   -2.4480 ca        1 3FD     -0.128000
     32 C33        -4.5000  -10.0900   -3.4530 ca        1 3FD     -0.094000
     33 C34        -4.2310   -9.1960   -4.4990 ca        1 3FD      0.008000
     34 C37        -3.3050   -9.5490   -5.5180 cg        1 3FD      0.206800
     35 N38        -2.5440   -9.8340   -6.3500 n1        1 3FD     -0.313800
     36 C35        -4.8770   -7.9520   -4.5410 ca        1 3FD     -0.094000
     37 C36        -5.7730   -7.6040   -3.5350 ca        1 3FD     -0.128000
     38 CL21        1.8770   -0.4360    4.5450 cl        1 3FD     -0.000400
     39 H18        -0.6030    0.3540   -0.4040 ha        1 3FD      0.147000
     40 H17         1.8690    0.4960   -0.2380 ha        1 3FD      0.184000
     41 H14        -0.8420   -0.4750    3.8530 ha        1 3FD      0.152000
     42 H12        -2.8300    0.2630    2.5790 hx        1 3FD      0.116200
     43 H12A       -2.7390    0.4710    0.7510 hx        1 3FD      0.116200
     44 HN11       -2.3120   -1.9770    0.6370 hn        1 3FD      0.485300
     45 HN10       -7.6590    0.2720    3.1430 hn        1 3FD      0.488133
     46 HN1A       -7.6100    1.1290    1.6990 hn        1 3FD      0.488133
     47 H2         -9.3490   -3.3440   -0.1240 h5        1 3FD      0.127100
     48 H21        -3.3920   -3.2030   -0.9300 h2        1 3FD      0.104700
     49 H24        -3.5810   -4.7040    1.7990 h1        1 3FD      0.091700
     50 HO26       -1.2690   -4.6400    0.2960 ho        1 3FD      0.483000
     51 H25        -3.3280   -6.8830    0.9040 h1        1 3FD      0.094700
     52 HO27       -2.0420   -7.1830   -0.8950 ho        1 3FD      0.456000
     53 H23        -4.4520   -6.4740   -1.7430 h1        1 3FD      0.136700
     54 H28        -5.4560   -7.6520    0.4420 h1        1 3FD      0.057700
     55 H28A       -6.1520   -5.9890    0.8070 h1        1 3FD      0.057700
     56 H30        -8.0630   -8.0750   -1.8890 h1        1 3FD      0.075700
     57 H30A       -7.0360   -8.8890   -0.6010 h1        1 3FD      0.075700
     58 H32        -5.6150  -10.4450   -1.6380 ha        1 3FD      0.147500
     59 H33        -4.0110  -11.0780   -3.4310 ha        1 3FD      0.159000
     60 H35        -4.6850   -7.2600   -5.3760 ha        1 3FD      0.159000
     61 H36        -6.2960   -6.6350   -3.5690 ha        1 3FD      0.147500
     62 H112       -2.5620   -2.1190    2.2720 hn        1 3FD      0.485300
     63 H103       -9.0690    0.5100    2.2580 hn        1 3FD      0.488133
@<TRIPOS>BOND
     1    1    2 ar  
     2    1    7 ar  
     3    1   39 1   
     4    2    3 ar  
     5    2   40 1   
     6    3    4 1   
     7    3    5 ar  
     8    5    6 ar  
     9    5   38 1   
    10    6    7 ar  
    11    6   41 1   
    12    7    8 1   
    13    8    9 1   
    14    8   42 1   
    15    8   43 1   
    16    9   10 1   
    17    9   44 1   
    18    9   62 1   
    19   10   11 2   
    20   10   19 1   
    21   11   12 1   
    22   12   13 ar  
    23   12   18 ar  
    24   13   14 1   
    25   13   15 ar  
    26   14   45 1   
    27   14   46 1   
    28   14   63 1   
    29   15   16 ar  
    30   16   17 ar  
    31   16   47 1   
    32   17   18 ar  
    33   18   19 1   
    34   19   20 1   
    35   20   21 1   
    36   20   22 1   
    37   20   48 1   
    38   21   26 1   
    39   22   23 1   
    40   22   24 1   
    41   22   49 1   
    42   23   50 1   
    43   24   25 1   
    44   24   26 1   
    45   24   51 1   
    46   25   52 1   
    47   26   27 1   
    48   26   53 1   
    49   27   28 1   
    50   27   54 1   
    51   27   55 1   
    52   28   29 1   
    53   29   30 1   
    54   29   56 1   
    55   29   57 1   
    56   30   31 ar  
    57   30   37 ar  
    58   31   32 ar  
    59   31   58 1   
    60   32   33 ar  
    61   32   59 1   
    62   33   34 1   
    63   33   36 ar  
    64   34   35 3   
    65   36   37 ar  
    66   36   60 1   
    67   37   61 1   
@<TRIPOS>SUBSTRUCTURE
     1 3FD         1 TEMP              0 ****  ****    0 ROOT
