@<TRIPOS>MOLECULE
3FE
   38    41     1     0     0
SMALL
bcc


@<TRIPOS>ATOM
      1 N3         -0.0210   -0.2460    0.2120 nb        1 3FE     -0.710000
      2 C4          5.4410    1.1970   -1.8760 ca        1 3FE     -0.093000
      3 N2         -0.2070   -0.4450   -2.2210 nb        1 3FE     -0.762000
      4 C7          3.3870    0.1450   -1.0140 cc        1 3FE     -0.061400
      5 C6          4.6920   -0.8890   -2.8530 ca        1 3FE     -0.077000
      6 C9          1.3220   -0.0480    0.0300 ca        1 3FE      0.446800
      7 C13         0.8920   -0.8950   -4.7570 c3        1 3FE      0.141300
      8 C8          3.5310    0.2880    0.3720 cd        1 3FE     -0.098100
      9 N5          8.2710    3.1170   -2.6120 n1        1 3FE     -0.363800
     10 C16         2.2010    1.0440   -4.1540 c3        1 3FE      0.141300
     11 C1          5.7950   -0.8850   -3.7040 ca        1 3FE     -0.142000
     12 C2          6.7290    0.1480   -3.6490 ca        1 3FE     -0.091000
     13 C3          6.5500    1.1920   -2.7310 ca        1 3FE     -0.024000
     14 C5          4.5030    0.1550   -1.9340 ca        1 3FE     -0.025800
     15 N1          2.2960    0.1770    1.0070 na        1 3FE     -0.275100
     16 C10         1.9800   -0.0530   -1.2760 ca        1 3FE     -0.301400
     17 C11         1.1270   -0.2370   -2.4080 ca        1 3FE      0.688200
     18 C12        -0.6850   -0.4470   -0.9440 ca        1 3FE      0.663900
     19 N4          1.6960   -0.2580   -3.7170 nh        1 3FE     -0.726300
     20 C14         1.6530   -0.9610   -6.0880 c3        1 3FE      0.123900
     21 O1          2.1200    0.3210   -6.4920 os        1 3FE     -0.412600
     22 C15         2.9310    0.9370   -5.4990 c3        1 3FE      0.123900
     23 H1          5.3010    2.0190   -1.1570 ha        1 3FE      0.145000
     24 H2          3.9580   -1.7090   -2.9010 ha        1 3FE      0.156000
     25 H3         -0.0790   -0.3470   -4.9310 h1        1 3FE      0.059700
     26 H4          0.6510   -1.9420   -4.4240 h1        1 3FE      0.059700
     27 H5          4.4420    0.4550    0.9520 h4        1 3FE      0.178000
     28 H6          2.9210    1.4250   -3.3770 h1        1 3FE      0.059700
     29 H7          1.3600    1.7890   -4.2600 h1        1 3FE      0.059700
     30 H8          5.9330   -1.7070   -4.4220 ha        1 3FE      0.142000
     31 H9          7.6010    0.1460   -4.3190 ha        1 3FE      0.146000
     32 H10         2.1310    0.2190    1.9790 hn        1 3FE      0.316700
     33 H11        -1.7780   -0.6250   -0.8510 h5        1 3FE      0.055100
     34 H12         0.9580   -1.2770   -6.9090 h1        1 3FE      0.056450
     35 H13         2.5190   -1.6710   -6.0200 h1        1 3FE      0.056450
     36 H14         3.8880    0.3610   -5.3810 h1        1 3FE      0.056450
     37 H15         3.1400    1.9620   -5.9020 h1        1 3FE      0.056450
     38 C17         7.4960    2.2510   -2.6660 cg        1 3FE      0.233800
@<TRIPOS>BOND
     1    1    6 ar  
     2    1   18 ar  
     3    2   13 ar  
     4    2   14 ar  
     5    2   23 1   
     6    3   17 ar  
     7    3   18 ar  
     8    4    8 2   
     9    4   14 1   
    10    4   16 1   
    11    5   11 ar  
    12    5   14 ar  
    13    5   24 1   
    14    6   15 1   
    15    6   16 ar  
    16    7   19 1   
    17    7   20 1   
    18    7   25 1   
    19    7   26 1   
    20    8   15 1   
    21    8   27 1   
    22    9   38 3   
    23   10   19 1   
    24   10   22 1   
    25   10   28 1   
    26   10   29 1   
    27   11   12 ar  
    28   11   30 1   
    29   12   13 ar  
    30   12   31 1   
    31   13   38 1   
    32   15   32 1   
    33   16   17 ar  
    34   17   19 1   
    35   18   33 1   
    36   20   21 1   
    37   20   34 1   
    38   20   35 1   
    39   21   22 1   
    40   22   36 1   
    41   22   37 1   
@<TRIPOS>SUBSTRUCTURE
     1 3FE         1 TEMP              0 ****  ****    0 ROOT
