@<TRIPOS>MOLECULE
3FE
   38    41     1     0     0
SMALL
bcc


@<TRIPOS>ATOM
      1 N3          0.0070   -0.2110    0.2240 nb        1 3FE     -0.710000
      2 C4          5.4490    1.1960   -1.9370 ca        1 3FE     -0.093000
      3 N2         -0.2160   -0.3980   -2.2070 nb        1 3FE     -0.762000
      4 C7          3.4000    0.1570   -1.0500 cc        1 3FE     -0.061400
      5 C6          4.6700   -0.8800   -2.9100 ca        1 3FE     -0.077000
      6 C9          1.3480   -0.0230    0.0230 ca        1 3FE      0.446800
      7 C13         0.8420   -0.8470   -4.7600 c3        1 3FE      0.141300
      8 C8          3.5650    0.2940    0.3350 cd        1 3FE     -0.098100
      9 N5          8.2850    3.0960   -2.7060 n1        1 3FE     -0.363800
     10 C16         2.1760    1.0790   -4.1680 c3        1 3FE      0.141300
     11 C1          5.7610   -0.8820   -3.7770 ca        1 3FE     -0.142000
     12 C2          6.7040    0.1430   -3.7320 ca        1 3FE     -0.091000
     13 C3          6.5460    1.1860   -2.8080 ca        1 3FE     -0.024000
     14 C5          4.5030    0.1620   -1.9860 ca        1 3FE     -0.025800
     15 N1          2.3380    0.1900    0.9870 na        1 3FE     -0.275100
     16 C10         1.9880   -0.0280   -1.2920 ca        1 3FE     -0.301400
     17 C11         1.1170   -0.2010   -2.4120 ca        1 3FE      0.688200
     18 C12        -0.6760   -0.4020   -0.9230 ca        1 3FE      0.663900
     19 N4          1.6670   -0.2210   -3.7290 nh        1 3FE     -0.726300
     20 C14         1.5840   -0.9130   -6.1020 c3        1 3FE      0.123900
     21 O1          2.0560    0.3660   -6.5080 os        1 3FE     -0.412600
     22 C15         2.8860    0.9710   -5.5240 c3        1 3FE      0.123900
     23 H1          5.3270    2.0160   -1.2130 ha        1 3FE      0.145000
     24 H2          3.9290   -1.6940   -2.9510 ha        1 3FE      0.156000
     25 H3          0.5980   -1.8940   -4.4280 h1        1 3FE      0.059700
     26 H4         -0.1260   -0.2900   -4.9180 h1        1 3FE      0.059700
     27 H5          4.4850    0.4510    0.9030 h4        1 3FE      0.178000
     28 H6          1.3400    1.8310   -4.2590 h1        1 3FE      0.059700
     29 H7          2.9110    1.4500   -3.4000 h1        1 3FE      0.059700
     30 H8          5.8820   -1.7020   -4.5010 ha        1 3FE      0.142000
     31 H9          7.5660    0.1370   -4.4150 ha        1 3FE      0.146000
     32 H10         2.1870    0.2300    1.9620 hn        1 3FE      0.316700
     33 H11        -1.7690   -0.5710   -0.8150 h5        1 3FE      0.055100
     34 H12         2.4450   -1.6310   -6.0490 h1        1 3FE      0.056450
     35 H13         0.8740   -1.2210   -6.9140 h1        1 3FE      0.056450
     36 H14         3.0980    1.9960   -5.9260 h1        1 3FE      0.056450
     37 H15         3.8400    0.3870   -5.4230 h1        1 3FE      0.056450
     38 C17         7.5020    2.2360   -2.7520 cg        1 3FE      0.233800
@<TRIPOS>BOND
     1    1    6 ar  
     2    1   18 ar  
     3    2   13 ar  
     4    2   14 ar  
     5    2   23 1   
     6    3   17 ar  
     7    3   18 ar  
     8    4    8 2   
     9    4   14 1   
    10    4   16 1   
    11    5   11 ar  
    12    5   14 ar  
    13    5   24 1   
    14    6   15 1   
    15    6   16 ar  
    16    7   19 1   
    17    7   20 1   
    18    7   25 1   
    19    7   26 1   
    20    8   15 1   
    21    8   27 1   
    22    9   38 3   
    23   10   19 1   
    24   10   22 1   
    25   10   28 1   
    26   10   29 1   
    27   11   12 ar  
    28   11   30 1   
    29   12   13 ar  
    30   12   31 1   
    31   13   38 1   
    32   15   32 1   
    33   16   17 ar  
    34   17   19 1   
    35   18   33 1   
    36   20   21 1   
    37   20   34 1   
    38   20   35 1   
    39   21   22 1   
    40   22   36 1   
    41   22   37 1   
@<TRIPOS>SUBSTRUCTURE
     1 3FE         1 TEMP              0 ****  ****    0 ROOT
