@<TRIPOS>MOLECULE
3FF
   53    53     1     0     0
SMALL
bcc


@<TRIPOS>ATOM
      1 OAA        -0.8910   -0.3840    0.9520 o         1 3FF     -0.241000
      2 OAC         0.5690    4.0870   -5.5930 oh        1 3FF     -0.323000
      3 FAE         7.4780    2.7370   -2.2600 f         1 3FF     -0.092000
      4 CAF         6.1640   -1.2020   -2.0440 ca        1 3FF     -0.175000
      5 CAG         5.6470    1.2460    1.6700 c1        1 3FF     -0.152000
      6 CAH        -2.1980    3.8820   -1.6310 c2        1 3FF     -0.577000
      7 CAI        -2.7060    4.9080   -2.3180 c1        1 3FF      0.419000
      8 CAJ         5.5310   -0.2220   -1.2920 ca        1 3FF     -0.039000
      9 CAK         6.4230    0.8830    2.5070 c1        1 3FF     -0.161000
     10 CAL         7.6960    0.4700   -2.9520 ca        1 3FF     -0.194000
     11 CAM         3.3900    1.7520    0.8390 c1        1 3FF     -0.431000
     12 CAN        -0.7510    1.8250   -1.2550 c2        1 3FF     -0.278000
     13 CAO        -0.9490    6.0330   -7.4870 c1        1 3FF     -0.075000
     14 CAP         0.0700    2.8850    2.2240 c3        1 3FF     -0.089000
     15 CAQ         1.4710    2.8620    1.7640 c2        1 3FF     -0.356000
     16 CAR        -1.4210    3.7890   -4.2770 c3        1 3FF     -0.092000
     17 NAS         5.2850    2.1440   -0.5690 n4        1 3FF      0.021000
     18 OAT        -0.9110    2.8000   -3.3450 os        1 3FF     -0.128000
     19 CAU        -0.1050    0.5400    0.7340 c2        1 3FF      0.244000
     20 CAV         7.2480   -0.8600   -2.8760 ca        1 3FF      0.156000
     21 CAW         4.6640    1.6640    0.7560 c2        1 3FF      0.067000
     22 CAX         7.0510    1.4540   -2.1920 ca        1 3FF      0.124000
     23 CAY        -1.2830    2.8730   -2.0640 c2        1 3FF      0.391000
     24 CAZ        -0.9000    2.9060    1.0450 c3        1 3FF     -0.181000
     25 CBA         2.0720    1.7650    1.2310 c2        1 3FF      0.118000
     26 CBB         5.9530    1.1160   -1.3530 ca        1 3FF     -0.157000
     27 CBC         1.3540    0.4600    1.0620 c3        1 3FF     -0.167000
     28 CBD        -0.6150    1.8050    0.0980 c2        1 3FF      0.111000
     29 CBE        -0.7060    3.5000   -5.6020 c3        1 3FF     -0.012000
     30 HOAB        0.1700    7.4450   -8.2110 ho        1 3FF      0.180000
     31 HOAC        0.4950    4.9530   -6.0280 ho        1 3FF      0.237000
     32 HAF         5.8300   -2.2510   -1.9900 ha        1 3FF      0.174000
     33 HAG         7.1110    0.5630    3.2500 ha        1 3FF      0.235000
     34 HAH        -2.5740    3.7930   -0.5780 ha        1 3FF      0.250000
     35 HAI        -0.8160    3.9020    0.5340 hc        1 3FF      0.116500
     36 HAJ         4.6930   -0.5010   -0.6270 ha        1 3FF      0.173000
     37 HAK         1.8390   -0.1510    0.2500 hc        1 3FF      0.140000
     38 HAL         8.5470    0.7390   -3.5970 ha        1 3FF      0.186000
     39 HAM         1.4620   -0.1230    2.0230 hc        1 3FF      0.140000
     40 HAN        -0.3890    0.9490   -1.8350 ha        1 3FF      0.191000
     41 HAO        -1.7490    6.2080   -8.2380 ha        1 3FF      0.039000
     42 HAOA       -0.5440    2.3930   -5.7150 h1        1 3FF      0.130000
     43 HAP        -1.9550    2.7870    1.4240 hc        1 3FF      0.116500
     44 HAPA       -0.1180    3.7990    2.8480 hc        1 3FF      0.098000
     45 HAQ        -0.1560    1.9900    2.8680 hc        1 3FF      0.098000
     46 HAQA        2.0460    3.7850    1.9110 ha        1 3FF      0.138000
     47 HAR        -1.1480    4.8180   -3.9070 h1        1 3FF      0.124500
     48 HARA       -2.5310    3.6500   -4.3690 h1        1 3FF      0.124500
     49 HNAS        4.5230    2.5410   -1.1350 hn        1 3FF      0.225500
     50 HBE        -1.3470    3.9000   -6.4350 h1        1 3FF      0.130000
     51 HAS2        5.9620    2.8840   -0.3600 hn        1 3FF      0.225500
     52 FAD         7.8630   -1.8130   -3.6070 f         1 3FF     -0.074000
     53 OAB         0.1080    6.7540   -7.5130 oh        1 3FF     -0.133000
@<TRIPOS>BOND
     1    1   19 1   
     2    2   29 1   
     3    2   31 1   
     4    3   22 1   
     5    4    8 1   
     6    4   20 1   
     7    4   32 1   
     8    5    9 1   
     9    5   21 1   
    10    6    7 1   
    11    6   23 1   
    12    6   34 1   
    13    8   26 1   
    14    8   36 1   
    15    9   33 1   
    16   10   20 1   
    17   10   22 1   
    18   10   38 1   
    19   11   21 1   
    20   11   25 1   
    21   12   23 1   
    22   12   28 1   
    23   12   40 1   
    24   13   41 1   
    25   13   53 1   
    26   14   15 1   
    27   14   24 1   
    28   14   44 1   
    29   14   45 1   
    30   15   25 1   
    31   15   46 1   
    32   16   18 1   
    33   16   29 1   
    34   16   47 1   
    35   16   48 1   
    36   17   21 1   
    37   17   26 1   
    38   17   49 1   
    39   17   51 1   
    40   18   23 1   
    41   19   27 1   
    42   19   28 1   
    43   20   52 1   
    44   22   26 1   
    45   24   28 1   
    46   24   35 1   
    47   24   43 1   
    48   25   27 1   
    49   27   37 1   
    50   27   39 1   
    51   29   42 1   
    52   29   50 1   
    53   30   53 1   
@<TRIPOS>SUBSTRUCTURE
     1 3FF         1 TEMP              0 ****  ****    0 ROOT
