@<TRIPOS>MOLECULE
3FF
   52    54     1     0     0
SMALL
bcc


@<TRIPOS>ATOM
      1 OAA         3.6070    3.4540   -2.5550 o         1 3FF     -0.273000
      2 OAC        -2.5960    1.5190   -5.7390 oh        1 3FF     -0.361000
      3 FAE         5.7850   -2.3580    1.4570 f         1 3FF     -0.109000
      4 CAF         7.6060   -0.4750   -1.7720 ca        1 3FF     -0.147000
      5 CAG         5.4490    2.5820    0.1760 c1        1 3FF     -0.253000
      6 CAH        -1.2990    4.3550   -1.9740 c2        1 3FF     -0.229000
      7 CAI        -0.5180    5.3740   -1.2320 c3        1 3FF     -0.114000
      8 CAJ         6.6180    0.1940   -1.0620 ca        1 3FF     -0.109000
      9 CAK         5.1060    3.8050   -0.1830 c2        1 3FF     -0.067000
     10 CAL         7.3610   -2.4130   -0.3180 ca        1 3FF     -0.175000
     11 CAM         3.5430    2.1380    1.4460 c2        1 3FF     -0.033000
     12 CAN         0.7740    3.1600   -2.4860 c2        1 3FF     -0.042000
     13 CAO        -3.5650    3.9610   -6.2370 c1        1 3FF     -0.032000
     14 CAP         0.6030    4.2610    0.7070 c3        1 3FF     -0.176000
     15 CAQ         1.7020    3.6440    1.3930 c1        1 3FF     -0.082000
     16 CAR        -2.6830    2.4440   -3.5000 c3        1 3FF     -0.075000
     17 NAS         4.9640    0.2300    0.7670 nh        1 3FF     -0.229000
     18 OAT        -1.2660    2.3250   -3.3260 os        1 3FF     -0.227000
     19 CAU         2.9540    3.7690   -1.5540 c2        1 3FF      0.274000
     20 CAV         7.9810   -1.7790   -1.4060 ca        1 3FF      0.084000
     21 CAW         4.7440    1.5880    0.7700 c2        1 3FF      0.093000
     22 CAX         6.3730   -1.7340    0.4030 ca        1 3FF      0.054000
     23 CAY        -0.6730    3.3210   -2.5740 c2        1 3FF      0.048000
     24 CAZ         0.8160    4.8690   -0.6810 c3        1 3FF     -0.086000
     25 CBA         2.9500    3.2390    0.8810 c2        1 3FF     -0.111000
     26 CBB         5.9790   -0.4060    0.0430 ca        1 3FF      0.037000
     27 CBC         3.6180    4.0480   -0.2250 c3        1 3FF     -0.120000
     28 CBD         1.4800    3.9020   -1.6070 c2        1 3FF     -0.173000
     29 CBE        -3.0760    1.2960   -4.4250 c3        1 3FF     -0.023000
     30 HOAB       -4.2320    2.3150   -7.0100 ho        1 3FF      0.168000
     31 HOAC       -1.6320    1.5490   -5.6900 ho        1 3FF      0.223000
     32 HAF         8.0970    0.0120   -2.6280 ha        1 3FF      0.157000
     33 HAG         5.7850    4.6470   -0.3450 ha        1 3FF      0.157000
     34 HAH        -2.3820    4.5230   -2.0460 ha        1 3FF      0.144000
     35 HAI        -0.3210    6.2350   -1.9310 hc        1 3FF      0.096500
     36 HAJ         6.3400    1.2160   -1.3770 ha        1 3FF      0.180000
     37 HAK         3.4730    5.1460    0.0020 hc        1 3FF      0.137000
     38 HAL         7.6490   -3.4330   -0.0270 ha        1 3FF      0.165000
     39 HAM         3.0830    1.6050    2.2900 ha        1 3FF      0.158000
     40 HAN         1.2530    2.4360   -3.1660 ha        1 3FF      0.165000
     41 HAO        -2.5770    3.8210   -6.7360 ha        1 3FF      0.003000
     42 HAOA       -2.6900    0.3200   -4.0310 h1        1 3FF      0.105500
     43 HAP         1.4870    5.7690   -0.5620 hc        1 3FF      0.097000
     44 HAPA       -1.1350    5.7760   -0.3840 hc        1 3FF      0.096500
     45 HAQ         0.1830    5.0600    1.3870 hc        1 3FF      0.145000
     46 HAQA       -0.1930    3.4550    0.6470 hc        1 3FF      0.145000
     47 HAR        -2.9300    3.4330   -3.9750 h1        1 3FF      0.104500
     48 HARA       -3.1940    2.3500   -2.5080 h1        1 3FF      0.104500
     49 HNAS        4.5570   -0.2950    1.5110 hn        1 3FF      0.242000
     50 HBE        -4.1940    1.2660   -4.5300 h1        1 3FF      0.105500
     51 FAD         8.9410   -2.4320   -2.1030 f         1 3FF     -0.101000
     52 OAB        -4.4730    3.0810   -6.4400 oh        1 3FF     -0.145000
@<TRIPOS>BOND
     1    1   19 1   
     2    2   29 1   
     3    2   31 1   
     4    3   22 1   
     5    4    8 1   
     6    4   20 1   
     7    4   32 1   
     8    5    9 1   
     9    5   21 1   
    10    6    7 1   
    11    6   23 1   
    12    6   34 1   
    13    7   24 1   
    14    7   35 1   
    15    7   44 1   
    16    8   26 1   
    17    8   36 1   
    18    9   27 1   
    19    9   33 1   
    20   10   20 1   
    21   10   22 1   
    22   10   38 1   
    23   11   21 1   
    24   11   25 1   
    25   11   39 1   
    26   12   23 1   
    27   12   28 1   
    28   12   40 1   
    29   13   41 1   
    30   13   52 1   
    31   14   15 1   
    32   14   24 1   
    33   14   45 1   
    34   14   46 1   
    35   15   25 1   
    36   16   18 1   
    37   16   29 1   
    38   16   47 1   
    39   16   48 1   
    40   17   21 1   
    41   17   26 1   
    42   17   49 1   
    43   18   23 1   
    44   19   27 1   
    45   19   28 1   
    46   20   51 1   
    47   22   26 1   
    48   24   28 1   
    49   24   43 1   
    50   25   27 1   
    51   27   37 1   
    52   29   42 1   
    53   29   50 1   
    54   30   52 1   
@<TRIPOS>SUBSTRUCTURE
     1 3FF         1 TEMP              0 ****  ****    0 ROOT
