@<TRIPOS>MOLECULE
3FF
   52    55     1     0     0
SMALL
bcc


@<TRIPOS>ATOM
      1 OAA         0.9700    1.3430   -2.6200 o         1 3FF     -0.521100
      2 OAC         6.6560   -3.1460    0.7810 oh        1 3FF     -0.576800
      3 FAE        -6.9160    1.2460    0.5660 f         1 3FF     -0.138900
      4 CAF        -5.8780   -2.6610   -0.4010 ca        1 3FF     -0.158000
      5 CAG        -2.6130    0.0460   -0.8640 ca        1 3FF     -0.197000
      6 CAH         4.3960    1.3200    1.0510 ca        1 3FF     -0.189000
      7 CAI         3.4240    2.3110    1.2000 ca        1 3FF     -0.096000
      8 CAJ        -4.9070   -1.7920    0.0750 ca        1 3FF     -0.106000
      9 CAK        -1.3530    0.3010   -1.3770 ca        1 3FF     -0.051000
     10 CAL        -7.5540   -0.9020   -0.2230 ca        1 3FF     -0.180000
     11 CAM        -2.1190    1.5500    0.9700 ca        1 3FF     -0.202000
     12 CAN         3.0480    0.2900   -0.7040 ca        1 3FF     -0.112000
     13 CAO         8.5760   -1.7090    0.4850 c3        1 3FF      0.093400
     14 CAP         1.2100    3.3320    0.5710 c3        1 3FF     -0.036100
     15 CAQ        -0.0230    2.7660    1.2430 c3        1 3FF     -0.041100
     16 CAR         6.2720   -0.7320    0.6610 c3        1 3FF      0.093400
     17 NAS        -4.2480    0.3980    0.9690 nh        1 3FF     -0.616000
     18 OAT         5.0870   -0.7230   -0.1410 os        1 3FF     -0.320900
     19 CAU         0.8760    1.2900   -1.3870 c         1 3FF      0.597300
     20 CAV        -7.2050   -2.2200   -0.5530 ca        1 3FF      0.131900
     21 CAW        -3.0170    0.6580    0.3440 ca        1 3FF      0.177600
     22 CAX        -6.5660   -0.0250    0.2460 ca        1 3FF      0.100900
     23 CAY         4.2030    0.3110    0.1020 ca        1 3FF      0.121100
     24 CAZ         2.2670    2.2980    0.4210 ca        1 3FF     -0.086300
     25 CBA        -0.8420    1.8020    0.4500 ca        1 3FF      0.010700
     26 CBB        -5.2130   -0.4550    0.4050 ca        1 3FF      0.092600
     27 CBC        -0.4440    1.1560   -0.7280 ca        1 3FF     -0.189600
     28 CBD         2.0870    1.2810   -0.5310 ca        1 3FF     -0.115600
     29 CBE         7.0880   -1.9380    0.1880 c3        1 3FF      0.097100
     30 HOAB        9.0090   -0.7820   -1.1550 ho        1 3FF      0.405000
     31 HOAC        6.6920   -3.0310    1.7380 ho        1 3FF      0.398000
     32 HAF        -5.6190   -3.6990   -0.6560 ha        1 3FF      0.157000
     33 HAG        -3.2960   -0.6210   -1.4130 ha        1 3FF      0.146000
     34 HAH         5.2990    1.3500    1.6760 ha        1 3FF      0.139000
     35 HAI         3.5770    3.1100    1.9410 ha        1 3FF      0.136000
     36 HAJ        -3.8750   -2.1590    0.2060 ha        1 3FF      0.159000
     37 HAK        -1.0490   -0.1680   -2.3280 ha        1 3FF      0.151000
     38 HAL        -8.5910   -0.5530   -0.3340 ha        1 3FF      0.168000
     39 HAM        -2.4180    2.0630    1.8980 ha        1 3FF      0.137000
     40 HAN         2.9240   -0.4980   -1.4610 ha        1 3FF      0.161000
     41 HAO         9.1500   -2.6380    0.2260 h1        1 3FF      0.056700
     42 HAOA        8.7330   -1.4650    1.5700 h1        1 3FF      0.056700
     43 HAP         0.9410    3.7460   -0.4380 hc        1 3FF      0.058200
     44 HAPA        1.5940    4.1860    1.1910 hc        1 3FF      0.058200
     45 HAQ         0.2820    2.2520    2.1970 hc        1 3FF      0.059200
     46 HAQA       -0.6840    3.6310    1.5320 hc        1 3FF      0.059200
     47 HAR         6.8530    0.2140    0.4910 h1        1 3FF      0.054200
     48 HARA        5.9960   -0.8300    1.7430 h1        1 3FF      0.054200
     49 HNAS       -4.6350    1.1850    1.4520 hn        1 3FF      0.428800
     50 HBE         6.9240   -2.0990   -0.9160 h1        1 3FF      0.098700
     51 FAD        -8.1520   -3.0690   -1.0160 f         1 3FF     -0.132900
     52 OAB         9.0840   -0.5920   -0.2120 oh        1 3FF     -0.591800
@<TRIPOS>BOND
     1    1   19 2   
     2    2   29 1   
     3    2   31 1   
     4    3   22 1   
     5    4    8 ar  
     6    4   20 ar  
     7    4   32 1   
     8    5    9 ar  
     9    5   21 ar  
    10    5   33 1   
    11    6    7 ar  
    12    6   23 ar  
    13    6   34 1   
    14    7   24 ar  
    15    7   35 1   
    16    8   26 ar  
    17    8   36 1   
    18    9   27 ar  
    19    9   37 1   
    20   10   20 ar  
    21   10   22 ar  
    22   10   38 1   
    23   11   21 ar  
    24   11   25 ar  
    25   11   39 1   
    26   12   23 ar  
    27   12   28 ar  
    28   12   40 1   
    29   13   29 1   
    30   13   41 1   
    31   13   42 1   
    32   13   52 1   
    33   14   15 1   
    34   14   24 1   
    35   14   43 1   
    36   14   44 1   
    37   15   25 1   
    38   15   45 1   
    39   15   46 1   
    40   16   18 1   
    41   16   29 1   
    42   16   47 1   
    43   16   48 1   
    44   17   21 1   
    45   17   26 1   
    46   17   49 1   
    47   18   23 1   
    48   19   27 1   
    49   19   28 1   
    50   20   51 1   
    51   22   26 ar  
    52   24   28 ar  
    53   25   27 ar  
    54   29   50 1   
    55   30   52 1   
@<TRIPOS>SUBSTRUCTURE
     1 3FF         1 TEMP              0 ****  ****    0 ROOT
