@<TRIPOS>MOLECULE
3FF
   52    48     1     0     0
SMALL
bcc


@<TRIPOS>ATOM
      1 OAA        -1.3680   -1.6010    0.3470 o         1 3FF     -0.284000
      2 OAB        -3.7110   -1.0760   -8.6430 oh        1 3FF     -0.322000
      3 OAC        -1.4970   -0.0950   -7.3850 oh        1 3FF     -0.336000
      4 FAD         3.5580   -1.7580    9.1070 f         1 3FF     -0.096000
      5 FAE         3.1370    1.4840    5.7830 f         1 3FF     -0.085000
      6 CAF         3.8760   -2.4530    6.8470 c1        1 3FF     -0.167000
      7 CAG         2.5480   -1.3300    1.9570 c1        1 3FF     -0.196000
      8 CAH        -2.3560    2.0260   -2.8210 c1        1 3FF     -0.186000
      9 CAI        -2.3420    2.3180   -1.4500 c1        1 3FF     -0.096000
     10 CAJ         3.9190   -2.0610    5.5270 c1        1 3FF     -0.113000
     11 CAK         1.7230   -1.2350    0.8400 c1        1 3FF     -0.051000
     12 CAL         3.2980   -0.2110    7.4930 c1        1 3FF     -0.203000
     13 CAM         1.3040    0.4270    3.0390 c1        1 3FF     -0.196000
     14 CAN        -0.9530    0.0940   -2.4170 c1        1 3FF     -0.112000
     15 CAO        -3.8580   -0.3150   -7.4750 c3        1 3FF     -0.012000
     16 CAP        -1.6240    1.5200    0.9600 c3        1 3FF     -0.122000
     17 CAQ        -0.2380    1.8110    1.4820 c3        1 3FF     -0.127000
     18 CAR        -2.7380    0.4300   -5.4160 c3        1 3FF     -0.058000
     19 NAS         3.5660   -0.2960    3.8120 n3        1 3FF     -0.237000
     20 OAT        -1.7760    0.0120   -4.4220 os        1 3FF     -0.223000
     21 CAU        -0.6600   -0.6310    0.0910 c1        1 3FF      0.317000
     22 CAV         3.5660   -1.5300    7.8340 c1        1 3FF      0.114000
     23 CAW         2.3360   -0.4950    3.0590 c1        1 3FF      0.091000
     24 CAX         3.3400    0.1840    6.1680 c2        1 3FF      0.126000
     25 CAY        -1.6620    0.9150   -3.3030 c1        1 3FF      0.075000
     26 CAZ        -1.6330    1.4970   -0.5650 c2        1 3FF     -0.075000
     27 CBA         0.4660    0.5240    1.9050 c2        1 3FF      0.020000
     28 CBB         3.6500   -0.7370    5.1820 c2        1 3FF     -0.020000
     29 CBC         0.6790   -0.3040    0.8160 c1        1 3FF     -0.172000
     30 CBD        -0.9410    0.3880   -1.0490 c2        1 3FF     -0.094000
     31 CBE        -2.6290   -0.4640   -6.6300 c3        1 3FF     -0.013000
     32 HOAB       -4.3430   -0.8370   -9.2410 ho        1 3FF      0.217000
     33 HOAC       -0.9060   -0.7510   -7.3700 ho        1 3FF      0.223000
     34 HAF         4.0670   -3.3960    7.0920 ha        1 3FF      0.157000
     35 HAG         3.2780   -1.9850    1.9720 ha        1 3FF      0.138000
     36 HAH        -2.8470    2.5930   -3.4310 ha        1 3FF      0.140000
     37 HAI        -2.8190    3.0820   -1.1180 ha        1 3FF      0.137000
     38 HAJ         4.1280   -2.6860    4.8600 ha        1 3FF      0.146000
     39 HAK         1.8710   -1.8060    0.0910 ha        1 3FF      0.150000
     40 HAL         3.0900    0.4360    8.1870 ha        1 3FF      0.169000
     41 HAM         1.1550    1.0080    3.8060 ha        1 3FF      0.140000
     42 HAN        -0.4660   -0.6880   -2.7540 ha        1 3FF      0.160000
     43 HAO        -3.9810    0.6360   -7.7120 h1        1 3FF      0.091500
     44 HAOA       -4.6250   -0.6240   -6.9850 h1        1 3FF      0.091500
     45 HAP        -2.2410    2.2110    1.2790 hc        1 3FF      0.097500
     46 HAPA       -1.9110    0.6650    1.2900 hc        1 3FF      0.097500
     47 HAQ         0.2980    2.2560    0.7630 hc        1 3FF      0.100000
     48 HAQA       -0.3040    2.4260    2.2720 hc        1 3FF      0.100000
     49 HAR        -2.5560    1.3610   -5.6760 h1        1 3FF      0.093000
     50 HARA       -3.6240    0.3680   -5.0510 h1        1 3FF      0.093000
     51 HNAS        4.2970    0.0560    3.4040 hn        1 3FF      0.210000
     52 HBE        -2.5440   -1.3640   -6.3520 h1        1 3FF      0.105000
@<TRIPOS>BOND
     1    1   21 1   
     2    2   15 1   
     3    2   32 1   
     4    3   31 1   
     5    3   33 1   
     6    4   22 1   
     7    5   24 1   
     8    6   22 1   
     9    6   34 1   
    10    7   23 1   
    11    7   35 1   
    12    8   25 1   
    13    8   36 1   
    14    9   26 1   
    15    9   37 1   
    16   10   28 1   
    17   10   38 1   
    18   11   29 1   
    19   11   39 1   
    20   12   24 1   
    21   12   40 1   
    22   13   27 1   
    23   13   41 1   
    24   14   30 1   
    25   14   42 1   
    26   15   31 1   
    27   15   43 1   
    28   15   44 1   
    29   16   17 1   
    30   16   26 1   
    31   16   45 1   
    32   16   46 1   
    33   17   27 1   
    34   17   47 1   
    35   17   48 1   
    36   18   20 1   
    37   18   31 1   
    38   18   49 1   
    39   18   50 1   
    40   19   23 1   
    41   19   28 1   
    42   19   51 1   
    43   20   25 1   
    44   21   30 1   
    45   24   28 1   
    46   26   30 1   
    47   27   29 1   
    48   31   52 1   
@<TRIPOS>SUBSTRUCTURE
     1 3FF         1 TEMP              0 ****  ****    0 ROOT
