@<TRIPOS>MOLECULE
3FF
   52    54     1     0     0
SMALL
bcc


@<TRIPOS>ATOM
      1 OAA         1.1020    0.2150   -0.4620 o         1 3FF     -0.252000
      2 OAC        -2.8690    4.0990   -7.0210 oh        1 3FF     -0.311000
      3 FAE         8.9200    1.4420    2.3560 f         1 3FF     -0.104000
      4 CAF         8.3250   -1.3800   -0.6410 ca        1 3FF     -0.145000
      5 CAG         4.6060    1.2250   -0.8770 cu        1 3FF     -0.146000
      6 CAH        -2.1770    4.0570   -1.4980 c3        1 3FF     -0.227000
      7 CAI        -1.3020    4.1760   -0.2720 c3        1 3FF     -0.142000
      8 CAJ         7.4520   -0.3080   -0.5290 ca        1 3FF     -0.118000
      9 CAK         3.5600    0.8740   -1.6140 c2        1 3FF     -0.171000
     10 CAL         9.6050   -0.5490    1.2570 ca        1 3FF     -0.173000
     11 CAM         4.3940    2.4940   -0.1370 cu        1 3FF     -0.192000
     12 CAN        -1.0760    1.7950   -1.7670 c2        1 3FF     -0.178000
     13 CAO        -1.4690    5.2180   -4.6520 c1        1 3FF     -0.047000
     14 CAP         0.8830    3.6210    0.7910 c3        1 3FF     -0.216000
     15 CAQ         2.3130    3.4430    0.7530 c1        1 3FF     -0.047000
     16 CAR        -4.3180    2.6570   -5.8740 c2        1 3FF     -0.255000
     17 NAS         6.7940    1.8070    0.5550 nu        1 3FF     -0.206000
     18 OAT        -3.2200    2.2420   -2.6690 o         1 3FF     -0.302000
     19 CAU         1.1930    1.3530   -0.9270 c2        1 3FF      0.253000
     20 CAV         9.4060   -1.5040    0.2490 ca        1 3FF      0.089000
     21 CAW         5.5450    1.8340    0.0270 cu        1 3FF      0.160000
     22 CAX         8.7200    0.5300    1.3710 ca        1 3FF      0.064000
     23 CAY        -2.2490    2.6540   -2.0210 c2        1 3FF      0.261000
     24 CAZ         0.0890    3.6000   -0.5100 c3        1 3FF     -0.101000
     25 CBA         3.0730    3.0550   -0.4200 c3        1 3FF     -0.015000
     26 CBB         7.6230    0.6740    0.4680 ca        1 3FF      0.026000
     27 CBC         2.4840    1.9500   -1.4210 c3        1 3FF     -0.120000
     28 CBD         0.0010    2.2280   -1.0910 c2        1 3FF     -0.113000
     29 CBE        -3.8730    3.1420   -7.0360 c2        1 3FF     -0.063000
     30 HOAB       -3.3020    5.2650   -5.2910 ho        1 3FF      0.179000
     31 HOAC       -2.5790    4.2310   -7.9320 ho        1 3FF      0.222000
     32 HAF         8.1760   -2.1370   -1.4250 ha        1 3FF      0.158000
     33 HAG         3.3740    0.0030   -2.2350 ha        1 3FF      0.164000
     34 HAH        -1.7740    4.7050   -2.3330 hc        1 3FF      0.136000
     35 HAI        -1.2090    5.2570    0.0110 hc        1 3FF      0.090000
     36 HAJ         6.6060   -0.2280   -1.2350 ha        1 3FF      0.167000
     37 HAK         2.2870    2.4510   -2.4050 hc        1 3FF      0.118000
     38 HAL        10.4480   -0.6440    1.9590 ha        1 3FF      0.168000
     39 HAM         3.1970    4.0220   -1.0080 hc        1 3FF      0.153000
     40 HAN        -1.1300    0.7710   -2.1750 ha        1 3FF      0.159000
     41 HAO        -1.0990    4.8820   -5.6490 ha        1 3FF      0.015000
     42 HAOA       -4.2490    2.8520   -8.0270 h4        1 3FF      0.129000
     43 HAP        -1.7810    3.6400    0.5900 hc        1 3FF      0.090000
     44 HAPA        0.6210    4.2520   -1.2650 hc        1 3FF      0.109000
     45 HAQ         0.4980    2.8220    1.4970 hc        1 3FF      0.154500
     46 HAQA        0.6960    4.6060    1.3150 hc        1 3FF      0.154500
     47 HAR        -3.9110    2.9580   -4.8980 ha        1 3FF      0.141000
     48 HARA       -3.2120    4.4250   -1.2660 hc        1 3FF      0.136000
     49 HNAS        6.9360    2.3930    1.3570 hn        1 3FF      0.253000
     50 HBE        -5.1250    1.9150   -5.8460 ha        1 3FF      0.141000
     51 FAD        10.2600   -2.5490    0.1370 f         1 3FF     -0.098000
     52 OAB        -2.7240    5.4270   -4.5100 oh        1 3FF     -0.148000
@<TRIPOS>BOND
     1    1   19 1   
     2    2   29 1   
     3    2   31 1   
     4    3   22 1   
     5    4    8 1   
     6    4   20 1   
     7    4   32 1   
     8    5    9 1   
     9    5   11 1   
    10    5   21 1   
    11    6    7 1   
    12    6   23 1   
    13    6   34 1   
    14    6   48 1   
    15    7   24 1   
    16    7   35 1   
    17    7   43 1   
    18    8   26 1   
    19    8   36 1   
    20    9   27 1   
    21    9   33 1   
    22   10   20 1   
    23   10   22 1   
    24   10   38 1   
    25   11   21 1   
    26   11   25 1   
    27   12   23 1   
    28   12   28 1   
    29   12   40 1   
    30   13   41 1   
    31   13   52 1   
    32   14   15 1   
    33   14   24 1   
    34   14   45 1   
    35   14   46 1   
    36   15   25 1   
    37   16   29 1   
    38   16   47 1   
    39   16   50 1   
    40   17   21 1   
    41   17   26 1   
    42   17   49 1   
    43   18   23 1   
    44   19   27 1   
    45   19   28 1   
    46   20   51 1   
    47   22   26 1   
    48   24   28 1   
    49   24   44 1   
    50   25   27 1   
    51   25   39 1   
    52   27   37 1   
    53   29   42 1   
    54   30   52 1   
@<TRIPOS>SUBSTRUCTURE
     1 3FF         1 TEMP              0 ****  ****    0 ROOT
