@<TRIPOS>MOLECULE
3FG
   21    21     1     0     0
SMALL
bcc


@<TRIPOS>ATOM
      1 N           1.9050    0.3860    1.9910 n3        1 3FG     -0.881800
      2 CD1        -2.1710   -1.0230    0.3400 ca        1 3FG      0.131600
      3 CG1        -0.8150   -1.2000    0.6450 ca        1 3FG     -0.232000
      4 CZ         -2.6650    0.1890   -0.1590 ca        1 3FG     -0.209000
      5 CD2        -1.7450    1.2290   -0.3530 ca        1 3FG      0.131600
      6 OD2        -2.2550    2.4130   -0.8500 oh        1 3FG     -0.520100
      7 CG2        -0.3870    1.0770   -0.0540 ca        1 3FG     -0.232000
      8 CB          0.0790   -0.1440    0.4460 ca        1 3FG      0.052700
      9 CA          1.5410   -0.3080    0.7580 c3        1 3FG      0.041800
     10 C           2.3890    0.1750   -0.4770 c         1 3FG      0.894600
     11 O           2.5810    1.4200   -0.5900 o         1 3FG     -0.830800
     12 OXT         2.8470   -0.7080   -1.2460 o         1 3FG     -0.830800
     13 HN1         2.9060    0.3330    2.0790 hn        1 3FG      0.333800
     14 HN2         1.6790    1.3600    1.8800 hn        1 3FG      0.333800
     15 HA          1.7640   -1.4030    0.9150 h1        1 3FG      0.055700
     16 HD1        -2.6150   -2.8140    0.8220 ho        1 3FG      0.414000
     17 HG1        -0.4550   -2.1620    1.0330 ha        1 3FG      0.155000
     18 HZ         -3.7270    0.3170   -0.3930 ha        1 3FG      0.144000
     19 HD2        -1.5020    2.9950   -1.0260 ho        1 3FG      0.414000
     20 HG2         0.3430    1.8840   -0.2450 ha        1 3FG      0.155000
     21 OD1        -3.0990   -2.0320    0.5230 oh        1 3FG     -0.520100
@<TRIPOS>BOND
     1    1    9 1   
     2    1   13 1   
     3    1   14 1   
     4    2    3 ar  
     5    2    4 ar  
     6    2   21 1   
     7    3    8 ar  
     8    3   17 1   
     9    4    5 ar  
    10    4   18 1   
    11    5    6 1   
    12    5    7 ar  
    13    6   19 1   
    14    7    8 ar  
    15    7   20 1   
    16    8    9 1   
    17    9   10 1   
    18    9   15 1   
    19   10   11 1   
    20   10   12 1   
    21   16   21 1   
@<TRIPOS>SUBSTRUCTURE
     1 3FG         1 TEMP              0 ****  ****    0 ROOT
