@<TRIPOS>MOLECULE
3FH
   16    16     1     0     0
SMALL
bcc


@<TRIPOS>ATOM
      1 S1          0.0720   -0.2000   -0.2140 s         1 3FH     -0.454400
      2 C1          1.6560   -0.1180   -0.0720 c         1 3FH      0.384600
      3 C2          2.4090   -0.0450    1.1620 cc        1 3FH     -0.258400
      4 C6          1.6690   -0.0430    2.5010 c3        1 3FH      0.707100
      5 F1          0.8200    1.0150    2.6960 f         1 3FH     -0.227967
      6 F2          0.9270   -1.1660    2.7590 f         1 3FH     -0.227967
      7 F3          2.5140    0.0300    3.5880 f         1 3FH     -0.227967
      8 C3          3.7840    0.0240    1.1800 cd        1 3FH      0.012000
      9 C4          4.5180    0.0250   -0.0270 cd        1 3FH     -0.239000
     10 C5          3.8370   -0.0430   -1.2250 cc        1 3FH      0.052600
     11 N1          2.4620   -0.1120   -1.2430 n         1 3FH     -0.125500
     12 O1          1.9270   -0.1730   -2.4590 oh        1 3FH     -0.397100
     13 H1          4.3330    0.0780    2.1370 ha        1 3FH      0.169000
     14 H2          5.6140    0.0800   -0.0180 ha        1 3FH      0.170000
     15 H3          4.3390   -0.0470   -2.2120 h4        1 3FH      0.187000
     16 H4          0.9390   -0.2190   -2.3500 ho        1 3FH      0.476000
@<TRIPOS>BOND
     1    1    2 2   
     2    2    3 1   
     3    2   11 1   
     4    3    4 1   
     5    3    8 2   
     6    4    5 1   
     7    4    6 1   
     8    4    7 1   
     9    8    9 1   
    10    8   13 1   
    11    9   10 2   
    12    9   14 1   
    13   10   11 1   
    14   10   15 1   
    15   11   12 1   
    16   12   16 1   
@<TRIPOS>SUBSTRUCTURE
     1 3FH         1 TEMP              0 ****  ****    0 ROOT
