@<TRIPOS>MOLECULE
3FH
   16    16     1     0     0
SMALL
bcc


@<TRIPOS>ATOM
      1 S1          0.0790   -0.2310   -0.2330 s         1 3FH     -0.454400
      2 C1          1.6600   -0.1310   -0.0790 c         1 3FH      0.384600
      3 C2          2.4030   -0.0400    1.1600 cc        1 3FH     -0.258400
      4 C6          1.6510   -0.0340    2.4930 c3        1 3FH      0.707100
      5 F1          0.7900    1.0160    2.6720 f         1 3FH     -0.227967
      6 F2          0.9190   -1.1630    2.7550 f         1 3FH     -0.227967
      7 F3          2.4870    0.0570    3.5870 f         1 3FH     -0.227967
      8 C3          3.7770    0.0430    1.1880 cd        1 3FH      0.012000
      9 C4          4.5200    0.0410   -0.0120 cd        1 3FH     -0.239000
     10 C5          3.8490   -0.0440   -1.2150 cc        1 3FH      0.052600
     11 N1          2.4760   -0.1270   -1.2430 n         1 3FH     -0.125500
     12 O1          1.9520   -0.2040   -2.4630 oh        1 3FH     -0.397100
     13 H1          4.3170    0.1110    2.1500 ha        1 3FH      0.169000
     14 H2          5.6160    0.1070    0.0050 ha        1 3FH      0.170000
     15 H3          4.3600   -0.0510   -2.1980 h4        1 3FH      0.187000
     16 H4          0.9630   -0.2600   -2.3620 ho        1 3FH      0.476000
@<TRIPOS>BOND
     1    1    2 2   
     2    2    3 1   
     3    2   11 1   
     4    3    4 1   
     5    3    8 2   
     6    4    5 1   
     7    4    6 1   
     8    4    7 1   
     9    8    9 1   
    10    8   13 1   
    11    9   10 2   
    12    9   14 1   
    13   10   11 1   
    14   10   15 1   
    15   11   12 1   
    16   12   16 1   
@<TRIPOS>SUBSTRUCTURE
     1 3FH         1 TEMP              0 ****  ****    0 ROOT
