@<TRIPOS>MOLECULE
3FI
   43    44     1     0     0
SMALL
bcc


@<TRIPOS>ATOM
      1 C1          2.5550    1.8130    0.2740 ca        1 3FI     -0.147000
      2 C2          2.2360    0.5760   -0.2920 ca        1 3FI     -0.096000
      3 C3          3.2410   -0.3810   -0.4470 ca        1 3FI     -0.172900
      4 C4          4.5310   -0.1030    0.0250 ca        1 3FI     -0.091000
      5 C5          4.8740    1.1690    0.4830 ca        1 3FI     -0.139600
      6 C6          3.8710    2.1300    0.6250 ca        1 3FI     -0.066000
      7 O40         6.8320    2.5790    0.4760 o         1 3FI     -0.839800
      8 C38         6.3380    1.4330    0.6370 c         1 3FI      0.903200
      9 O39         7.1300    0.4280    0.7970 o         1 3FI     -0.839800
     10 C9          3.0900   -1.6480   -1.1900 ce        1 3FI      0.458800
     11 N18         4.0600   -1.8840   -2.0250 n2        1 3FI     -0.510200
     12 O1          4.1770   -3.0610   -2.6080 os        1 3FI     -0.171300
     13 C22         5.4710   -3.1990   -3.2610 c3        1 3FI      0.150400
     14 C23         6.6540   -2.7530   -2.4100 c3        1 3FI     -0.118400
     15 C8          7.0030   -1.2860   -2.6660 c3        1 3FI      0.107800
     16 N31         7.8340   -0.6770   -1.5910 n4        1 3FI     -0.789000
     17 C30         8.2910    0.7010   -1.9460 c3        1 3FI      0.145000
     18 C16         9.6250    1.0250   -1.3040 cc        1 3FI      0.078400
     19 N11         9.6400    1.5570   -0.0360 n         1 3FI     -0.437100
     20 C15        10.7720    0.7820   -2.0080 cd        1 3FI     -0.343200
     21 C14        12.0800    1.1110   -1.4260 c         1 3FI      0.715700
     22 O33        13.1650    0.9170   -2.0010 o         1 3FI     -0.617500
     23 N13        12.0630    1.6680   -0.1410 n         1 3FI     -0.588500
     24 C12        10.8700    1.9050    0.5710 c         1 3FI      0.802500
     25 O34        10.9020    2.4020    1.7130 o         1 3FI     -0.602500
     26 H1          1.7610    2.5620    0.4160 ha        1 3FI      0.135000
     27 H2          1.2110    0.3670   -0.6290 ha        1 3FI      0.133000
     28 H4          5.3080   -0.8850    0.0200 ha        1 3FI      0.130000
     29 H6          4.1310    3.1330    0.9970 ha        1 3FI      0.158000
     30 H9          2.2300   -2.3040   -0.9680 h4        1 3FI      0.014800
     31 H22         5.5130   -4.3070   -3.4420 h1        1 3FI      0.067200
     32 H22A        5.4410   -2.6470   -4.2350 h1        1 3FI      0.067200
     33 H23         6.4170   -2.9270   -1.3260 hc        1 3FI      0.072700
     34 H23A        7.5380   -3.3920   -2.6690 hc        1 3FI      0.072700
     35 H8          6.0680   -0.6610   -2.7530 hx        1 3FI      0.100700
     36 H8A         7.5700   -1.2110   -3.6380 hx        1 3FI      0.100700
     37 HN31        7.2770   -0.5930   -0.6820 hn        1 3FI      0.477800
     38 H30         8.3980    0.7850   -3.0640 hx        1 3FI      0.124200
     39 H30A        7.4970    1.4320   -1.5890 hx        1 3FI      0.124200
     40 HN11        8.7780    1.7200    0.4870 hn        1 3FI      0.431500
     41 H15        10.7810    0.3720   -3.0230 ha        1 3FI      0.166000
     42 HN13       12.9180    1.9270    0.3020 hn        1 3FI      0.354500
     43 H312        8.6450   -1.2710   -1.4040 hn        1 3FI      0.477800
@<TRIPOS>BOND
     1    1    2 ar  
     2    1    6 ar  
     3    1   26 1   
     4    2    3 ar  
     5    2   27 1   
     6    3    4 ar  
     7    3   10 1   
     8    4    5 ar  
     9    4   28 1   
    10    5    6 ar  
    11    5    8 1   
    12    6   29 1   
    13    7    8 1   
    14    8    9 1   
    15   10   11 2   
    16   10   30 1   
    17   11   12 1   
    18   12   13 1   
    19   13   14 1   
    20   13   31 1   
    21   13   32 1   
    22   14   15 1   
    23   14   33 1   
    24   14   34 1   
    25   15   16 1   
    26   15   35 1   
    27   15   36 1   
    28   16   17 1   
    29   16   37 1   
    30   16   43 1   
    31   17   18 1   
    32   17   38 1   
    33   17   39 1   
    34   18   19 1   
    35   18   20 2   
    36   19   24 1   
    37   19   40 1   
    38   20   21 1   
    39   20   41 1   
    40   21   22 2   
    41   21   23 1   
    42   23   24 1   
    43   23   42 1   
    44   24   25 2   
@<TRIPOS>SUBSTRUCTURE
     1 3FI         1 TEMP              0 ****  ****    0 ROOT
