@<TRIPOS>MOLECULE
3FI
   42    43     1     0     0
SMALL
bcc


@<TRIPOS>ATOM
      1 C1         -5.5110   -1.9990   -1.1750 ca        1 3FI     -0.177000
      2 C2         -4.3860   -1.5180   -0.5080 ca        1 3FI     -0.113000
      3 C3         -4.4390   -0.2800    0.1470 ca        1 3FI     -0.189900
      4 C4         -5.6300    0.4630    0.1240 ca        1 3FI     -0.078000
      5 C5         -6.7550   -0.0180   -0.5470 ca        1 3FI     -0.136600
      6 C6         -6.6900   -1.2540   -1.1960 ca        1 3FI     -0.083000
      7 O40        -9.0300    0.3210   -1.1930 o         1 3FI     -0.827800
      8 C38        -8.0410    0.7990   -0.5710 c         1 3FI      0.909200
      9 O39        -8.0440    1.9080    0.0330 o         1 3FI     -0.827800
     10 C9         -3.2960    0.2830    0.8650 ce        1 3FI      0.452800
     11 N18        -2.1030   -0.2480    0.8480 n2        1 3FI     -0.492200
     12 O1         -1.2050    0.4210    1.5780 os        1 3FI     -0.201300
     13 C22         0.1300   -0.1120    1.4840 c3        1 3FI      0.155400
     14 C23         0.7600    0.2260    0.1460 c3        1 3FI     -0.121400
     15 C8          2.1870   -0.3120    0.0990 c3        1 3FI      0.161800
     16 N31         2.8790    0.0060   -1.1360 n3        1 3FI     -0.845200
     17 C30         3.9980   -0.8560   -1.4390 c3        1 3FI      0.196000
     18 C16         5.2790   -0.5030   -0.7000 cc        1 3FI      0.113400
     19 N11         5.5540    0.8190   -0.4000 n         1 3FI     -0.451100
     20 C15         6.1730   -1.4920   -0.3950 cd        1 3FI     -0.347200
     21 C14         7.4430   -1.1810    0.2630 c         1 3FI      0.719700
     22 O33         8.3110   -2.0170    0.5680 o         1 3FI     -0.623500
     23 N13         7.6770    0.1750    0.5610 n         1 3FI     -0.587500
     24 C12         6.7510    1.1820    0.2540 c         1 3FI      0.802500
     25 O34         6.9730    2.3800    0.5360 o         1 3FI     -0.643500
     26 H1         -5.4650   -2.9710   -1.6850 ha        1 3FI      0.108000
     27 H2         -3.4630   -2.1150   -0.4970 ha        1 3FI      0.119000
     28 H4         -5.7070    1.4410    0.6300 ha        1 3FI      0.155000
     29 H6         -7.5900   -1.6170   -1.7190 ha        1 3FI      0.154000
     30 H9         -3.5180    1.2150    1.4320 h4        1 3FI     -0.000200
     31 H22         0.6550    0.4150    2.3250 h1        1 3FI      0.049700
     32 H22A        0.1350   -1.2170    1.6640 h1        1 3FI      0.049700
     33 H23         0.1490   -0.2250   -0.6800 hc        1 3FI      0.065700
     34 H23A        0.7520    1.3370    0.0010 hc        1 3FI      0.065700
     35 H8          2.7860    0.1440    0.9390 h1        1 3FI      0.034700
     36 H8A         2.1520   -1.4280    0.2840 h1        1 3FI      0.034700
     37 HN31        2.2430    0.0350   -1.9100 hn        1 3FI      0.383800
     38 H30         3.7830   -1.9450   -1.2200 h1        1 3FI      0.060200
     39 H30A        4.2310   -0.7660   -2.5410 h1        1 3FI      0.060200
     40 HN11        4.8820    1.5370   -0.5680 hn        1 3FI      0.371500
     41 H15         5.9870   -2.5480   -0.6230 ha        1 3FI      0.175000
     42 HN13        8.5190    0.4490    1.0180 hn        1 3FI      0.349500
@<TRIPOS>BOND
     1    1    2 ar  
     2    1    6 ar  
     3    1   26 1   
     4    2    3 ar  
     5    2   27 1   
     6    3    4 ar  
     7    3   10 1   
     8    4    5 ar  
     9    4   28 1   
    10    5    6 ar  
    11    5    8 1   
    12    6   29 1   
    13    7    8 1   
    14    8    9 1   
    15   10   11 2   
    16   10   30 1   
    17   11   12 1   
    18   12   13 1   
    19   13   14 1   
    20   13   31 1   
    21   13   32 1   
    22   14   15 1   
    23   14   33 1   
    24   14   34 1   
    25   15   16 1   
    26   15   35 1   
    27   15   36 1   
    28   16   17 1   
    29   16   37 1   
    30   17   18 1   
    31   17   38 1   
    32   17   39 1   
    33   18   19 1   
    34   18   20 2   
    35   19   24 1   
    36   19   40 1   
    37   20   21 1   
    38   20   41 1   
    39   21   22 2   
    40   21   23 1   
    41   23   24 1   
    42   23   42 1   
    43   24   25 2   
@<TRIPOS>SUBSTRUCTURE
     1 3FI         1 TEMP              0 ****  ****    0 ROOT
