@<TRIPOS>MOLECULE
3FI
   43    44     1     0     0
SMALL
bcc


@<TRIPOS>ATOM
      1 C1          2.3480    2.0260    0.0780 ca        1 3FI     -0.146000
      2 C2          2.1510    0.7840   -0.5290 ca        1 3FI     -0.103000
      3 C3          3.2090   -0.1270   -0.5830 ca        1 3FI     -0.177900
      4 C4          4.4320    0.2030    0.0150 ca        1 3FI     -0.091000
      5 C5          4.6600    1.4780    0.5280 ca        1 3FI     -0.141600
      6 C6          3.6000    2.3880    0.5810 ca        1 3FI     -0.072000
      7 O40         6.3340    2.8420    1.6000 o         1 3FI     -0.846300
      8 C38         6.0690    1.8390    0.9070 c         1 3FI      0.928200
      9 O39         7.0020    1.0810    0.4320 o         1 3FI     -0.846300
     10 C9          3.1350   -1.3930   -1.3300 ce        1 3FI      0.460800
     11 N18         4.1990   -1.7130   -2.0120 n2        1 3FI     -0.514200
     12 O1          4.2430   -2.8920   -2.6080 os        1 3FI     -0.176300
     13 C22         5.5090   -3.1220   -3.2810 c3        1 3FI      0.148400
     14 C23         6.7310   -2.7130   -2.4720 c3        1 3FI     -0.118400
     15 C8          7.1460   -1.2690   -2.7630 c3        1 3FI      0.113800
     16 N31         7.6490   -0.5340   -1.5720 n4        1 3FI     -0.773000
     17 C30         8.4010    0.7090   -1.9270 c3        1 3FI      0.149000
     18 C16         9.7600    0.7660   -1.2640 cc        1 3FI      0.063400
     19 N11         9.8150    0.9680    0.1020 n         1 3FI     -0.458100
     20 C15        10.8860    0.6140   -2.0210 cd        1 3FI     -0.319200
     21 C14        12.2160    0.7180   -1.4010 c         1 3FI      0.713700
     22 O33        13.2840    0.6070   -2.0270 o         1 3FI     -0.608500
     23 N13        12.2400    0.9440   -0.0190 n         1 3FI     -0.588500
     24 C12        11.0680    1.0910    0.7490 c         1 3FI      0.799500
     25 O34        11.1320    1.2930    1.9760 o         1 3FI     -0.600500
     26 H1          1.5100    2.7360    0.1410 ha        1 3FI      0.134000
     27 H2          1.1770    0.5310   -0.9730 ha        1 3FI      0.131000
     28 H4          5.2350   -0.5460    0.0890 ha        1 3FI      0.124000
     29 H6          3.7720    3.3840    1.0180 ha        1 3FI      0.161000
     30 H9          2.2080   -1.9920   -1.2590 h4        1 3FI      0.013800
     31 H22         5.4890   -4.2350   -3.4280 h1        1 3FI      0.066200
     32 H22A        5.4850   -2.6010   -4.2730 h1        1 3FI      0.066200
     33 H23         6.5180   -2.8740   -1.3810 hc        1 3FI      0.074700
     34 H23A        7.5810   -3.3930   -2.7460 hc        1 3FI      0.074700
     35 H8          7.9620   -1.2790   -3.5420 hx        1 3FI      0.095200
     36 H8A         6.2770   -0.6780   -3.1740 hx        1 3FI      0.095200
     37 HN31        8.2450   -1.1510   -1.0130 hn        1 3FI      0.481300
     38 H30         7.7740    1.5900   -1.5690 hx        1 3FI      0.128200
     39 H30A        8.5300    0.7710   -3.0430 hx        1 3FI      0.128200
     40 HN11        8.9760    1.2120    0.6280 hn        1 3FI      0.424500
     41 H15        10.8670    0.4310   -3.1010 ha        1 3FI      0.170000
     42 HN13       13.1110    1.0440    0.4550 hn        1 3FI      0.356500
     43 H312        6.8510   -0.2280   -0.9380 hn        1 3FI      0.481300
@<TRIPOS>BOND
     1    1    2 ar  
     2    1    6 ar  
     3    1   26 1   
     4    2    3 ar  
     5    2   27 1   
     6    3    4 ar  
     7    3   10 1   
     8    4    5 ar  
     9    4   28 1   
    10    5    6 ar  
    11    5    8 1   
    12    6   29 1   
    13    7    8 1   
    14    8    9 1   
    15   10   11 2   
    16   10   30 1   
    17   11   12 1   
    18   12   13 1   
    19   13   14 1   
    20   13   31 1   
    21   13   32 1   
    22   14   15 1   
    23   14   33 1   
    24   14   34 1   
    25   15   16 1   
    26   15   35 1   
    27   15   36 1   
    28   16   17 1   
    29   16   37 1   
    30   16   43 1   
    31   17   18 1   
    32   17   38 1   
    33   17   39 1   
    34   18   19 1   
    35   18   20 2   
    36   19   24 1   
    37   19   40 1   
    38   20   21 1   
    39   20   41 1   
    40   21   22 2   
    41   21   23 1   
    42   23   24 1   
    43   23   42 1   
    44   24   25 2   
@<TRIPOS>SUBSTRUCTURE
     1 3FI         1 TEMP              0 ****  ****    0 ROOT
