@<TRIPOS>MOLECULE
3FI
   42    38     1     0     0
SMALL
bcc


@<TRIPOS>ATOM
      1 C1         -5.7320   -1.0520    0.1650 c1        1 3FI     -0.130000
      2 C2         -4.6860   -1.6750    0.8210 c1        1 3FI     -0.113000
      3 C3         -4.2170   -1.1640    2.0260 c1        1 3FI     -0.133000
      4 C4         -4.8010   -0.0270    2.5700 c1        1 3FI     -0.075000
      5 C5         -5.8490    0.5970    1.9120 c1        1 3FI     -0.118000
      6 C6         -6.3160    0.0870    0.7110 c1        1 3FI     -0.130000
      7 O40        -5.9500    2.9770    2.3100 o         1 3FI     -0.563000
      8 C38        -6.4820    1.8520    2.5050 c2        1 3FI      0.358000
      9 O39        -7.4940    1.7550    3.2520 o         1 3FI     -0.563000
     10 C9         -3.2050   -1.9550    2.8420 c2        1 3FI     -0.041000
     11 N18        -1.9270   -1.8860    2.5490 n1        1 3FI     -0.113000
     12 O1         -1.5000   -1.0980    1.5050 o         1 3FI     -0.220000
     13 C22        -0.1230   -0.7860    1.6720 c3        1 3FI     -0.001000
     14 C23         0.6350   -1.1060    0.3780 c3        1 3FI     -0.178000
     15 C8          2.1090   -0.6370    0.5110 c3        1 3FI     -0.071000
     16 N31         2.5220    0.0140   -0.7190 n3        1 3FI     -0.317000
     17 C30         3.7560    0.7390   -0.4920 c3        1 3FI     -0.051000
     18 C16         4.4730    0.9550   -1.8260 c2        1 3FI      0.111000
     19 N11         3.8310    1.6650   -2.8690 n         1 3FI     -0.298000
     20 C15         5.8280    0.4150   -2.0300 c1        1 3FI     -0.320000
     21 C14         6.5280    0.6580   -3.3020 c1        1 3FI      0.357000
     22 O33         7.6460    0.2150   -3.4750 o         1 3FI     -0.345000
     23 N13         5.8780    1.3690   -4.3440 n         1 3FI     -0.367000
     24 C12         4.5330    1.9050   -4.1370 c2        1 3FI      0.394000
     25 O34         3.9650    2.4820   -5.0450 o         1 3FI     -0.366000
     26 H1         -6.0610   -1.4110   -0.6840 ha        1 3FI      0.131000
     27 H2         -4.2760   -2.4750    0.4370 ha        1 3FI      0.123000
     28 H4         -4.5060    0.3040    3.4440 ha        1 3FI      0.153000
     29 H6         -7.0570    0.5290    0.2460 ha        1 3FI      0.131000
     30 H9         -3.5060   -2.5130    3.5820 h4        1 3FI      0.153000
     31 H22         0.2470   -1.3200    2.4090 h1        1 3FI      0.077500
     32 H22A       -0.0280    0.1630    1.8780 h1        1 3FI      0.077500
     33 H23         0.6130   -2.0760    0.2170 hc        1 3FI      0.104500
     34 H23A        0.2110   -0.6410   -0.3710 hc        1 3FI      0.104500
     35 H8          2.6860   -1.4130    0.6800 h1        1 3FI      0.074500
     36 H8A         2.1850   -0.0080    1.2530 h1        1 3FI      0.074500
     37 HN31        2.6540   -0.6190   -1.3700 hn        1 3FI      0.168000
     38 H30         3.5550    1.6070   -0.0870 h1        1 3FI      0.098500
     39 H30A        4.3330    0.2230    0.1100 h1        1 3FI      0.098500
     40 HN11        3.0000    2.0170   -2.7350 hn        1 3FI      0.284000
     41 H15         6.2200   -0.1830   -1.3660 ha        1 3FI      0.176000
     42 HN13        6.3110    1.5190   -5.1320 hn        1 3FI      0.264000
@<TRIPOS>BOND
     1    1    6 1   
     2    1   26 1   
     3    2    3 1   
     4    2   27 1   
     5    3   10 1   
     6    4    5 1   
     7    4   28 1   
     8    5    8 1   
     9    6   29 1   
    10    7    8 1   
    11    8    9 1   
    12   10   11 1   
    13   10   30 1   
    14   12   13 1   
    15   13   14 1   
    16   13   31 1   
    17   13   32 1   
    18   14   15 1   
    19   14   33 1   
    20   14   34 1   
    21   15   16 1   
    22   15   35 1   
    23   15   36 1   
    24   16   17 1   
    25   16   37 1   
    26   17   18 1   
    27   17   38 1   
    28   17   39 1   
    29   18   19 1   
    30   18   20 1   
    31   19   24 1   
    32   19   40 1   
    33   20   41 1   
    34   21   22 1   
    35   21   23 1   
    36   23   24 1   
    37   23   42 1   
    38   24   25 1   
@<TRIPOS>SUBSTRUCTURE
     1 3FI         1 TEMP              0 ****  ****    0 ROOT
