@<TRIPOS>MOLECULE
3FI
   43    44     1     0     0
SMALL
bcc


@<TRIPOS>ATOM
      1 C1          2.5750    1.9170    0.1920 ca        1 3FI     -0.147000
      2 C2          2.2410    0.6670   -0.3360 ca        1 3FI     -0.096000
      3 C3          3.2330   -0.3090   -0.4540 ca        1 3FI     -0.172900
      4 C4          4.5250   -0.0340    0.0150 ca        1 3FI     -0.091000
      5 C5          4.8840    1.2470    0.4330 ca        1 3FI     -0.139600
      6 C6          3.8940    2.2270    0.5390 ca        1 3FI     -0.066000
      7 O40         6.8620    2.6280    0.3910 o         1 3FI     -0.839800
      8 C38         6.3510    1.4950    0.5870 c         1 3FI      0.903200
      9 O39         7.1280    0.4850    0.7830 o         1 3FI     -0.839800
     10 C9          3.0670   -1.5970   -1.1570 ce        1 3FI      0.458800
     11 N18         4.0380   -1.8740   -1.9790 n2        1 3FI     -0.510200
     12 O1          4.1410   -3.0710   -2.5220 os        1 3FI     -0.171300
     13 C22         5.4360   -3.2490   -3.1630 c3        1 3FI      0.150400
     14 C23         6.6210   -2.7910   -2.3210 c3        1 3FI     -0.118400
     15 C8          6.9930   -1.3390   -2.6230 c3        1 3FI      0.107800
     16 N31         7.8270   -0.7060   -1.5630 ny        1 3FI     -0.789000
     17 C30         8.3050    0.6520   -1.9610 c3        1 3FI      0.145000
     18 C16         9.6400    0.9780   -1.3230 cc        1 3FI      0.078400
     19 N11         9.6580    1.5500   -0.0730 ns        1 3FI     -0.437100
     20 C15        10.7870    0.6980   -2.0140 cd        1 3FI     -0.343200
     21 C14        12.0970    1.0280   -1.4370 c         1 3FI      0.715700
     22 O33        13.1820    0.8010   -2.0000 o         1 3FI     -0.616500
     23 N13        12.0820    1.6250   -0.1700 ns        1 3FI     -0.588500
     24 C12        10.8890    1.9010    0.5290 c         1 3FI      0.802500
     25 O34        10.9240    2.4330    1.6540 o         1 3FI     -0.602500
     26 H1          1.7910    2.6820    0.3050 ha        1 3FI      0.135000
     27 H2          1.2150    0.4620   -0.6710 ha        1 3FI      0.133000
     28 H4          5.2900   -0.8260    0.0390 ha        1 3FI      0.130000
     29 H6          4.1670    3.2380    0.8800 ha        1 3FI      0.158000
     30 H9          2.1970   -2.2330   -0.9180 h4        1 3FI      0.014800
     31 H22         5.4640   -4.3620   -3.3080 h1        1 3FI      0.067200
     32 H22A        5.4190   -2.7280   -4.1550 h1        1 3FI      0.067200
     33 H23         6.3760   -2.9270   -1.2330 hc        1 3FI      0.072700
     34 H23A        7.4980   -3.4510   -2.5540 hc        1 3FI      0.072700
     35 H8          7.5650   -1.3040   -3.5940 hx        1 3FI      0.100700
     36 H8A         6.0670   -0.7040   -2.7350 hx        1 3FI      0.100700
     37 HN31        8.6280   -1.3060   -1.3540 hn        1 3FI      0.477800
     38 H30         7.5200    1.4060   -1.6330 hx        1 3FI      0.124200
     39 H30A        8.4180    0.6980   -3.0810 hx        1 3FI      0.124200
     40 HN11        8.7950    1.7420    0.4400 hn        1 3FI      0.431500
     41 H15        10.7950    0.2560   -3.0160 ha        1 3FI      0.166000
     42 HN13       12.9380    1.8870    0.2680 hn        1 3FI      0.354500
     43 H312        7.2670   -0.5850   -0.6610 hn        1 3FI      0.477800
@<TRIPOS>BOND
     1    1    2 ar  
     2    1    6 ar  
     3    1   26 1   
     4    2    3 ar  
     5    2   27 1   
     6    3    4 ar  
     7    3   10 1   
     8    4    5 ar  
     9    4   28 1   
    10    5    6 ar  
    11    5    8 1   
    12    6   29 1   
    13    7    8 1   
    14    8    9 1   
    15   10   11 2   
    16   10   30 1   
    17   11   12 1   
    18   12   13 1   
    19   13   14 1   
    20   13   31 1   
    21   13   32 1   
    22   14   15 1   
    23   14   33 1   
    24   14   34 1   
    25   15   16 1   
    26   15   35 1   
    27   15   36 1   
    28   16   17 1   
    29   16   37 1   
    30   16   43 1   
    31   17   18 1   
    32   17   38 1   
    33   17   39 1   
    34   18   19 1   
    35   18   20 2   
    36   19   24 1   
    37   19   40 1   
    38   20   21 1   
    39   20   41 1   
    40   21   22 2   
    41   21   23 1   
    42   23   24 1   
    43   23   42 1   
    44   24   25 2   
@<TRIPOS>SUBSTRUCTURE
     1 3FI         1 TEMP              0 ****  ****    0 ROOT
