@<TRIPOS>MOLECULE
3FK
   25    24     1     0     0
SMALL
bcc


@<TRIPOS>ATOM
      1 C11         0.1000   -1.0340    0.2310 ca        1 3FK     -0.057000
      2 C12         1.4830   -0.9020    0.3810 ca        1 3FK     -0.137000
      3 C13         1.9680   -0.0820    1.4030 ca        1 3FK     -0.057000
      4 C14         1.0990    0.6050    2.2540 ca        1 3FK     -0.106500
      5 C7         -2.0590    0.1890    3.7890 c2        1 3FK      0.182000
      6 C8         -1.2260    1.2180    2.9860 c3        1 3FK     -0.084000
      7 C9         -0.2830    0.4750    2.0790 ca        1 3FK     -0.034000
      8 C10        -0.7870   -0.3600    1.0740 ca        1 3FK     -0.106500
      9 CL1        -0.5060   -2.0400   -1.0040 cl        1 3FK     -0.037500
     10 CL2         3.6530    0.0810    1.6080 cl        1 3FK     -0.037500
     11 N21        -2.0910    2.1460    2.2500 n3        1 3FK     -0.152000
     12 H2          2.1740   -1.4370   -0.2850 ha        1 3FK      0.147000
     13 H3          1.4920    1.2310    3.0720 ha        1 3FK      0.165500
     14 H12        -2.9530    1.7230    1.9600 hn        1 3FK      0.245000
     15 H13        -2.0470   -1.9430    5.6950 h4        1 3FK      0.027000
     16 H14        -3.1960   -0.6000    6.2420 h4        1 3FK      0.027000
     17 H15        -0.9160    3.8270    2.3540 ha        1 3FK      0.031000
     18 H16         0.4310    0.9200    5.6240 ha        1 3FK      0.000500
     19 H17         0.9610    1.3120    5.4600 ha        1 3FK      0.000500
     20 H25        -0.6260    1.8130    3.7380 h1        1 3FK      0.127000
     21 H26        -1.8780   -0.4980    0.9850 ha        1 3FK      0.165500
     22 O17        -3.0780   -0.3320    3.3070 o         1 3FK     -0.445000
     23 C22        -2.1870   -0.8750    5.9090 c2        1 3FK     -0.536000
     24 C23        -1.8740    3.3950    1.9940 c1        1 3FK     -0.215000
     25 OXT        -1.5890   -0.0200    5.0540 os        1 3FK     -0.116000
@<TRIPOS>BOND
     1    1    2 1   
     2    1    8 1   
     3    1    9 1   
     4    2    3 1   
     5    2   12 1   
     6    3    4 1   
     7    3   10 1   
     8    4    7 1   
     9    4   13 1   
    10    5    6 1   
    11    5   22 1   
    12    5   25 1   
    13    6    7 1   
    14    6   11 1   
    15    6   20 1   
    16    7    8 1   
    17    8   21 1   
    18   11   14 1   
    19   11   24 1   
    20   15   23 1   
    21   16   23 1   
    22   17   24 1   
    23   18   19 1   
    24   23   25 1   
@<TRIPOS>SUBSTRUCTURE
     1 3FK         1 TEMP              0 ****  ****    0 ROOT
