@<TRIPOS>MOLECULE
3FK
   26    24     1     0     0
SMALL
bcc


@<TRIPOS>ATOM
      1 C11         0.9080   -1.4290   -0.2220 c3        1 3FK     -0.121000
      2 C12         2.2570   -0.8680   -0.0540 c1        1 3FK     -0.008000
      3 C13         2.5240   -0.1690    1.1600 c2        1 3FK     -0.172000
      4 C14         1.6370   -0.1140    2.1980 c2        1 3FK      0.000000
      5 C7         -0.8860   -1.7500    4.0960 cu        1 3FK      0.294000
      6 C8         -0.5620   -0.6200    3.2340 cx        1 3FK     -0.019000
      7 C9          0.3420   -0.7460    2.0790 c2        1 3FK     -0.130000
      8 C10        -0.0110   -1.3940    0.9420 c2        1 3FK     -0.089000
      9 Cl1         1.0380   -3.0730   -0.8400 cl        1 3FK     -0.026000
     10 Cl2         4.0450    0.5750    1.3020 cl        1 3FK      0.016000
     11 N21        -1.7370    3.4620    4.7510 n2        1 3FK     -0.313000
     12 H2          0.4450   -0.8220   -1.0640 h1        1 3FK      0.187000
     13 H3          1.8720    0.3980    3.1480 ha        1 3FK      0.159000
     14 H12        -2.9040    0.9890    3.0900 ha        1 3FK      0.001250
     15 H13        -3.2870    0.5280    2.7740 ha        1 3FK      0.001250
     16 H14        -0.7140    0.4250    3.6030 h1        1 3FK      0.205000
     17 H15        -1.7150    5.5320    4.8120 h1        1 3FK      0.098667
     18 H16        -2.2670    4.6830    6.3370 h1        1 3FK      0.098667
     19 H17        -3.3640    4.7380    4.8730 h1        1 3FK      0.098667
     20 H25        -3.5620   -1.3150    1.5260 ha        1 3FK      0.001250
     21 H26        -0.9970   -1.8840    0.8440 ha        1 3FK      0.171000
     22 C22        -1.2710    2.4530    4.3600 c1        1 3FK      0.069000
     23 C23        -2.2950    4.6560    5.2130 c3        1 3FK     -0.046000
     24 OXT        -0.8370   -2.6030    4.9460 o         1 3FK     -0.215000
     25 H211       -3.2710   -1.8460    1.2220 ha        1 3FK      0.001250
     26 O17        -1.8270   -1.4000    3.1590 os        1 3FK     -0.264000
@<TRIPOS>BOND
     1    1    2 1   
     2    1    8 1   
     3    1    9 1   
     4    1   12 1   
     5    2    3 1   
     6    3    4 1   
     7    3   10 1   
     8    4    7 1   
     9    4   13 1   
    10    5    6 1   
    11    5   24 1   
    12    5   26 1   
    13    6    7 1   
    14    6   16 1   
    15    6   26 1   
    16    7    8 1   
    17    8   21 1   
    18   11   22 1   
    19   11   23 1   
    20   14   15 1   
    21   17   23 1   
    22   18   23 1   
    23   19   23 1   
    24   20   25 1   
@<TRIPOS>SUBSTRUCTURE
     1 3FK         1 TEMP              0 ****  ****    0 ROOT
