@<TRIPOS>MOLECULE
3FK
   26    25     1     0     0
SMALL
bcc


@<TRIPOS>ATOM
      1 C11         0.9050   -1.6920   -0.2770 c3        1 3FK     -0.118000
      2 C12         2.2580   -1.1350   -0.1310 c1        1 3FK     -0.012000
      3 C13         2.4960   -0.2950    0.9950 c2        1 3FK     -0.177000
      4 C14         1.5740   -0.0950    1.9840 c2        1 3FK      0.006000
      5 C7         -1.1470   -1.4560    3.8970 cu        1 3FK      0.291000
      6 C8         -0.6650   -0.4220    2.9940 cx        1 3FK     -0.054000
      7 C9          0.2710   -0.7160    1.8980 c2        1 3FK     -0.121000
      8 C10        -0.0530   -1.4980    0.8400 c2        1 3FK     -0.097000
      9 CL1         1.0240   -3.4020   -0.6820 cl        1 3FK     -0.030000
     10 CL2         4.0270    0.4350    1.1030 cl        1 3FK      0.010000
     11 N21        -2.1300    2.8990    4.0750 n3        1 3FK     -0.160000
     12 H2          0.4830   -1.1880   -1.2040 h1        1 3FK      0.185000
     13 H3          1.7840    0.5290    2.8710 ha        1 3FK      0.159000
     14 H12        -3.5570   -2.6510    3.8780 ha        1 3FK      0.000500
     15 H13        -3.9900   -2.4410    3.4010 ha        1 3FK      0.000500
     16 H14        -0.0770    3.1070    4.1450 ha        1 3FK      0.070000
     17 H15        -1.6130    4.8400    4.7340 h1        1 3FK      0.097333
     18 H16        -3.1330    4.1380    5.4600 h1        1 3FK      0.097333
     19 H17        -3.1350    4.7240    3.7320 h1        1 3FK      0.097333
     20 H25        -0.7150    0.6760    3.3150 h1        1 3FK      0.251000
     21 H26        -1.0400   -1.9860    0.7670 ha        1 3FK      0.168000
     22 C22        -0.9300    2.4380    3.9190 c1        1 3FK     -0.220000
     23 C23        -2.5200    4.2160    4.5220 c3        1 3FK     -0.172000
     24 OXT        -1.2520   -2.2590    4.7930 o         1 3FK     -0.231000
     25 H211       -2.8990    2.2900    3.8690 hn        1 3FK      0.241000
     26 O17        -2.0070   -1.0640    2.9000 os        1 3FK     -0.283000
@<TRIPOS>BOND
     1    1    2 1   
     2    1    8 1   
     3    1    9 1   
     4    1   12 1   
     5    2    3 1   
     6    3    4 1   
     7    3   10 1   
     8    4    7 1   
     9    4   13 1   
    10    5    6 1   
    11    5   24 1   
    12    5   26 1   
    13    6    7 1   
    14    6   20 1   
    15    6   26 1   
    16    7    8 1   
    17    8   21 1   
    18   11   22 1   
    19   11   23 1   
    20   11   25 1   
    21   14   15 1   
    22   16   22 1   
    23   17   23 1   
    24   18   23 1   
    25   19   23 1   
@<TRIPOS>SUBSTRUCTURE
     1 3FK         1 TEMP              0 ****  ****    0 ROOT
