@<TRIPOS>MOLECULE
3FL
   46    43     1     0     0
SMALL
bcc


@<TRIPOS>ATOM
      1 C8         -2.1320   -0.4100    0.9120 c3        1 3FL     -0.057000
      2 C5          5.1980    1.4890   -4.8910 c1        1 3FL     -0.114000
      3 C6          5.0370    0.4700   -5.8360 c1        1 3FL     -0.097000
      4 C2          3.7740   -0.8200   -4.2440 c1        1 3FL     -0.137000
      5 C4          4.6490    1.3540   -3.6290 c1        1 3FL     -0.103000
      6 O40         7.2680    2.7980   -4.9880 o         1 3FL     -0.572500
      7 C38         6.0210    2.7550   -5.2460 c2        1 3FL      0.351000
      8 O39         5.4570    3.7380   -5.8080 o         1 3FL     -0.572500
      9 C1          4.3220   -0.6850   -5.5050 c2        1 3FL     -0.162000
     10 C3          3.9340    0.1980   -3.2980 c1        1 3FL     -0.153000
     11 C17         3.4340   -0.0030   -1.8740 c3        1 3FL     -0.033000
     12 N18         1.9870    0.0790   -1.8540 n3        1 3FL     -0.301000
     13 C7          1.5120   -0.1290   -0.5090 c3        1 3FL     -0.077000
     14 C22        -0.0520   -0.2330   -0.5150 c3        1 3FL     -0.193000
     15 C23        -0.5610   -0.3200    0.9170 c3        1 3FL     -0.195000
     16 N31        -2.6180   -0.3800    2.2750 n3        1 3FL     -0.340000
     17 C30        -4.0440   -0.5830    2.2840 c3        1 3FL     -0.071000
     18 C16        -4.5540   -0.5900    3.7420 c2        1 3FL      0.144000
     19 N11        -4.3370   -1.7340    4.5700 n         1 3FL     -0.284000
     20 C15        -5.2600    0.5870    4.2840 c1        1 3FL     -0.355000
     21 C14        -5.7760    0.5620    5.6610 c1        1 3FL      0.361000
     22 O33        -6.3630    1.5390    6.1150 o         1 3FL     -0.377000
     23 N13        -5.5590   -0.5910    6.4870 n         1 3FL     -0.371000
     24 C12        -4.8560   -1.7560    5.9490 c2        1 3FL      0.391000
     25 O34        -4.6530   -2.7230    6.6590 o         1 3FL     -0.396000
     26 H8         -2.4110   -1.2490    0.4820 h1        1 3FL      0.071500
     27 H8A        -2.5040    0.3550    0.4140 h1        1 3FL      0.071500
     28 H6          5.4170    0.5710   -6.7370 DU        1 3FL      0.149000
     29 H2          3.3070   -1.6530   -3.9970 ha        1 3FL      0.109000
     30 H4          4.7610    2.0660   -2.9680 ha        1 3FL      0.151000
     31 H1          4.2090   -1.4000   -6.1690 ha        1 3FL      0.110000
     32 H17         3.8070    0.6900   -1.2970 h1        1 3FL      0.083500
     33 H17A        3.7160   -0.8860   -1.5500 h1        1 3FL      0.083500
     34 HN18        1.7250    0.9040   -2.1450 hn        1 3FL      0.151000
     35 H7          1.8930   -0.9580   -0.1530 h1        1 3FL      0.080000
     36 H7A         1.7880    0.6260    0.0550 h1        1 3FL      0.080000
     37 H22        -0.3220   -1.0320   -1.0040 hc        1 3FL      0.085000
     38 H22A       -0.4300    0.5590   -0.9480 hc        1 3FL      0.085000
     39 H23        -0.1910   -1.1120    1.3450 hc        1 3FL      0.093500
     40 H23A       -0.2830    0.4750    1.4090 hc        1 3FL      0.093500
     41 HN31       -2.4250    0.4240    2.6460 hn        1 3FL      0.238000
     42 H30        -4.2550   -1.4420    1.8600 h1        1 3FL      0.133500
     43 H30A       -4.4800    0.1410    1.7890 h1        1 3FL      0.133500
     44 HN13       -5.8810   -0.6060    7.3420 hn        1 3FL      0.252000
     45 H21        -3.8950   -2.4680    4.2330 hn        1 3FL      0.286000
     46 H15        -5.3730    1.3800    3.7380 ha        1 3FL      0.173000
@<TRIPOS>BOND
     1    1   15 1   
     2    1   16 1   
     3    1   26 1   
     4    1   27 1   
     5    2    3 1   
     6    2    7 1   
     7    3    9 1   
     8    4    9 1   
     9    4   29 1   
    10    5   10 1   
    11    5   30 1   
    12    6    7 1   
    13    7    8 1   
    14    9   31 1   
    15   10   11 1   
    16   11   12 1   
    17   11   32 1   
    18   11   33 1   
    19   12   13 1   
    20   12   34 1   
    21   13   14 1   
    22   13   35 1   
    23   13   36 1   
    24   14   15 1   
    25   14   37 1   
    26   14   38 1   
    27   15   39 1   
    28   15   40 1   
    29   16   17 1   
    30   16   41 1   
    31   17   18 1   
    32   17   42 1   
    33   17   43 1   
    34   18   19 1   
    35   18   20 1   
    36   19   24 1   
    37   19   45 1   
    38   20   46 1   
    39   21   22 1   
    40   21   23 1   
    41   23   24 1   
    42   23   44 1   
    43   24   25 1   
@<TRIPOS>SUBSTRUCTURE
     1 3FL         1 TEMP              0 ****  ****    0 ROOT
