@<TRIPOS>MOLECULE
3FL
   46    47     1     0     0
SMALL
bcc


@<TRIPOS>ATOM
      1 C8          0.8840   -0.0040   -0.1620 c3        1 3FL      0.144800
      2 C5         -3.9410   -1.4770   -0.5280 ca        1 3FL     -0.123600
      3 C6         -4.5470   -2.2260    0.4830 ca        1 3FL     -0.108000
      4 C2         -4.9450   -0.2080    1.7540 ca        1 3FL     -0.152000
      5 C4         -3.8800   -0.0850   -0.4060 ca        1 3FL     -0.112000
      6 O40        -3.6160   -3.3460   -1.9880 o         1 3FL     -0.833300
      7 C38        -3.2950   -2.1540   -1.7270 c         1 3FL      0.907200
      8 O39        -2.4460   -1.4840   -2.3860 o         1 3FL     -0.833300
      9 C1         -5.0560   -1.5900    1.6150 ca        1 3FL     -0.159000
     10 C3         -4.3470    0.5570    0.7430 ca        1 3FL     -0.151300
     11 C17        -4.2350    2.0410    0.9420 c3        1 3FL      0.212100
     12 N18        -3.2510    2.7880    0.1890 n3        1 3FL     -0.820200
     13 C7         -1.8640    2.5880    0.5550 c3        1 3FL      0.167800
     14 C22        -1.1880    1.3260    0.0240 c3        1 3FL     -0.133400
     15 C23         0.3040    1.3440    0.2670 c3        1 3FL     -0.068400
     16 N31         2.3380   -0.0370   -0.1450 n3        1 3FL     -0.837200
     17 C30         2.8710   -1.2160   -0.7970 c3        1 3FL      0.182000
     18 C16         4.3520   -1.4200   -0.5360 cc        1 3FL      0.116400
     19 N11         4.8410   -1.2100    0.7430 n         1 3FL     -0.452100
     20 C15         5.1770   -1.8470   -1.5390 cd        1 3FL     -0.344200
     21 C14         6.5980   -2.0910   -1.2900 c         1 3FL      0.718700
     22 O33         7.4190   -2.4800   -2.1390 o         1 3FL     -0.628500
     23 N13         7.0530   -1.8570    0.0230 n         1 3FL     -0.589500
     24 C12         6.2020   -1.4110    1.0440 c         1 3FL      0.802500
     25 O34         6.6310   -1.1980    2.2010 o         1 3FL     -0.655500
     26 H8          0.5230   -0.7970    0.5540 h1        1 3FL      0.061200
     27 H8A         0.4680   -0.2660   -1.1810 h1        1 3FL      0.061200
     28 H6         -4.6110   -3.3190    0.3610 ha        1 3FL      0.148000
     29 H2         -5.3240    0.2850    2.6590 ha        1 3FL      0.104000
     30 H4         -3.4280    0.4710   -1.2440 ha        1 3FL      0.145000
     31 H1         -5.5370   -2.1800    2.4080 ha        1 3FL      0.106000
     32 H17        -5.2360    2.4970    0.6810 h1        1 3FL      0.041700
     33 H17A       -4.0510    2.2400    2.0380 h1        1 3FL      0.041700
     34 HN18       -3.3680    2.6130   -0.7940 hn        1 3FL      0.362800
     35 H7         -1.3040    3.4860    0.1620 h1        1 3FL      0.035200
     36 H7A        -1.7780    2.6020    1.6780 h1        1 3FL      0.035200
     37 H22        -1.6400    0.4230    0.5170 hc        1 3FL      0.073700
     38 H22A       -1.3790    1.2170   -1.0790 hc        1 3FL      0.073700
     39 H23         0.5210    1.5290    1.3510 hc        1 3FL      0.032700
     40 H23A        0.7730    2.1800   -0.3160 hc        1 3FL      0.032700
     41 HN31        2.7130    0.7910   -0.5680 hn        1 3FL      0.356800
     42 H30         2.3280   -2.1230   -0.3970 h1        1 3FL      0.071200
     43 H30A        2.7190   -1.2050   -1.9180 h1        1 3FL      0.071200
     44 HN13        8.0100   -2.0050    0.2550 hn        1 3FL      0.345500
     45 H21         4.2490   -0.8630    1.4670 hn        1 3FL      0.370500
     46 H15         4.8200   -2.0280   -2.5600 ha        1 3FL      0.180000
@<TRIPOS>BOND
     1    1   15 1   
     2    1   16 1   
     3    1   26 1   
     4    1   27 1   
     5    2    3 ar  
     6    2    5 ar  
     7    2    7 1   
     8    3    9 ar  
     9    3   28 1   
    10    4    9 ar  
    11    4   10 ar  
    12    4   29 1   
    13    5   10 ar  
    14    5   30 1   
    15    6    7 1   
    16    7    8 1   
    17    9   31 1   
    18   10   11 1   
    19   11   12 1   
    20   11   32 1   
    21   11   33 1   
    22   12   13 1   
    23   12   34 1   
    24   13   14 1   
    25   13   35 1   
    26   13   36 1   
    27   14   15 1   
    28   14   37 1   
    29   14   38 1   
    30   15   39 1   
    31   15   40 1   
    32   16   17 1   
    33   16   41 1   
    34   17   18 1   
    35   17   42 1   
    36   17   43 1   
    37   18   19 1   
    38   18   20 2   
    39   19   24 1   
    40   19   45 1   
    41   20   21 1   
    42   20   46 1   
    43   21   22 2   
    44   21   23 1   
    45   23   24 1   
    46   23   44 1   
    47   24   25 2   
@<TRIPOS>SUBSTRUCTURE
     1 3FL         1 TEMP              0 ****  ****    0 ROOT
