@<TRIPOS>MOLECULE
3FL
   48    49     1     0     0
SMALL
bcc


@<TRIPOS>ATOM
      1 C8          1.4710   -0.3000    0.0260 c3        1 3FL      0.111800
      2 C5          3.4210   -1.1810   -3.3940 ca        1 3FL     -0.123600
      3 C6          3.0430   -0.9770   -4.7230 ca        1 3FL     -0.037000
      4 C2          4.6260    0.8560   -4.8920 ca        1 3FL     -0.089000
      5 C4          4.4710   -0.4340   -2.8540 ca        1 3FL     -0.094000
      6 O40         3.2400   -2.4420   -1.3700 o         1 3FL     -0.833800
      7 C38         2.6420   -2.0030   -2.4170 c         1 3FL      0.911200
      8 O39         1.3850   -2.0850   -2.5030 o         1 3FL     -0.833800
      9 C1          3.6790    0.0150   -5.4770 ca        1 3FL     -0.134000
     10 C3          5.0070    0.6450   -3.5610 ca        1 3FL     -0.210300
     11 C17         5.9210    1.5710   -2.8430 c3        1 3FL      0.186100
     12 N18         5.1580    2.4430   -1.8670 n4        1 3FL     -0.772000
     13 C7          4.6700    1.7410   -0.6360 c3        1 3FL      0.108800
     14 C22         3.1870    1.3660   -0.6810 c3        1 3FL     -0.103400
     15 C23         2.9080    0.1840    0.2320 c3        1 3FL     -0.109400
     16 N31         1.2810   -1.7300    0.4010 n4        1 3FL     -0.789000
     17 C30        -0.0900   -2.2180    0.0970 c3        1 3FL      0.135000
     18 C16        -1.1760   -1.4640    0.8240 cc        1 3FL      0.016400
     19 N11        -1.2170   -1.5520    2.2140 n         1 3FL     -0.481100
     20 C15        -2.0620   -0.6960    0.1350 cd        1 3FL     -0.251200
     21 C14        -3.1410    0.0240    0.8410 c         1 3FL      0.703700
     22 O33        -3.9770    0.7410    0.2750 o         1 3FL     -0.565500
     23 N13        -3.1800   -0.1220    2.2380 n         1 3FL     -0.580500
     24 C12        -2.2750   -0.9310    2.9370 c         1 3FL      0.801500
     25 O34        -2.3410   -1.0930    4.1700 o         1 3FL     -0.598500
     26 H8          0.7560    0.3290    0.6260 hx        1 3FL      0.106200
     27 H8A         1.1970   -0.2280   -1.0720 hx        1 3FL      0.106200
     28 H6          2.2340   -1.5890   -5.1580 ha        1 3FL      0.176000
     29 H2          5.0720    1.6730   -5.4780 ha        1 3FL      0.140000
     30 H4          4.8400   -0.7040   -1.8500 ha        1 3FL      0.149000
     31 H1          3.4080    0.1540   -6.5360 ha        1 3FL      0.158000
     32 H17         6.4390    2.2700   -3.5620 hx        1 3FL      0.105700
     33 H17A        6.6970    1.0030   -2.2540 hx        1 3FL      0.105700
     34 HN18        5.7760    3.2090   -1.5800 hn        1 3FL      0.448300
     35 H7          5.3020    0.8170   -0.4880 hx        1 3FL      0.105200
     36 H7A         4.8500    2.4310    0.2390 hx        1 3FL      0.105200
     37 H22         2.5670    2.2470   -0.3700 hc        1 3FL      0.079200
     38 H22A        2.8840    1.0860   -1.7300 hc        1 3FL      0.079200
     39 H23         3.6270   -0.6500   -0.0150 hc        1 3FL      0.086200
     40 H23A        3.0650    0.4770    1.3020 hc        1 3FL      0.086200
     41 HN31        1.9680   -2.3230   -0.1940 hn        1 3FL      0.478800
     42 H30        -0.1250   -3.3150    0.3650 hx        1 3FL      0.143700
     43 H30A       -0.2360   -2.1360   -1.0290 hx        1 3FL      0.143700
     44 HN13       -3.9090    0.3120    2.7650 hn        1 3FL      0.368500
     45 H21        -0.7630   -2.3080    2.6790 hn        1 3FL      0.343500
     46 H15        -2.0340   -0.5780   -0.9570 ha        1 3FL      0.192000
     47 H182        4.3520    2.8440   -2.3620 hn        1 3FL      0.448300
     48 H312        1.4960   -1.8550    1.3880 hn        1 3FL      0.478800
@<TRIPOS>BOND
     1    1   15 1   
     2    1   16 1   
     3    1   26 1   
     4    1   27 1   
     5    2    3 ar  
     6    2    5 ar  
     7    2    7 1   
     8    3    9 ar  
     9    3   28 1   
    10    4    9 ar  
    11    4   10 ar  
    12    4   29 1   
    13    5   10 ar  
    14    5   30 1   
    15    6    7 1   
    16    7    8 1   
    17    9   31 1   
    18   10   11 1   
    19   11   12 1   
    20   11   32 1   
    21   11   33 1   
    22   12   13 1   
    23   12   34 1   
    24   12   47 1   
    25   13   14 1   
    26   13   35 1   
    27   13   36 1   
    28   14   15 1   
    29   14   37 1   
    30   14   38 1   
    31   15   39 1   
    32   15   40 1   
    33   16   17 1   
    34   16   41 1   
    35   16   48 1   
    36   17   18 1   
    37   17   42 1   
    38   17   43 1   
    39   18   19 1   
    40   18   20 2   
    41   19   24 1   
    42   19   45 1   
    43   20   21 1   
    44   20   46 1   
    45   21   22 2   
    46   21   23 1   
    47   23   24 1   
    48   23   44 1   
    49   24   25 2   
@<TRIPOS>SUBSTRUCTURE
     1 3FL         1 TEMP              0 ****  ****    0 ROOT
