@<TRIPOS>MOLECULE
3FL
   48    49     1     0     0
SMALL
bcc


@<TRIPOS>ATOM
      1 C8         -0.1370   -0.6070   -0.1450 c3        1 3FL      0.157800
      2 C5          6.0740   -1.4580   -4.5900 ca        1 3FL     -0.121600
      3 C6          6.0230   -0.9630   -5.9000 ca        1 3FL     -0.024000
      4 C2          5.4080    1.2150   -5.0480 ca        1 3FL     -0.076000
      5 C4          5.7980   -0.6180   -3.5070 ca        1 3FL     -0.046000
      6 O40         6.7580   -3.7040   -5.2250 o         1 3FL     -0.506000
      7 C38         6.4300   -2.8710   -4.3780 c         1 3FL      0.641700
      8 O39         6.3730   -3.2850   -3.0800 oh        1 3FL     -0.615100
      9 C1          5.6890    0.3750   -6.1220 ca        1 3FL     -0.129000
     10 C3          5.4600    0.7190   -3.7360 ca        1 3FL     -0.204300
     11 C17         5.2110    1.6330   -2.5870 c3        1 3FL      0.176100
     12 N18         3.7490    1.7220   -2.2420 ny        1 3FL     -0.767000
     13 C7          3.2740    0.5470   -1.4510 c3        1 3FL      0.097800
     14 C22         1.7680    0.5720   -1.2170 c3        1 3FL     -0.108400
     15 C23         1.3730   -0.6330   -0.3850 c3        1 3FL     -0.085400
     16 N31        -0.6120   -1.7460    0.6170 n7        1 3FL     -0.810200
     17 C30        -1.9680   -1.6120    1.0930 c3        1 3FL      0.190000
     18 C16        -2.1720   -0.5660    2.1790 cc        1 3FL      0.046400
     19 N11        -1.8550   -0.9050    3.4850 ns        1 3FL     -0.471100
     20 C15        -2.5960    0.6900    1.8650 cd        1 3FL     -0.317200
     21 C14        -2.7600    1.7140    2.9070 c         1 3FL      0.711700
     22 O33        -3.1120    2.8840    2.6900 o         1 3FL     -0.599500
     23 N13        -2.4690    1.3170    4.2240 ns        1 3FL     -0.582500
     24 C12        -2.0430    0.0190    4.5420 c         1 3FL      0.802500
     25 O34        -1.8000   -0.3300    5.7140 o         1 3FL     -0.617500
     26 H8         -0.6670   -0.6340   -1.1400 h1        1 3FL      0.044700
     27 H8A        -0.4040    0.3750    0.3510 h1        1 3FL      0.044700
     28 H6          6.2530   -1.6370   -6.7450 ha        1 3FL      0.187000
     29 H2          5.1650    2.2730   -5.2320 ha        1 3FL      0.144000
     30 H4          5.8660   -1.0190   -2.4810 ha        1 3FL      0.161000
     31 H1          5.6570    0.7670   -7.1520 ha        1 3FL      0.170000
     32 H17         5.5540    2.6790   -2.8380 hx        1 3FL      0.110700
     33 H17A        5.7620    1.2820   -1.6670 hx        1 3FL      0.110700
     34 HN18        3.5820    2.5770   -1.7010 hn        1 3FL      0.450300
     35 H7          3.5650   -0.3860   -2.0160 hx        1 3FL      0.109700
     36 H7A         3.8190    0.5520   -0.4630 hx        1 3FL      0.109700
     37 H22         1.4690    1.5120   -0.6800 hc        1 3FL      0.069700
     38 H22A        1.2190    0.5460   -2.1960 hc        1 3FL      0.069700
     39 H23         1.6580   -1.5780   -0.9180 hc        1 3FL      0.063700
     40 H23A        1.9200   -0.6150    0.5940 hc        1 3FL      0.063700
     41 HN31        6.6390   -4.2210   -3.0290 ho        1 3FL      0.467000
     42 H30        -2.2900   -2.6260    1.4700 h1        1 3FL      0.086700
     43 H30A       -2.6340   -1.3420    0.2240 h1        1 3FL      0.086700
     44 HN13       -2.6020    1.9540    4.9810 hn        1 3FL      0.360500
     45 H21        -1.6530   -1.8470    3.7360 hn        1 3FL      0.353500
     46 H15        -2.8520    0.9930    0.8430 ha        1 3FL      0.174000
     47 H182        3.2050    1.7790   -3.1110 hn        1 3FL      0.450300
     48 H312        0.0150   -1.9640    1.3690 hn        1 3FL      0.369800
@<TRIPOS>BOND
     1    1   15 1   
     2    1   16 1   
     3    1   26 1   
     4    1   27 1   
     5    2    3 ar  
     6    2    5 ar  
     7    2    7 1   
     8    3    9 ar  
     9    3   28 1   
    10    4    9 ar  
    11    4   10 ar  
    12    4   29 1   
    13    5   10 ar  
    14    5   30 1   
    15    6    7 2   
    16    7    8 1   
    17    8   41 1   
    18    9   31 1   
    19   10   11 1   
    20   11   12 1   
    21   11   32 1   
    22   11   33 1   
    23   12   13 1   
    24   12   34 1   
    25   12   47 1   
    26   13   14 1   
    27   13   35 1   
    28   13   36 1   
    29   14   15 1   
    30   14   37 1   
    31   14   38 1   
    32   15   39 1   
    33   15   40 1   
    34   16   17 1   
    35   16   48 1   
    36   17   18 1   
    37   17   42 1   
    38   17   43 1   
    39   18   19 1   
    40   18   20 2   
    41   19   24 1   
    42   19   45 1   
    43   20   21 1   
    44   20   46 1   
    45   21   22 2   
    46   21   23 1   
    47   23   24 1   
    48   23   44 1   
    49   24   25 2   
@<TRIPOS>SUBSTRUCTURE
     1 3FL         1 TEMP              0 ****  ****    0 ROOT
