@<TRIPOS>MOLECULE
3FL
   48    49     1     0     0
SMALL
bcc


@<TRIPOS>ATOM
      1 C8          1.4800   -0.3170    0.0280 c3        1 3FL      0.111800
      2 C5          3.4000   -1.1410   -3.4230 ca        1 3FL     -0.123600
      3 C6          3.0100   -0.9170   -4.7450 ca        1 3FL     -0.037000
      4 C2          4.5900    0.9200   -4.8990 ca        1 3FL     -0.089000
      5 C4          4.4550   -0.4030   -2.8810 ca        1 3FL     -0.094000
      6 O40         3.2380   -2.4350   -1.4170 o         1 3FL     -0.833800
      7 C38         2.6310   -1.9790   -2.4520 c         1 3FL      0.911200
      8 O39         1.3730   -2.0610   -2.5280 o         1 3FL     -0.833800
      9 C1          3.6390    0.0880   -5.4890 ca        1 3FL     -0.134000
     10 C3          4.9840    0.6880   -3.5750 ca        1 3FL     -0.210300
     11 C17         5.9030    1.6030   -2.8510 c3        1 3FL      0.186100
     12 N18         5.1480    2.4590   -1.8540 n4        1 3FL     -0.772000
     13 C7          4.6720    1.7370   -0.6300 c3        1 3FL      0.108800
     14 C22         3.1890    1.3620   -0.6680 c3        1 3FL     -0.103400
     15 C23         2.9190    0.1660    0.2290 c3        1 3FL     -0.109400
     16 N31         1.2940   -1.7520    0.3810 n4        1 3FL     -0.789000
     17 C30        -0.0780   -2.2360    0.0830 c3        1 3FL      0.135000
     18 C16        -1.1590   -1.4950    0.8310 cc        1 3FL      0.016400
     19 N11        -1.1870   -1.6050    2.2200 n         1 3FL     -0.481100
     20 C15        -2.0510   -0.7180    0.1630 cd        1 3FL     -0.251200
     21 C14        -3.1250   -0.0110    0.8890 c         1 3FL      0.703700
     22 O33        -3.9670    0.7140    0.3420 o         1 3FL     -0.565500
     23 N13        -3.1510   -0.1790    2.2840 n         1 3FL     -0.580500
     24 C12        -2.2390   -0.9980    2.9620 c         1 3FL      0.801500
     25 O34        -2.2940   -1.1790    4.1920 o         1 3FL     -0.598500
     26 H8          1.1970   -0.2280   -1.0660 hx        1 3FL      0.106200
     27 H8A         0.7700    0.3020    0.6440 hx        1 3FL      0.106200
     28 H6          2.1980   -1.5220   -5.1820 ha        1 3FL      0.176000
     29 H2          5.0310    1.7470   -5.4760 ha        1 3FL      0.140000
     30 H4          4.8330   -0.6880   -1.8850 ha        1 3FL      0.149000
     31 H1          3.3580    0.2430   -6.5430 ha        1 3FL      0.158000
     32 H17         6.4140    2.3140   -3.5630 hx        1 3FL      0.105700
     33 H17A        6.6850    1.0260   -2.2780 hx        1 3FL      0.105700
     34 HN18        5.7690    3.2200   -1.5600 hn        1 3FL      0.448300
     35 H7          5.3060    0.8120   -0.5020 hx        1 3FL      0.105200
     36 H7A         4.8590    2.4130    0.2540 hx        1 3FL      0.105200
     37 H22         2.5710    2.2380   -0.3380 hc        1 3FL      0.079200
     38 H22A        2.8770    1.0980   -1.7180 hc        1 3FL      0.079200
     39 H23         3.6370   -0.6640   -0.0380 hc        1 3FL      0.086200
     40 H23A        3.0850    0.4420    1.3020 hc        1 3FL      0.086200
     41 HN31        1.9770   -2.3360   -0.2280 hn        1 3FL      0.478800
     42 H30        -0.1100   -3.3380    0.3330 hx        1 3FL      0.143700
     43 H30A       -0.2350   -2.1370   -1.0410 hx        1 3FL      0.143700
     44 HN13       -3.8770    0.2460    2.8240 hn        1 3FL      0.368500
     45 H21        -0.7280   -2.3680    2.6680 hn        1 3FL      0.343500
     46 H15        -2.0340   -0.5820   -0.9280 ha        1 3FL      0.192000
     47 H182        4.3380    2.8680   -2.3350 hn        1 3FL      0.448300
     48 H312        1.5180   -1.8920    1.3650 hn        1 3FL      0.478800
@<TRIPOS>BOND
     1    1   15 1   
     2    1   16 1   
     3    1   26 1   
     4    1   27 1   
     5    2    3 ar  
     6    2    5 ar  
     7    2    7 1   
     8    3    9 ar  
     9    3   28 1   
    10    4    9 ar  
    11    4   10 ar  
    12    4   29 1   
    13    5   10 ar  
    14    5   30 1   
    15    6    7 1   
    16    7    8 1   
    17    9   31 1   
    18   10   11 1   
    19   11   12 1   
    20   11   32 1   
    21   11   33 1   
    22   12   13 1   
    23   12   34 1   
    24   12   47 1   
    25   13   14 1   
    26   13   35 1   
    27   13   36 1   
    28   14   15 1   
    29   14   37 1   
    30   14   38 1   
    31   15   39 1   
    32   15   40 1   
    33   16   17 1   
    34   16   41 1   
    35   16   48 1   
    36   17   18 1   
    37   17   42 1   
    38   17   43 1   
    39   18   19 1   
    40   18   20 2   
    41   19   24 1   
    42   19   45 1   
    43   20   21 1   
    44   20   46 1   
    45   21   22 2   
    46   21   23 1   
    47   23   24 1   
    48   23   44 1   
    49   24   25 2   
@<TRIPOS>SUBSTRUCTURE
     1 3FL         1 TEMP              0 ****  ****    0 ROOT
