@<TRIPOS>MOLECULE
3FM
   28    28     1     0     0
SMALL
bcc


@<TRIPOS>ATOM
      1 O5         -0.8310    0.8830   -1.8500 os        1 3FM     -0.455600
      2 C1          0.6360    0.8830   -1.8500 c3        1 3FM      0.308900
      3 O1          1.0850   -0.2460   -2.5230 oh        1 3FM     -0.618800
      4 C2          1.2180    0.8830   -0.4480 c3        1 3FM      0.099100
      5 O2          0.9430    2.1540    0.1700 oh        1 3FM     -0.580800
      6 C3          0.6500   -0.1930    0.3980 c3        1 3FM      0.139100
      7 O3          1.1150   -0.0130    1.7660 os        1 3FM     -0.442900
      8 CA          2.0630   -0.9670    2.1750 c         1 3FM      0.739100
      9 OCA         2.4350   -1.8240    1.4000 o         1 3FM     -0.587000
     10 NCA         2.5880   -0.9250    3.4920 n         1 3FM     -0.635000
     11 C4         -0.8320   -0.1860    0.3910 c3        1 3FM      0.122100
     12 O4         -1.3060   -1.3570    1.0810 oh        1 3FM     -0.593800
     13 C5         -1.4030   -0.1800   -1.0160 c3        1 3FM      0.107100
     14 C6         -2.8820    0.0110   -0.9360 c3        1 3FM      0.140400
     15 O6         -3.4070    0.1620   -2.2360 oh        1 3FM     -0.594800
     16 H1          0.9510    1.6780   -2.3220 h2        1 3FM      0.069700
     17 HO1         1.4180   -0.0080   -3.3100 ho        1 3FM      0.424000
     18 H2          2.1850    0.7620   -0.5060 h1        1 3FM      0.092700
     19 HO2         1.6540    2.6800    0.0940 ho        1 3FM      0.405000
     20 H3          0.9640   -1.0560    0.0660 h1        1 3FM      0.102700
     21 HNC1        2.3170   -0.2740    4.0710 hn        1 3FM      0.325500
     22 HNC2        3.1960   -1.5490    3.7610 hn        1 3FM      0.325500
     23 H4         -1.1470    0.6080    0.8640 h1        1 3FM      0.074700
     24 HO4        -1.7350   -1.1130    1.8190 ho        1 3FM      0.420000
     25 H5         -1.2180   -1.0420   -1.4340 h1        1 3FM      0.077700
     26 H61        -3.2880   -0.7670   -0.5090 h1        1 3FM      0.064200
     27 H62        -3.0790    0.8100   -0.4110 h1        1 3FM      0.064200
     28 H6         -4.2930    0.1870   -2.1950 ho        1 3FM      0.407000
@<TRIPOS>BOND
     1    1    2 1   
     2    1   13 1   
     3    2    3 1   
     4    2    4 1   
     5    2   16 1   
     6    3   17 1   
     7    4    5 1   
     8    4    6 1   
     9    4   18 1   
    10    5   19 1   
    11    6    7 1   
    12    6   11 1   
    13    6   20 1   
    14    7    8 1   
    15    8    9 2   
    16    8   10 1   
    17   10   21 1   
    18   10   22 1   
    19   11   12 1   
    20   11   13 1   
    21   11   23 1   
    22   12   24 1   
    23   13   14 1   
    24   13   25 1   
    25   14   15 1   
    26   14   26 1   
    27   14   27 1   
    28   15   28 1   
@<TRIPOS>SUBSTRUCTURE
     1 3FM         1 TEMP              0 ****  ****    0 ROOT
