@<TRIPOS>MOLECULE
3FM
   28    28     1     0     0
SMALL
bcc


@<TRIPOS>ATOM
      1 O5         -0.7900   -0.2510   -2.0710 os        1 3FM     -0.455600
      2 C1         -1.7280    0.0560   -1.0600 c3        1 3FM      0.308900
      3 O1         -1.9560    1.4420   -1.1390 oh        1 3FM     -0.618800
      4 C2         -1.2800   -0.2710    0.3800 c3        1 3FM      0.099100
      5 O2         -1.3130   -1.6720    0.5850 oh        1 3FM     -0.580800
      6 C3          0.1570    0.2090    0.6150 c3        1 3FM      0.139100
      7 O3          0.7160   -0.3530    1.8110 os        1 3FM     -0.442900
      8 CA          0.2520    0.1680    3.0060 c         1 3FM      0.739100
      9 OCA        -0.6390    1.0320    2.9890 o         1 3FM     -0.587000
     10 NCA         0.9060   -0.3410    4.0990 n         1 3FM     -0.635000
     11 C4          1.0830   -0.2760   -0.5140 c3        1 3FM      0.122100
     12 O4          2.3870    0.2560   -0.3630 oh        1 3FM     -0.593800
     13 C5          0.5340    0.2450   -1.8500 c3        1 3FM      0.107100
     14 C6          1.3730   -0.2700   -3.0230 c3        1 3FM      0.140400
     15 O6          0.9250    0.2700   -4.2470 oh        1 3FM     -0.594800
     16 H1         -2.6420   -0.5420   -1.3430 h2        1 3FM      0.069700
     17 HO1        -2.1450    1.6530   -2.0620 ho        1 3FM      0.424000
     18 H2         -1.9640    0.2540    1.1060 h1        1 3FM      0.092700
     19 HO2        -2.2430   -1.9320    0.5790 ho        1 3FM      0.405000
     20 H3          0.1530    1.3320    0.6880 h1        1 3FM      0.102700
     21 HNC1        0.5140   -0.1520    4.9890 hn        1 3FM      0.325500
     22 HNC2        1.4880   -1.1330    3.9860 hn        1 3FM      0.325500
     23 H4          1.1160   -1.4010   -0.5100 h1        1 3FM      0.074700
     24 HO4         2.6970   -0.0250    0.5080 ho        1 3FM      0.420000
     25 H5          0.5080    1.3700   -1.8460 h1        1 3FM      0.077700
     26 H61         2.4290    0.0900   -2.9020 h1        1 3FM      0.064200
     27 H62         1.3420   -1.3910   -3.0530 h1        1 3FM      0.064200
     28 H6          0.0090   -0.0130   -4.3630 ho        1 3FM      0.407000
@<TRIPOS>BOND
     1    1    2 1   
     2    1   13 1   
     3    2    3 1   
     4    2    4 1   
     5    2   16 1   
     6    3   17 1   
     7    4    5 1   
     8    4    6 1   
     9    4   18 1   
    10    5   19 1   
    11    6    7 1   
    12    6   11 1   
    13    6   20 1   
    14    7    8 1   
    15    8    9 2   
    16    8   10 1   
    17   10   21 1   
    18   10   22 1   
    19   11   12 1   
    20   11   13 1   
    21   11   23 1   
    22   12   24 1   
    23   13   14 1   
    24   13   25 1   
    25   14   15 1   
    26   14   26 1   
    27   14   27 1   
    28   15   28 1   
@<TRIPOS>SUBSTRUCTURE
     1 3FM         1 TEMP              0 ****  ****    0 ROOT
