@<TRIPOS>MOLECULE
3FN
   46    49     1     0     0
SMALL
bcc


@<TRIPOS>ATOM
      1 C1         -6.7640   -0.7380   -0.1450 c3        1 3FN     -0.131400
      2 C2         -7.9180    0.1170    0.3490 c3        1 3FN      0.127900
      3 C4         -6.7310    2.1280   -0.0450 c3        1 3FN      0.127900
      4 C5         -5.5110    1.3780   -0.5510 c3        1 3FN     -0.131400
      5 C24         6.5200    0.5890    0.1280 ca        1 3FN     -0.185000
      6 O3         -7.9330    1.3990   -0.2650 os        1 3FN     -0.412600
      7 C15         1.6730   -1.4600   -0.5140 c         1 3FN      0.697700
      8 C25         5.5070   -0.1700    0.7320 ca        1 3FN      0.147900
      9 C8         -3.0010   -0.5220    0.0590 ca        1 3FN      0.924900
     10 C6         -5.4350   -0.0050    0.1190 c3        1 3FN      0.219500
     11 C10        -0.4170   -0.1490    0.9010 ca        1 3FN     -0.424400
     12 C17         0.9290    0.0190    1.3390 cc        1 3FN      0.003800
     13 C23         6.1720    1.6500   -0.7260 ca        1 3FN      0.126900
     14 C22         4.8240    1.9610   -0.9760 ca        1 3FN     -0.152000
     15 C21         3.8200    1.2130   -0.3700 ca        1 3FN     -0.134000
     16 C9         -0.7150   -0.9800   -0.2350 ca        1 3FN      0.624200
     17 C11        -1.5190    0.4710    1.5400 ca        1 3FN      0.520200
     18 C16         1.9260   -0.6110    0.6660 cd        1 3FN     -0.053100
     19 C20         4.1500    0.1560    0.4790 ca        1 3FN      0.072100
     20 F1          7.1510    2.3790   -1.3130 f         1 3FN     -0.135900
     21 O26         3.2190   -0.6090    1.1760 os        1 3FN     -0.211200
     22 N7         -2.7810    0.3240    1.1610 nb        1 3FN     -0.760000
     23 O19         2.5700   -2.0330   -1.1550 o         1 3FN     -0.594500
     24 N14         0.3240   -1.6090   -0.9250 n         1 3FN     -0.425300
     25 N12        -2.0070   -1.1550   -0.6620 nb        1 3FN     -0.812000
     26 N13        -4.3110   -0.8110   -0.3170 nh        1 3FN     -0.824900
     27 H1         -6.7790   -1.7220    0.3880 hc        1 3FN      0.060450
     28 H1A        -6.8860   -0.9300   -1.2420 hc        1 3FN      0.060450
     29 H2         -8.9030   -0.3370    0.0570 h1        1 3FN      0.053200
     30 H2A        -7.8710    0.2340    1.4650 h1        1 3FN      0.053200
     31 H4         -6.6250    2.3560    1.0500 h1        1 3FN      0.053200
     32 H4A        -6.8820    3.0810   -0.6180 h1        1 3FN      0.053200
     33 H5         -5.5800    1.2600   -1.6630 hc        1 3FN      0.060450
     34 H5A        -4.5920    1.9730   -0.3170 hc        1 3FN      0.060450
     35 H24         7.5760    0.3480    0.3170 ha        1 3FN      0.168000
     36 H6         -5.3420    0.1500    1.2370 h1        1 3FN      0.087700
     37 H17         1.1360    0.6410    2.2250 ha        1 3FN      0.159000
     38 H22         4.5720    2.7920   -1.6500 ha        1 3FN      0.154000
     39 H21         2.7630    1.4460   -0.5660 ha        1 3FN      0.150000
     40 H11        -1.3490    1.1320    2.4140 h4        1 3FN      0.033100
     41 HN13       -4.4270   -1.2720   -1.1950 hn        1 3FN      0.439800
     42 C18         0.0230   -2.4600   -2.0560 c3        1 3FN      0.069300
     43 F2          5.8260   -1.1910    1.5560 f         1 3FN     -0.116900
     44 H18         0.9740   -2.8900   -2.4700 h1        1 3FN      0.065033
     45 H18A       -0.6520   -3.2980   -1.7350 h1        1 3FN      0.065033
     46 H18B       -0.4890   -1.8610   -2.8550 h1        1 3FN      0.065033
@<TRIPOS>BOND
     1    1    2 1   
     2    1   10 1   
     3    1   27 1   
     4    1   28 1   
     5    2    6 1   
     6    2   29 1   
     7    2   30 1   
     8    3    4 1   
     9    3    6 1   
    10    3   31 1   
    11    3   32 1   
    12    4   10 1   
    13    4   33 1   
    14    4   34 1   
    15    5    8 ar  
    16    5   13 ar  
    17    5   35 1   
    18    7   18 1   
    19    7   23 2   
    20    7   24 1   
    21    8   19 ar  
    22    8   43 1   
    23    9   22 ar  
    24    9   25 ar  
    25    9   26 1   
    26   10   26 1   
    27   10   36 1   
    28   11   12 1   
    29   11   16 ar  
    30   11   17 ar  
    31   12   18 2   
    32   12   37 1   
    33   13   14 ar  
    34   13   20 1   
    35   14   15 ar  
    36   14   38 1   
    37   15   19 ar  
    38   15   39 1   
    39   16   24 1   
    40   16   25 ar  
    41   17   22 ar  
    42   17   40 1   
    43   18   21 1   
    44   19   21 1   
    45   24   42 1   
    46   26   41 1   
    47   42   44 1   
    48   42   45 1   
    49   42   46 1   
@<TRIPOS>SUBSTRUCTURE
     1 3FN         1 TEMP              0 ****  ****    0 ROOT
