@<TRIPOS>MOLECULE
3FN
   47    49     1     0     0
SMALL
bcc


@<TRIPOS>ATOM
      1 C1          0.9070    2.8130    0.5780 c3        1 3FN     -0.330000
      2 C2         -0.0740    3.0610    1.6410 c1        1 3FN     -0.033000
      3 C4         -1.4390   -0.7600    3.6500 c2        1 3FN     -0.176000
      4 C5         -1.5480    0.2120    2.7490 c2        1 3FN     -0.240000
      5 C24        -5.3750    8.6150    4.0700 c2        1 3FN     -0.303000
      6 O3          0.2780    3.3770    2.8390 oh        1 3FN     -0.141000
      7 C15        -7.5410    4.4520    0.2710 c2        1 3FN      0.358000
      8 C25        -6.4000    8.3530    3.1080 c2        1 3FN      0.385000
      9 C8         -3.4350    1.9060    0.5790 c3        1 3FN      0.086000
     10 C6         -2.0880   -0.0090    1.3690 c3        1 3FN     -0.042000
     11 C10        -5.2500    3.5850    2.0010 c3        1 3FN     -0.103000
     12 C17        -5.8650    4.9090    2.1380 c2        1 3FN     -0.093000
     13 C23        -4.4770    7.6320    4.4560 c2        1 3FN      0.258000
     14 C22        -4.5030    6.2290    3.9460 c3        1 3FN     -0.180000
     15 C21        -5.5430    6.0250    2.9480 c2        1 3FN      0.081000
     16 C9         -5.5950    2.9690    0.6340 c2        1 3FN      0.087000
     17 C11        -3.7540    3.7290    2.2060 c1        1 3FN     -0.171000
     18 C16        -6.9290    5.3100    1.3160 c2        1 3FN      0.063000
     19 C20        -6.4460    7.0620    2.5670 c2        1 3FN     -0.165000
     20 O26        -7.3190    6.6090    1.5590 os        1 3FN      0.017000
     21 N7         -2.9500    2.9500    1.5530 n3        1 3FN     -0.238000
     22 N14        -6.8840    3.2310    0.0780 n         1 3FN     -0.256000
     23 N12        -4.7450    2.2260   -0.0180 n2        1 3FN     -0.178000
     24 N13        -3.4010    0.5310    1.0950 n3        1 3FN     -0.291000
     25 H1          0.7170    3.5310   -0.2620 hc        1 3FN      0.123667
     26 H1A        -2.1780   -1.1200    1.1720 h1        1 3FN      0.104500
     27 H2          0.7470    1.7770    0.1780 hc        1 3FN      0.123667
     28 H2A         1.9760    2.9120    0.9000 hc        1 3FN      0.123667
     29 H4         -1.0150   -0.5880    4.6490 ha        1 3FN      0.122500
     30 H4A         1.2460    3.4410    3.0050 ho        1 3FN      0.187000
     31 H5         -1.2170    1.2410    2.9710 ha        1 3FN      0.124000
     32 H5A        -1.7560   -1.7950    3.4550 ha        1 3FN      0.122500
     33 H24        -5.3090    9.6320    4.5010 ha        1 3FN      0.214000
     34 H6         -1.3470    0.4060    0.6250 h1        1 3FN      0.104500
     35 H17        -5.6420    2.8920    2.8060 hc        1 3FN      0.165000
     36 H22        -3.4990    5.9090    3.4960 hc        1 3FN      0.230500
     37 H21        -4.6350    5.5110    4.8170 hc        1 3FN      0.230500
     38 H11        -1.9240    3.0180    1.6640 hn        1 3FN      0.319000
     39 HN13       -2.7180    1.9400   -0.3110 h3        1 3FN      0.154000
     40 C18        -7.3690    2.3680   -0.9830 c3        1 3FN     -0.087000
     41 F2         -7.2470    9.3110    2.7540 f         1 3FN      0.003000
     42 H18        -8.4610    2.5680   -1.1530 h1        1 3FN      0.114667
     43 H18A       -7.2300    1.2980   -0.6720 h1        1 3FN      0.114667
     44 H18B       -6.8040    2.5540   -1.9360 h1        1 3FN      0.114667
     45 H132       -4.0260    0.3910    1.8650 hn        1 3FN      0.174000
     46 O19        -8.5740    4.7770   -0.3260 o         1 3FN     -0.248000
     47 F1         -3.5230    7.9130    5.3490 f         1 3FN     -0.028000
@<TRIPOS>BOND
     1    1    2 1   
     2    1   25 1   
     3    1   27 1   
     4    1   28 1   
     5    2    6 1   
     6    3    4 1   
     7    3   29 1   
     8    3   32 1   
     9    4   10 1   
    10    4   31 1   
    11    5    8 1   
    12    5   13 1   
    13    5   33 1   
    14    6   30 1   
    15    7   18 1   
    16    7   22 1   
    17    7   46 1   
    18    8   19 1   
    19    8   41 1   
    20    9   21 1   
    21    9   23 1   
    22    9   24 1   
    23    9   39 1   
    24   10   24 1   
    25   10   26 1   
    26   10   34 1   
    27   11   12 1   
    28   11   16 1   
    29   11   17 1   
    30   11   35 1   
    31   12   15 1   
    32   12   18 1   
    33   13   14 1   
    34   13   47 1   
    35   14   15 1   
    36   14   36 1   
    37   14   37 1   
    38   15   19 1   
    39   16   22 1   
    40   16   23 1   
    41   17   21 1   
    42   18   20 1   
    43   19   20 1   
    44   21   38 1   
    45   22   40 1   
    46   24   45 1   
    47   40   42 1   
    48   40   43 1   
    49   40   44 1   
@<TRIPOS>SUBSTRUCTURE
     1 3FN         1 TEMP              0 ****  ****    0 ROOT
