@<TRIPOS>MOLECULE
3FN
   46    47     1     0     0
SMALL
bcc


@<TRIPOS>ATOM
      1 C1          1.0090   -2.5770   -0.6480 c3        1 3FN     -0.337000
      2 C2          2.4680   -2.4830   -0.4370 c1        1 3FN      0.026000
      3 C4          2.1490    1.8490    0.6950 c3        1 3FN     -0.184000
      4 C5          0.7080    1.5530    0.8020 c2        1 3FN     -0.223000
      5 C24        -8.7660    8.9300    4.4480 ca        1 3FN     -0.206000
      6 O3          3.0170   -1.3700   -0.0950 oh        1 3FN     -0.152000
      7 C15        -7.1120    4.2800    1.9690 c2        1 3FN      0.350000
      8 C25        -7.9200    8.3470    3.4910 ca        1 3FN      0.118000
      9 C8         -2.4860    3.1780    1.6490 c2        1 3FN      0.261000
     10 C6         -0.1850    2.4880    1.1850 c2        1 3FN     -0.031000
     11 C10        -4.4040    4.8760    2.7500 c3        1 3FN     -0.184000
     12 C17        -5.3680    5.9660    2.5040 c2        1 3FN     -0.029000
     13 C23        -9.9900    8.3080    4.7500 ca        1 3FN      0.121000
     14 C22       -10.3750    7.1150    4.1070 ca        1 3FN     -0.176000
     15 C21        -9.5360    6.5440    3.1590 ca        1 3FN     -0.076000
     16 C9         -4.7730    3.5750    2.0430 c2        1 3FN      0.205000
     17 C11        -2.9750    5.3030    2.4830 c1        1 3FN     -0.090000
     18 C16        -6.6340    5.6740    2.1520 c2        1 3FN     -0.073000
     19 C20        -8.3180    7.1530    2.8450 ca        1 3FN     -0.023000
     20 F1        -10.8070    8.8660    5.6730 f         1 3FN     -0.096000
     21 O26        -7.5460    6.6620    1.7890 os        1 3FN     -0.132000
     22 N7         -2.0940    4.4910    1.9830 n2        1 3FN     -0.273000
     23 O19        -8.3090    3.9690    1.8920 o         1 3FN     -0.302000
     24 N14        -6.1200    3.2640    1.8710 n         1 3FN     -0.264000
     25 N12        -3.8310    2.7280    1.6150 n2        1 3FN     -0.339000
     26 N13        -1.5580    2.2280    1.3020 n3        1 3FN     -0.203000
     27 H1          0.4480   -1.6230   -0.4700 hc        1 3FN      0.103333
     28 H1A         0.1260    3.5250    1.4330 h4        1 3FN      0.196000
     29 H2          0.8280   -2.9120   -1.7010 hc        1 3FN      0.103333
     30 H2A         0.6060   -3.3680    0.0350 hc        1 3FN      0.103333
     31 H4          2.4180   -0.5930    0.0160 ho        1 3FN      0.150000
     32 H4A         2.4990    1.6770   -0.3540 hc        1 3FN      0.090333
     33 H5          2.3820    2.9070    0.9710 hc        1 3FN      0.090333
     34 H5A         2.7320    1.1740    1.3740 hc        1 3FN      0.090333
     35 H24        -8.4730    9.8610    4.9530 ha        1 3FN      0.170000
     36 H6          0.4130    0.5210    0.5500 ha        1 3FN      0.114000
     37 H17        -5.0090    7.0010    2.6440 ha        1 3FN      0.197000
     38 H22       -11.3380    6.6480    4.3590 ha        1 3FN      0.159000
     39 H21        -9.8140    5.6080    2.6420 ha        1 3FN      0.181000
     40 H11        -4.4080    4.6580    3.8690 hc        1 3FN      0.181000
     41 HN13       -1.8770    1.3070    1.0750 hn        1 3FN      0.247000
     42 C18        -6.5090    1.9530    1.4010 c3        1 3FN     -0.090000
     43 F2         -6.7390    8.9310    3.1940 f         1 3FN     -0.088000
     44 H18        -7.6270    1.8590    1.4290 h1        1 3FN      0.105000
     45 H18A       -6.0570    1.1680    2.0630 h1        1 3FN      0.105000
     46 H18B       -6.1510    1.7950    0.3480 h1        1 3FN      0.105000
@<TRIPOS>BOND
     1    1    2 1   
     2    1   27 1   
     3    1   29 1   
     4    1   30 1   
     5    2    6 1   
     6    3    4 1   
     7    3   32 1   
     8    3   33 1   
     9    3   34 1   
    10    4   10 1   
    11    4   36 1   
    12    5    8 1   
    13    5   13 1   
    14    5   35 1   
    15    6   31 1   
    16    7   18 1   
    17    7   23 1   
    18    7   24 1   
    19    8   19 1   
    20    8   43 1   
    21    9   22 1   
    22    9   25 1   
    23    9   26 1   
    24   10   26 1   
    25   10   28 1   
    26   11   12 1   
    27   11   16 1   
    28   11   17 1   
    29   11   40 1   
    30   12   18 1   
    31   12   37 1   
    32   13   14 1   
    33   13   20 1   
    34   14   15 1   
    35   14   38 1   
    36   15   19 1   
    37   15   39 1   
    38   16   24 1   
    39   16   25 1   
    40   17   22 1   
    41   18   21 1   
    42   19   21 1   
    43   24   42 1   
    44   26   41 1   
    45   42   44 1   
    46   42   45 1   
    47   42   46 1   
@<TRIPOS>SUBSTRUCTURE
     1 3FN         1 TEMP              0 ****  ****    0 ROOT
