@<TRIPOS>MOLECULE
3FN
   46    42     1     0     0
SMALL
bcc


@<TRIPOS>ATOM
      1 C1          4.4500   -2.5700   -1.1950 c3        1 3FN     -0.209000
      2 C2          5.9360   -2.4940   -0.8730 c3        1 3FN     -0.020000
      3 C4          5.5110   -3.1720    1.3030 c3        1 3FN     -0.020000
      4 C5          4.0260   -3.2520    0.9970 c3        1 3FN     -0.209000
      5 C24        -3.8780    4.9890    1.6530 c1        1 3FN     -0.206000
      6 O3          6.1380   -2.4820    0.4050 os        1 3FN     -0.269000
      7 C15        -3.2120    0.2400   -1.0940 c1        1 3FN      0.343000
      8 C25        -3.3960    4.2440    0.5850 c1        1 3FN      0.111000
      9 C8          1.4550   -1.0600   -0.2730 c1        1 3FN      0.203000
     10 C6          3.5520   -2.1340    0.0060 c3        1 3FN      0.025000
     11 C10        -0.4280    0.9130   -0.4710 c1        1 3FN     -0.276000
     12 C17        -1.4800    2.0050   -0.5910 c1        1 3FN     -0.007000
     13 C23        -5.1730    4.7900    2.1110 c1        1 3FN      0.116000
     14 C22        -5.9800    3.8530    1.5060 c1        1 3FN     -0.125500
     15 C21        -5.4990    3.1060    0.4350 c1        1 3FN     -0.125500
     16 C9         -0.7830   -0.4230   -0.6570 c2        1 3FN      0.213000
     17 C11         0.8730    1.2410   -0.1860 c1        1 3FN      0.054000
     18 C16        -2.8470    1.6550   -0.8990 c1        1 3FN     -0.075000
     19 C20        -4.2060    3.3040   -0.0230 c1        1 3FN     -0.014000
     20 C18        -2.5600   -2.1730   -1.1700 c3        1 3FN     -0.085000
     21 F2         -2.3390    4.9100    0.1080 f         1 3FN     -0.096000
     22 F1         -5.5880    5.4080    3.2180 f         1 3FN     -0.099000
     23 O26        -3.7760    2.6690   -1.2140 os        1 3FN     -0.134000
     24 N7          1.8100    0.2670   -0.0870 n1        1 3FN     -0.228000
     25 O19        -4.3540   -0.0600   -1.3520 o         1 3FN     -0.344000
     26 N14        -2.2030   -0.7910   -0.9760 n3        1 3FN     -0.239000
     27 N12         0.1560   -1.3910   -0.5570 n1        1 3FN     -0.286000
     28 N13         2.2850   -2.2350   -0.2710 n3        1 3FN     -0.268000
     29 H1          4.2620   -1.9920   -1.9530 hc        1 3FN      0.096250
     30 H1A         4.2290   -3.4820   -1.4350 hc        1 3FN      0.096250
     31 H2          6.3070   -1.6730   -1.2640 h1        1 3FN      0.089750
     32 H2A         6.3870   -3.2620   -1.2600 h1        1 3FN      0.089750
     33 H4          5.6350   -2.7510    2.1760 h1        1 3FN      0.089750
     34 H4A         5.8850   -4.0830    1.3270 h1        1 3FN      0.089750
     35 H5          3.8310   -4.1260    0.6030 hc        1 3FN      0.096250
     36 H5A         3.5300   -3.1650    1.8270 hc        1 3FN      0.096250
     37 H24        -3.3050    5.6540    2.0820 ha        1 3FN      0.166000
     38 H6          3.7890   -1.2390    0.3290 h1        1 3FN      0.139000
     39 H17        -1.2310    2.9440   -0.4610 ha        1 3FN      0.164000
     40 H22        -6.8850    3.7140    1.8260 ha        1 3FN      0.172000
     41 H21        -6.0690    2.4440    0.0090 ha        1 3FN      0.172000
     42 H11         1.1220    2.1710   -0.0550 ha        1 3FN      0.172000
     43 H18        -3.5310   -2.2510   -1.2440 h1        1 3FN      0.103333
     44 H18A       -2.1390   -2.5090   -2.0000 h1        1 3FN      0.103333
     45 H18B       -2.2440   -2.7060   -0.4020 h1        1 3FN      0.103333
     46 HN13        1.9350   -3.0460   -0.5440 hn        1 3FN      0.231000
@<TRIPOS>BOND
     1    1    2 1   
     2    1   10 1   
     3    1   29 1   
     4    1   30 1   
     5    2    6 1   
     6    2   31 1   
     7    2   32 1   
     8    3    4 1   
     9    3    6 1   
    10    3   33 1   
    11    3   34 1   
    12    4   10 1   
    13    4   35 1   
    14    4   36 1   
    15    5   13 1   
    16    5   37 1   
    17    7   25 1   
    18    7   26 1   
    19    8   19 1   
    20    8   21 1   
    21    9   24 1   
    22    9   28 1   
    23   10   28 1   
    24   10   38 1   
    25   11   16 1   
    26   11   17 1   
    27   12   18 1   
    28   12   39 1   
    29   13   22 1   
    30   14   15 1   
    31   14   40 1   
    32   15   41 1   
    33   16   26 1   
    34   16   27 1   
    35   17   42 1   
    36   18   23 1   
    37   19   23 1   
    38   20   26 1   
    39   20   43 1   
    40   20   44 1   
    41   20   45 1   
    42   28   46 1   
@<TRIPOS>SUBSTRUCTURE
     1 3FN         1 TEMP              0 ****  ****    0 ROOT
