@<TRIPOS>MOLECULE
3FN
   46    47     1     0     0
SMALL
bcc


@<TRIPOS>ATOM
      1 C1          1.8440   -1.6980   -0.7490 c3        1 3FN     -0.337000
      2 C2          2.8030   -2.0210    0.3280 c1        1 3FN      0.025000
      3 C4          1.6730    2.1800    0.8830 c3        1 3FN     -0.193000
      4 C5          0.2400    2.2590    1.2260 c2        1 3FN     -0.133000
      5 C24        -8.2070    8.8440    4.7630 ca        1 3FN     -0.206000
      6 O3          3.1000   -1.1560    1.2330 oh        1 3FN     -0.149000
      7 C15        -7.2750    4.2410    1.8550 c2        1 3FN      0.351000
      8 C25        -7.4800    8.2390    3.7250 ca        1 3FN      0.117000
      9 C8         -2.8490    2.5900    1.2160 c2        1 3FN      0.253000
     10 C6         -0.6910    1.5950    0.5170 c2        1 3FN     -0.085000
     11 C10        -4.4860    4.4110    2.5560 c3        1 3FN     -0.182000
     12 C17        -5.3040    5.6340    2.4410 c2        1 3FN     -0.029000
     13 C23        -9.4900    8.3620    5.0720 ca        1 3FN      0.120000
     14 C22       -10.0510    7.2850    4.3580 ca        1 3FN     -0.176000
     15 C21        -9.3300    6.6910    3.3300 ca        1 3FN     -0.076000
     16 C9         -5.0490    3.2380    1.7560 c2        1 3FN      0.202000
     17 C11        -3.0230    4.6690    2.2640 c1        1 3FN     -0.098000
     18 C16        -6.6080    5.5400    2.1250 c2        1 3FN     -0.074000
     19 C20        -8.0540    7.1640    3.0080 ca        1 3FN     -0.021000
     20 F1        -10.1920    8.9410    6.0740 f         1 3FN     -0.097000
     21 O26        -7.3920    6.6660    1.8830 os        1 3FN     -0.133000
     22 N7         -2.2750    3.7980    1.6580 n2        1 3FN     -0.274000
     23 O19        -8.5050    4.0980    1.8080 o         1 3FN     -0.306000
     24 N14        -6.4330    3.1160    1.6370 n         1 3FN     -0.267000
     25 N12        -4.2470    2.3260    1.2030 n2        1 3FN     -0.338000
     26 N13        -2.0800    1.5720    0.7190 n7        1 3FN     -0.195000
     27 H1          1.3930   -0.6730   -0.6850 hc        1 3FN      0.103000
     28 H1A        -0.4010    0.9470   -0.3370 h4        1 3FN      0.135000
     29 H2          1.0220   -2.4580   -0.7270 hc        1 3FN      0.103000
     30 H2A         2.3740   -1.7990   -1.7310 hc        1 3FN      0.103000
     31 H4          2.6580   -0.2760    1.1710 ho        1 3FN      0.150000
     32 H4A         1.8720    1.4800    0.0330 hc        1 3FN      0.087333
     33 H5          2.0450    3.1960    0.5930 hc        1 3FN      0.087333
     34 H5A         2.2600    1.8390    1.7740 hc        1 3FN      0.087333
     35 H24        -7.7760    9.6860    5.3240 ha        1 3FN      0.169000
     36 H6         -0.0010    2.9110    2.0830 ha        1 3FN      0.173000
     37 H17        -4.8040    6.5980    2.6460 ha        1 3FN      0.195000
     38 H22       -11.0570    6.9250    4.6190 ha        1 3FN      0.159000
     39 H21        -9.7470    5.8450    2.7560 ha        1 3FN      0.181000
     40 H11        -4.4890    4.0960    3.6510 hc        1 3FN      0.178000
     41 HN13       -2.5460    0.7480    0.3900 hn        1 3FN      0.253000
     42 C18        -7.0110    1.9080    1.0900 c3        1 3FN     -0.089000
     43 F2         -6.2440    8.6890    3.4190 f         1 3FN     -0.088000
     44 H18        -6.7310    1.7980    0.0080 h1        1 3FN      0.104000
     45 H18A       -6.6290    1.0190    1.6590 h1        1 3FN      0.104000
     46 H18B       -8.1290    1.9510    1.1810 h1        1 3FN      0.104000
@<TRIPOS>BOND
     1    1    2 1   
     2    1   27 1   
     3    1   29 1   
     4    1   30 1   
     5    2    6 1   
     6    3    4 1   
     7    3   32 1   
     8    3   33 1   
     9    3   34 1   
    10    4   10 1   
    11    4   36 1   
    12    5    8 1   
    13    5   13 1   
    14    5   35 1   
    15    6   31 1   
    16    7   18 1   
    17    7   23 1   
    18    7   24 1   
    19    8   19 1   
    20    8   43 1   
    21    9   22 1   
    22    9   25 1   
    23    9   26 1   
    24   10   26 1   
    25   10   28 1   
    26   11   12 1   
    27   11   16 1   
    28   11   17 1   
    29   11   40 1   
    30   12   18 1   
    31   12   37 1   
    32   13   14 1   
    33   13   20 1   
    34   14   15 1   
    35   14   38 1   
    36   15   19 1   
    37   15   39 1   
    38   16   24 1   
    39   16   25 1   
    40   17   22 1   
    41   18   21 1   
    42   19   21 1   
    43   24   42 1   
    44   26   41 1   
    45   42   44 1   
    46   42   45 1   
    47   42   46 1   
@<TRIPOS>SUBSTRUCTURE
     1 3FN         1 TEMP              0 ****  ****    0 ROOT
