@<TRIPOS>MOLECULE
3FP
   56    49     1     0     0
SMALL
bcc


@<TRIPOS>ATOM
      1 C1         -2.4740    1.0850   -4.3260 c1        1 3FP      0.151800
      2 N1         -2.2010   -1.5640   -3.7230 n1        1 3FP     -0.575800
      3 C2         -1.2570    0.5870   -3.9240 c1        1 3FP     -0.132000
      4 C7         -4.7630    4.8390   -1.9210 c1        1 3FP     -0.017500
      5 C6         -3.3810    4.7280   -1.8300 c1        1 3FP     -0.094500
      6 C5         -2.6790    3.9870   -2.7760 c1        1 3FP      0.072100
      7 C4         -3.3590    3.3620   -3.8040 c1        1 3FP      0.151800
      8 C3         -1.1290   -0.7410   -3.6240 c1        1 3FP      0.565600
      9 C11         1.5680   -0.8330   -1.6860 c1        1 3FP     -0.069500
     10 C10         0.4950   -1.6690   -1.9880 c1        1 3FP      0.071800
     11 C9         -4.7470    3.4760   -3.8930 c1        1 3FP     -0.132000
     12 C8         -5.4420    4.2120   -2.9530 c1        1 3FP     -0.134100
     13 C12         2.3890   -1.1200   -0.5960 c1        1 3FP     -0.126500
     14 C16         2.9040   -1.7850    2.4820 c3        1 3FP      0.087400
     15 C14         1.0630   -3.0760   -0.1140 c1        1 3FP     -0.067500
     16 C13         2.1370   -2.2410    0.1900 c1        1 3FP      0.102600
     17 C15         0.2430   -2.7890   -1.2030 c1        1 3FP     -0.067500
     18 C          -3.4100   -1.0650   -4.1230 c1        1 3FP      0.414300
     19 N          -3.5370    0.2660   -4.4230 n1        1 3FP     -0.571800
     20 N2         -2.6050    2.4750   -4.6650 n3        1 3FP     -0.553400
     21 F1         -1.3240    3.9500   -2.7380 f         1 3FP     -0.107100
     22 N3         -0.0870   -1.6570   -3.3140 n3        1 3FP     -0.572400
     23 O           3.0630   -2.5990    1.2850 os        1 3FP     -0.323400
     24 C21        -6.9410    4.4960   -2.9870 c3        1 3FP      0.656000
     25 F2         -7.1860    5.5430   -3.8270 f         1 3FP     -0.234967
     26 F3         -7.5930    3.4070   -3.4260 f         1 3FP     -0.234967
     27 F4         -7.3640    4.8020   -1.7570 f         1 3FP     -0.234967
     28 C17         3.9160   -2.2290    3.5340 c3        1 3FP      0.140100
     29 C18         3.5620   -1.6350    4.8490 c3        1 3FP      0.175800
     30 C19         5.3230   -1.2130    6.3440 c3        1 3FP      0.155100
     31 C20         3.6230   -2.6480    6.9850 c3        1 3FP      0.155100
     32 N4          4.4270   -2.2010    5.8900 n3        1 3FP     -0.740600
     33 O1          3.9000   -3.6630    3.6410 oh        1 3FP     -0.601800
     34 H2         -0.4550    1.2040   -3.8500 ha        1 3FP      0.113500
     35 H7         -5.2560    5.3590   -1.2570 ha        1 3FP      0.101500
     36 H6         -2.9010    5.1710   -1.1010 ha        1 3FP      0.101500
     37 H11         1.7500   -0.0290   -2.2500 ha        1 3FP      0.087500
     38 H9         -5.2230    3.0410   -4.6110 ha        1 3FP      0.113500
     39 H12         3.1340   -0.5400   -0.3860 ha        1 3FP      0.084500
     40 H161        3.0570   -0.8390    2.2580 h1        1 3FP      0.051700
     41 H162        1.9720   -1.8980    2.8440 h1        1 3FP      0.051700
     42 H14         0.8870   -3.8540    0.4310 ha        1 3FP      0.093000
     43 H15        -0.5150   -3.3790   -1.4160 ha        1 3FP      0.093000
     44 H          -4.1990   -1.6690   -4.1960 ha        1 3FP      0.136500
     45 HA         -2.2600    2.7830   -5.4370 hn        1 3FP      0.436800
     46 H3          0.2470   -2.2280   -3.9760 hn        1 3FP      0.448800
     47 H17         4.8200   -1.9270    3.2690 h1        1 3FP      0.068700
     48 H181        2.6220   -1.8390    5.0580 h1        1 3FP      0.042700
     49 H182        3.6860   -0.6630    4.8140 h1        1 3FP      0.042700
     50 H191        4.8240   -0.5290    6.8670 h1        1 3FP      0.034700
     51 H192        5.7490   -0.7920    5.5880 h1        1 3FP      0.034700
     52 H193        5.9960   -1.6220    6.9080 h1        1 3FP      0.034700
     53 H201        3.0990   -3.3900    6.7110 h1        1 3FP      0.034700
     54 H202        3.0400   -1.9290    7.2700 h1        1 3FP      0.034700
     55 H203        4.1860   -2.9060    7.7090 h1        1 3FP      0.034700
     56 H1          4.6080   -4.0140    3.1750 ho        1 3FP      0.415000
@<TRIPOS>BOND
     1    1    3 3   
     2    1   20 1   
     3    2    8 3   
     4    3   34 1   
     5    4   12 3   
     6    4   35 1   
     7    5    6 3   
     8    5   36 1   
     9    6   21 1   
    10    7   11 3   
    11    7   20 1   
    12    8   22 1   
    13    9   10 3   
    14    9   37 1   
    15   10   22 1   
    16   11   38 1   
    17   12   24 1   
    18   13   16 3   
    19   13   39 1   
    20   14   23 1   
    21   14   28 1   
    22   14   40 1   
    23   14   41 1   
    24   15   17 3   
    25   15   42 1   
    26   16   23 1   
    27   17   43 1   
    28   18   19 3   
    29   18   44 1   
    30   20   45 1   
    31   22   46 1   
    32   24   25 1   
    33   24   26 1   
    34   24   27 1   
    35   28   29 1   
    36   28   33 1   
    37   28   47 1   
    38   29   32 1   
    39   29   48 1   
    40   29   49 1   
    41   30   32 1   
    42   30   50 1   
    43   30   51 1   
    44   30   52 1   
    45   31   32 1   
    46   31   53 1   
    47   31   54 1   
    48   31   55 1   
    49   33   56 1   
@<TRIPOS>SUBSTRUCTURE
     1 3FP         1 TEMP              0 ****  ****    0 ROOT
