@<TRIPOS>MOLECULE
3FP
   56    58     1     0     0
SMALL
bcc


@<TRIPOS>ATOM
      1 C1         -1.0150   -0.2880   -3.0120 ca        1 3FP      0.690200
      2 N1         -0.1720    0.5470   -0.4730 nb        1 3FP     -0.761000
      3 C2         -1.7350   -0.7120   -1.8600 ca        1 3FP     -0.474600
      4 C7          0.0550    0.5970   -7.9900 ca        1 3FP     -0.075000
      5 C6         -1.3140    0.5880   -7.7520 ca        1 3FP     -0.152000
      6 C5         -1.8080    0.1640   -6.5080 ca        1 3FP      0.106900
      7 C4         -0.9200   -0.2760   -5.4790 ca        1 3FP      0.103600
      8 C3         -1.2800   -0.2650   -0.5820 ca        1 3FP      0.700200
      9 C11        -1.5170   -1.5420    2.7550 ca        1 3FP     -0.102000
     10 C10        -1.5590   -0.4410    1.8680 ca        1 3FP      0.092600
     11 C9          0.4630   -0.2680   -5.7530 ca        1 3FP     -0.046000
     12 C8          0.9310    0.1700   -6.9900 ca        1 3FP     -0.168300
     13 C12        -1.1370   -1.3720    4.0770 ca        1 3FP     -0.166500
     14 C16        -0.0580    1.2530    6.3660 c3        1 3FP      0.094400
     15 C14        -0.8090    1.0060    3.6730 ca        1 3FP     -0.166500
     16 C13        -0.7760   -0.0920    4.5370 ca        1 3FP      0.120100
     17 C15        -1.2040    0.8340    2.3480 ca        1 3FP     -0.102000
     18 C           0.4220    0.8850   -1.6390 ca        1 3FP      0.692900
     19 N           0.0830    0.5330   -2.9010 nb        1 3FP     -0.771000
     20 N2         -1.4260   -0.7810   -4.2650 nh        1 3FP     -0.715300
     21 N3         -2.0280   -0.6230    0.5450 nh        1 3FP     -0.717300
     22 O          -0.4010   -0.0420    5.8660 os        1 3FP     -0.330900
     23 C21         2.4330    0.1940   -7.2530 c3        1 3FP      0.691200
     24 F2          2.7810   -0.0020   -8.5680 f         1 3FP     -0.234967
     25 F3          3.0440    1.3780   -6.9200 f         1 3FP     -0.234967
     26 F4          3.1500   -0.7590   -6.5710 f         1 3FP     -0.234967
     27 C17         0.2490    1.0610    7.8600 c3        1 3FP      0.140100
     28 C18         1.5730    0.2990    8.0150 c3        1 3FP      0.134800
     29 C19         1.1410   -0.0840   10.3790 c3        1 3FP      0.152100
     30 C20         3.3200   -0.5240    9.4410 c3        1 3FP      0.152100
     31 N4          2.1110    0.2680    9.3670 n3        1 3FP     -0.739600
     32 O1          0.2340    2.3300    8.4840 oh        1 3FP     -0.588800
     33 H2         -2.6140   -1.3610   -1.9500 ha        1 3FP      0.151000
     34 H7          0.4480    0.9350   -8.9620 ha        1 3FP      0.159000
     35 H6         -2.0220    0.9160   -8.5280 ha        1 3FP      0.160000
     36 H11        -1.7920   -2.5500    2.4060 ha        1 3FP      0.144500
     37 H9          1.1850   -0.6120   -4.9930 ha        1 3FP      0.179000
     38 H12        -1.1070   -2.2250    4.7700 ha        1 3FP      0.147000
     39 H161       -0.9230    1.9560    6.2470 h1        1 3FP      0.050200
     40 H162        0.8330    1.6500    5.8140 h1        1 3FP      0.050200
     41 H14        -0.5310    2.0110    4.0200 ha        1 3FP      0.147000
     42 H15        -1.2290    1.7110    1.6820 ha        1 3FP      0.144500
     43 H           1.3130    1.5430   -1.5500 h5        1 3FP      0.057100
     44 HA         -2.3980   -1.0210   -4.2980 hn        1 3FP      0.434800
     45 H3         -2.5890   -1.4390    0.4150 hn        1 3FP      0.427800
     46 H17        -0.5960    0.4920    8.3420 h1        1 3FP      0.086700
     47 H181        2.3530    0.8000    7.3720 h1        1 3FP      0.045200
     48 H182        1.3990   -0.7360    7.5970 h1        1 3FP      0.045200
     49 H191        1.6510   -0.1260   11.3770 h1        1 3FP      0.034867
     50 H192        0.3560    0.7180   10.4110 h1        1 3FP      0.034867
     51 H193        0.6420   -1.0740   10.1920 h1        1 3FP      0.034867
     52 H201        4.0590   -0.1370    8.6910 h1        1 3FP      0.034867
     53 H202        3.7590   -0.4130   10.4670 h1        1 3FP      0.034867
     54 H203        3.1490   -1.6170    9.2410 h1        1 3FP      0.034867
     55 H1          1.1190    2.7060    8.4110 ho        1 3FP      0.412000
     56 F1         -3.1470    0.1600   -6.2960 f         1 3FP     -0.138900
@<TRIPOS>BOND
     1    1    3 ar  
     2    1   19 ar  
     3    1   20 1   
     4    2    8 ar  
     5    2   18 ar  
     6    3    8 ar  
     7    3   33 1   
     8    4    5 ar  
     9    4   12 ar  
    10    4   34 1   
    11    5    6 ar  
    12    5   35 1   
    13    6    7 ar  
    14    6   56 1   
    15    7   11 ar  
    16    7   20 1   
    17    8   21 1   
    18    9   10 ar  
    19    9   13 ar  
    20    9   36 1   
    21   10   17 ar  
    22   10   21 1   
    23   11   12 ar  
    24   11   37 1   
    25   12   23 1   
    26   13   16 ar  
    27   13   38 1   
    28   14   22 1   
    29   14   27 1   
    30   14   39 1   
    31   14   40 1   
    32   15   16 ar  
    33   15   17 ar  
    34   15   41 1   
    35   16   22 1   
    36   17   42 1   
    37   18   19 ar  
    38   18   43 1   
    39   20   44 1   
    40   21   45 1   
    41   23   24 1   
    42   23   25 1   
    43   23   26 1   
    44   27   28 1   
    45   27   32 1   
    46   27   46 1   
    47   28   31 1   
    48   28   47 1   
    49   28   48 1   
    50   29   31 1   
    51   29   49 1   
    52   29   50 1   
    53   29   51 1   
    54   30   31 1   
    55   30   52 1   
    56   30   53 1   
    57   30   54 1   
    58   32   55 1   
@<TRIPOS>SUBSTRUCTURE
     1 3FP         1 TEMP              0 ****  ****    0 ROOT
