@<TRIPOS>MOLECULE
3FP
   56    57     1     0     0
SMALL
bcc


@<TRIPOS>ATOM
      1 C1         -0.2020    0.3660    0.1790 c2        1 3FP      0.230000
      2 N1          1.0810    0.2290    2.6050 n3        1 3FP     -0.228000
      3 C2          1.2260    0.1580    0.2100 c2        1 3FP     -0.381000
      4 C7         -5.0090    1.8300   -0.7730 c2        1 3FP     -0.110000
      5 C6         -3.6800    2.2030   -2.5390 c1        1 3FP      0.167000
      6 C5         -2.4830    1.5710   -2.4600 c2        1 3FP     -0.205000
      7 C4         -2.1600    0.6860   -1.2990 c2        1 3FP      0.089000
      8 C3          1.8680    0.0850    1.4660 c2        1 3FP      0.204000
      9 C11         5.3970    0.1700    2.7020 c3        1 3FP     -0.202000
     10 C10         4.0070   -0.4050    2.6430 c2        1 3FP      0.021000
     11 C9         -3.1870    0.1730   -0.5670 c2        1 3FP     -0.165000
     12 C8         -4.5560    0.5610   -0.8340 c2        1 3FP     -0.128000
     13 C12         6.2180   -0.1230    3.8650 c1        1 3FP     -0.042000
     14 C16         3.8760   -2.7330   10.1310 cx        1 3FP     -0.242000
     15 C14         4.3890   -1.4570    4.8080 c2        1 3FP     -0.124000
     16 C13         5.6360   -0.8900    4.9210 c2        1 3FP     -0.025000
     17 C15         3.5730   -1.2150    3.6610 c2        1 3FP     -0.203000
     18 C          -0.2880    0.4330    2.5110 c1        1 3FP     -0.011000
     19 N          -0.9210    0.5040    1.3340 n2        1 3FP     -0.289000
     20 N2         -0.8090    0.3970   -1.0730 n3        1 3FP     -0.252000
     21 N3          3.2500   -0.0880    1.5120 n3        1 3FP     -0.293000
     22 O           6.4260   -1.0490    6.0350 oh        1 3FP     -0.230000
     23 C21        -5.5060   -0.5980   -1.1670 c3        1 3FP      0.458000
     24 F2         -6.8370   -0.2560   -1.1920 f         1 3FP     -0.160333
     25 F3         -5.2870   -1.1770   -2.3920 f         1 3FP     -0.160333
     26 F4         -5.4420   -1.6400   -0.2770 f         1 3FP     -0.160333
     27 C17         4.6060   -2.2000    8.9280 cx        1 3FP     -0.065000
     28 C18         5.3900   -2.7840   10.1020 cx        1 3FP     -0.089000
     29 C19         5.6360   -0.8900   11.6090 c3        1 3FP     -0.118500
     30 C20         7.5390   -1.7710   10.4080 c3        1 3FP     -0.118500
     31 N4          6.2380   -2.0440   10.9840 n3        1 3FP     -0.237000
     32 O1          4.5610   -2.8760    7.7090 oh        1 3FP     -0.317000
     33 H2          1.8010    0.0480   -0.7170 ha        1 3FP      0.149000
     34 H7         -4.3940    2.6560   -0.3720 ha        1 3FP      0.157000
     35 H6         -6.0490    2.0910   -1.0210 ha        1 3FP      0.157000
     36 H11         5.9960   -0.1740    1.8050 hc        1 3FP      0.167500
     37 H9         -3.0360   -0.5510    0.2530 ha        1 3FP      0.196000
     38 H12         5.3480    1.3000    2.6360 hc        1 3FP      0.167500
     39 H161        5.9730   -1.6610    6.6400 ho        1 3FP      0.224000
     40 H162        3.3340   -3.6930   10.0570 hc        1 3FP      0.122000
     41 H14         3.9860   -2.1160    5.5980 ha        1 3FP      0.162000
     42 H15         2.5970   -1.7250    3.6350 ha        1 3FP      0.148000
     43 H           1.4910    0.1970    3.5140 hn        1 3FP      0.260000
     44 HA         -0.2050    0.4800   -1.8630 hn        1 3FP      0.249000
     45 H3          3.7470    0.0680    0.6630 hn        1 3FP      0.251000
     46 H17         3.3520   -2.0170   10.7880 hc        1 3FP      0.122000
     47 H181        4.6150   -1.1150    8.7040 h1        1 3FP      0.155000
     48 H182        5.8390   -3.7930    9.9340 h1        1 3FP      0.128000
     49 H191        4.7770   -1.2300   12.2460 h1        1 3FP      0.075667
     50 H192        5.2580   -0.1290   10.8720 h1        1 3FP      0.075667
     51 H193        6.3960   -0.3970   12.2710 h1        1 3FP      0.075667
     52 H201        7.5010   -1.0330    9.5600 h1        1 3FP      0.075667
     53 H202        7.9810   -2.7290   10.0280 h1        1 3FP      0.075667
     54 H203        8.2040   -1.3610   11.2120 h1        1 3FP      0.075667
     55 H1          4.5880   -3.8250    7.8880 ho        1 3FP      0.211000
     56 F1         -1.5330    1.7040   -3.4270 f         1 3FP     -0.093000
@<TRIPOS>BOND
     1    1    3 1   
     2    1   19 1   
     3    1   20 1   
     4    2    8 1   
     5    2   18 1   
     6    2   43 1   
     7    3    8 1   
     8    3   33 1   
     9    4   12 1   
    10    4   34 1   
    11    4   35 1   
    12    5    6 1   
    13    6    7 1   
    14    6   56 1   
    15    7   11 1   
    16    7   20 1   
    17    8   21 1   
    18    9   10 1   
    19    9   13 1   
    20    9   36 1   
    21    9   38 1   
    22   10   17 1   
    23   10   21 1   
    24   11   12 1   
    25   11   37 1   
    26   12   23 1   
    27   13   16 1   
    28   14   27 1   
    29   14   28 1   
    30   14   40 1   
    31   14   46 1   
    32   15   16 1   
    33   15   17 1   
    34   15   41 1   
    35   16   22 1   
    36   17   42 1   
    37   18   19 1   
    38   20   44 1   
    39   21   45 1   
    40   22   39 1   
    41   23   24 1   
    42   23   25 1   
    43   23   26 1   
    44   27   28 1   
    45   27   32 1   
    46   27   47 1   
    47   28   31 1   
    48   28   48 1   
    49   29   31 1   
    50   29   49 1   
    51   29   50 1   
    52   29   51 1   
    53   30   31 1   
    54   30   52 1   
    55   30   53 1   
    56   30   54 1   
    57   32   55 1   
@<TRIPOS>SUBSTRUCTURE
     1 3FP         1 TEMP              0 ****  ****    0 ROOT
