@<TRIPOS>MOLECULE
3FQ
   59    61     1     0     0
SMALL
bcc


@<TRIPOS>ATOM
      1 C1         -2.6740   -0.8170   -0.5560 c3        1 3FQ      0.651400
      2 N1         -0.0260    0.0710    0.1020 nh        1 3FQ     -0.766000
      3 C2         -1.5040   -1.7690   -0.3370 c2        1 3FQ     -0.395200
      4 C7         -7.3960    0.9440    0.6590 ca        1 3FQ     -0.101000
      5 C6         -6.9310    0.1920    1.7300 ca        1 3FQ     -0.144000
      6 C5         -5.7190   -0.5100    1.6260 ca        1 3FQ      0.081900
      7 C4         -4.9530   -0.4800    0.4190 ca        1 3FQ      0.121600
      8 C3         -0.2440   -1.3120   -0.0380 c2        1 3FQ      0.341000
      9 C11         2.6670   -1.0020    1.2340 ca        1 3FQ     -0.114000
     10 C10         2.1590   -1.7820    0.1710 ca        1 3FQ      0.052600
     11 C9         -5.4480    0.3030   -0.6470 ca        1 3FQ     -0.085000
     12 C8         -6.6480    0.9950   -0.5180 ca        1 3FQ     -0.156300
     13 C12         3.9980   -0.6160    1.2530 ca        1 3FQ     -0.166000
     14 C16         7.0710   -1.0330   -0.6660 c3        1 3FQ      0.093400
     15 C14         4.3730   -1.7960   -0.8440 ca        1 3FQ     -0.166000
     16 C13         4.8560   -1.0130    0.2100 ca        1 3FQ      0.128100
     17 C15         3.0330   -2.1720   -0.8630 ca        1 3FQ     -0.114000
     18 C          -1.1180    0.9270   -0.0610 c2        1 3FQ      0.656100
     19 N          -2.3400    0.6100   -0.3430 n2        1 3FQ     -0.643900
     20 N2         -3.8100   -1.2840    0.2850 nh        1 3FQ     -0.736600
     21 N3          0.8120   -2.2320    0.2030 nh        1 3FQ     -0.604400
     22 O           6.1550   -0.5620    0.3280 os        1 3FQ     -0.326900
     23 C21        -7.1650    1.8110   -1.6970 c3        1 3FQ      0.689200
     24 F2         -7.9240    1.0900   -2.5900 f         1 3FQ     -0.238633
     25 F3         -7.9780    2.8650   -1.3510 f         1 3FQ     -0.238633
     26 F4         -6.1910    2.3850   -2.4760 f         1 3FQ     -0.238633
     27 C17         8.4560   -0.5190   -0.2400 c3        1 3FQ      0.141100
     28 C18         8.5210    1.0030   -0.4420 c3        1 3FQ      0.135800
     29 C19         9.8210    3.0200   -0.4750 c3        1 3FQ      0.151600
     30 C20        10.5800    1.1480    0.8460 c3        1 3FQ      0.151600
     31 N4          9.8500    1.5810   -0.3240 n3        1 3FQ     -0.739600
     32 O1          9.4350   -1.2430   -0.9580 oh        1 3FQ     -0.587800
     33 O1L        -3.0570   -0.8990   -1.9440 oh        1 3FQ     -0.591800
     34 HN1         0.8840    0.4310    0.2610 hn        1 3FQ      0.459800
     35 H2         -1.7200   -2.8350   -0.4620 ha        1 3FQ      0.154000
     36 H7         -8.3430    1.5000    0.7390 ha        1 3FQ      0.153000
     37 H6         -7.5000    0.1420    2.6700 ha        1 3FQ      0.152000
     38 H11         2.0100   -0.7110    2.0700 ha        1 3FQ      0.144500
     39 H9         -4.8700    0.3770   -1.5880 ha        1 3FQ      0.188000
     40 H12         4.3980   -0.0100    2.0790 ha        1 3FQ      0.151000
     41 H161        6.7770   -0.6320   -1.6700 h1        1 3FQ      0.051200
     42 H162        7.0780   -2.1540   -0.6890 h1        1 3FQ      0.051200
     43 H14         5.0340   -2.1180   -1.6610 ha        1 3FQ      0.151000
     44 H15         2.6670   -2.7890   -1.6990 ha        1 3FQ      0.144500
     45 H          -0.8800    2.0050    0.0850 h5        1 3FQ      0.052800
     46 HA         -3.4840   -1.6410    1.1630 hn        1 3FQ      0.410800
     47 H3          0.6750   -3.0880   -0.2990 hn        1 3FQ      0.420800
     48 H17         8.6330   -0.7840    0.8410 h1        1 3FQ      0.087700
     49 H181        7.7870    1.4560    0.2890 h1        1 3FQ      0.044200
     50 H182        8.1570    1.2420   -1.4820 h1        1 3FQ      0.044200
     51 H191       10.8770    3.3990   -0.4980 h1        1 3FQ      0.035533
     52 H192        9.3250    3.2780   -1.4470 h1        1 3FQ      0.035533
     53 H193        9.2710    3.5430    0.3550 h1        1 3FQ      0.035533
     54 H201       10.7640    0.0440    0.7600 h1        1 3FQ      0.035533
     55 H202       11.5700    1.6740    0.8760 h1        1 3FQ      0.035533
     56 H203       10.0370    1.3530    1.8090 h1        1 3FQ      0.035533
     57 H1          9.6090   -0.7720   -1.7820 ho        1 3FQ      0.414000
     58 H1L        -3.2840   -1.8210   -2.1210 ho        1 3FQ      0.418000
     59 F1         -5.2810   -1.2250    2.6930 f         1 3FQ     -0.144900
@<TRIPOS>BOND
     1    1    3 1   
     2    1   19 1   
     3    1   20 1   
     4    1   33 1   
     5    2    8 1   
     6    2   18 1   
     7    2   34 1   
     8    3    8 2   
     9    3   35 1   
    10    4    5 ar  
    11    4   12 ar  
    12    4   36 1   
    13    5    6 ar  
    14    5   37 1   
    15    6    7 ar  
    16    6   59 1   
    17    7   11 ar  
    18    7   20 1   
    19    8   21 1   
    20    9   10 ar  
    21    9   13 ar  
    22    9   38 1   
    23   10   17 ar  
    24   10   21 1   
    25   11   12 ar  
    26   11   39 1   
    27   12   23 1   
    28   13   16 ar  
    29   13   40 1   
    30   14   22 1   
    31   14   27 1   
    32   14   41 1   
    33   14   42 1   
    34   15   16 ar  
    35   15   17 ar  
    36   15   43 1   
    37   16   22 1   
    38   17   44 1   
    39   18   19 2   
    40   18   45 1   
    41   20   46 1   
    42   21   47 1   
    43   23   24 1   
    44   23   25 1   
    45   23   26 1   
    46   27   28 1   
    47   27   32 1   
    48   27   48 1   
    49   28   31 1   
    50   28   49 1   
    51   28   50 1   
    52   29   31 1   
    53   29   51 1   
    54   29   52 1   
    55   29   53 1   
    56   30   31 1   
    57   30   54 1   
    58   30   55 1   
    59   30   56 1   
    60   32   57 1   
    61   33   58 1   
@<TRIPOS>SUBSTRUCTURE
     1 3FQ         1 TEMP              0 ****  ****    0 ROOT
