@<TRIPOS>MOLECULE
3FQ
   60    57     1     0     0
SMALL
bcc


@<TRIPOS>ATOM
      1 C1          2.6000    0.2320   -0.0380 c2        1 3FQ      0.187000
      2 N1          4.8400    0.2550    2.0730 n2        1 3FQ     -0.424000
      3 C2          3.1480   -0.8140    0.6310 c2        1 3FQ     -0.280000
      4 C7         -2.3250    0.4900   -1.5470 c3        1 3FQ     -0.193000
      5 C6         -1.5500    0.0170   -2.6760 c1        1 3FQ     -0.055000
      6 C5         -0.1400   -0.1130   -2.5570 c2        1 3FQ     -0.036000
      7 C4          0.5470    0.2190   -1.3750 c2        1 3FQ      0.091000
      8 C3          3.9180   -0.6560    1.8960 c2        1 3FQ      0.228000
      9 C11         3.4210   -1.7990    5.2840 ca        1 3FQ     -0.135500
     10 C10         4.2120   -1.7020    4.1150 ca        1 3FQ      0.027000
     11 C9         -0.2320    0.6980   -0.2390 c2        1 3FQ     -0.137000
     12 C8         -1.5750    0.8080   -0.3130 c2        1 3FQ     -0.132000
     13 C12         4.0160   -1.9150    6.5330 ca        1 3FQ     -0.171500
     14 C16         6.1260    1.3870    8.5440 c1        1 3FQ     -0.226500
     15 C14         6.2140   -1.8720    5.4850 ca        1 3FQ     -0.171500
     16 C13         5.4140   -1.9270    6.6360 ca        1 3FQ      0.055000
     17 C15         5.6160   -1.7660    4.2340 ca        1 3FQ     -0.135500
     18 C           0.4880   -1.6600    3.3630 c1        1 3FQ      0.042000
     19 N          -0.6710   -1.4770    3.3310 n2        1 3FQ     -0.334000
     20 N2          1.9310    0.1300   -1.2800 n3        1 3FQ     -0.299000
     21 N3          3.5910   -1.6310    2.8510 nh        1 3FQ     -0.266000
     22 O           6.0760   -1.9420    7.8440 oh        1 3FQ     -0.271000
     23 C21        -2.3750    1.2510    0.9120 c3        1 3FQ      0.457000
     24 F2         -1.7510    2.1960    1.6900 f         1 3FQ     -0.159667
     25 F3         -3.6020    1.7870    0.6260 f         1 3FQ     -0.159667
     26 F4         -2.6410    0.2240    1.7890 f         1 3FQ     -0.159667
     27 C17         8.9310   -0.2540    7.0920 c2        1 3FQ      0.175000
     28 C18         6.0160    2.5510    8.7980 c1        1 3FQ     -0.226500
     29 C19         5.5360    2.0790    5.1190 c3        1 3FQ     -0.185500
     30 C20         7.5310    1.8510    3.7180 c3        1 3FQ     -0.185500
     31 N4          6.3550    1.1710    4.2950 n4        1 3FQ     -0.067000
     32 O1          8.4880    0.3110    6.0880 o         1 3FQ     -0.374000
     33 O1L         2.7150    1.4960    0.5080 oh        1 3FQ     -0.269000
     34 HN1        -1.6310   -1.3250    3.3010 hn        1 3FQ      0.300000
     35 H2          3.0440   -1.8430    0.2490 ha        1 3FQ      0.180000
     36 H7         -2.9010    1.4060   -1.8950 hc        1 3FQ      0.194000
     37 H6         -3.1220   -0.2880   -1.3330 hc        1 3FQ      0.194000
     38 H11         2.3190   -1.7940    5.2040 ha        1 3FQ      0.158500
     39 H9          0.3040    0.9630    0.6910 ha        1 3FQ      0.159000
     40 H12         3.3920   -1.9990    7.4360 ha        1 3FQ      0.154000
     41 H161        5.4610   -2.2600    8.5220 ho        1 3FQ      0.238000
     42 H162        6.2250    0.3470    8.3390 ha        1 3FQ      0.226500
     43 H14         7.3090   -1.9240    5.5830 ha        1 3FQ      0.154000
     44 H15         6.2510   -1.7690    3.3340 ha        1 3FQ      0.158500
     45 H           4.9800    0.8420    1.2800 hn        1 3FQ      0.176000
     46 HA          2.3870   -0.4220   -1.9800 hn        1 3FQ      0.267000
     47 H3          2.6300   -1.9350    2.8310 hn        1 3FQ      0.272000
     48 H17         8.3140   -0.9810    7.6670 h4        1 3FQ      0.102000
     49 H181        9.9590   -0.0600    7.4640 h4        1 3FQ      0.102000
     50 H182        5.9180    3.5810    9.0400 ha        1 3FQ      0.226500
     51 H191        4.5720    1.5670    5.3780 hx        1 3FQ      0.132500
     52 H192        6.0840    2.3350    6.0690 hx        1 3FQ      0.132500
     53 H193        5.3150    3.0180    4.5460 hx        1 3FQ      0.132500
     54 H201        8.2160    2.1840    4.5450 hx        1 3FQ      0.132500
     55 H202        7.2000    2.7360    3.1150 hx        1 3FQ      0.132500
     56 H203        8.0800    1.1270    3.0580 hx        1 3FQ      0.132500
     57 H1          5.7580    0.7570    3.5150 hn        1 3FQ      0.282500
     58 H1L         2.3680    2.1640   -0.1060 ho        1 3FQ      0.254000
     59 H41         6.6850    0.3890    4.8860 hn        1 3FQ      0.282500
     60 F1          0.5540   -0.5830   -3.6240 f         1 3FQ     -0.084000
@<TRIPOS>BOND
     1    1    3 1   
     2    1   20 1   
     3    1   33 1   
     4    2    8 1   
     5    2   45 1   
     6    3    8 1   
     7    3   35 1   
     8    4    5 1   
     9    4   12 1   
    10    4   36 1   
    11    4   37 1   
    12    5    6 1   
    13    6    7 1   
    14    6   60 1   
    15    7   11 1   
    16    7   20 1   
    17    8   21 1   
    18    9   10 1   
    19    9   13 1   
    20    9   38 1   
    21   10   17 1   
    22   10   21 1   
    23   11   12 1   
    24   11   39 1   
    25   12   23 1   
    26   13   16 1   
    27   13   40 1   
    28   14   28 1   
    29   14   42 1   
    30   15   16 1   
    31   15   17 1   
    32   15   43 1   
    33   16   22 1   
    34   17   44 1   
    35   18   19 1   
    36   19   34 1   
    37   20   46 1   
    38   21   47 1   
    39   22   41 1   
    40   23   24 1   
    41   23   25 1   
    42   23   26 1   
    43   27   32 1   
    44   27   48 1   
    45   27   49 1   
    46   28   50 1   
    47   29   31 1   
    48   29   51 1   
    49   29   52 1   
    50   29   53 1   
    51   30   31 1   
    52   30   54 1   
    53   30   55 1   
    54   30   56 1   
    55   31   57 1   
    56   31   59 1   
    57   33   58 1   
@<TRIPOS>SUBSTRUCTURE
     1 3FQ         1 TEMP              0 ****  ****    0 ROOT
