@<TRIPOS>MOLECULE
3FQ
   60    57     1     0     0
SMALL
bcc


@<TRIPOS>ATOM
      1 C1          0.8710    0.2890    1.3000 c3        1 3FQ      0.313000
      2 N1          3.7660    0.7800    2.5620 n2        1 3FQ     -0.373000
      3 C2          2.2910    0.0600    0.7470 c1        1 3FQ      0.091000
      4 C7         -4.3160    0.0570    0.5040 c3        1 3FQ     -0.197000
      5 C6         -3.6310   -0.4200   -0.6790 c1        1 3FQ     -0.054000
      6 C5         -2.2180   -0.2950   -0.7680 c2        1 3FQ     -0.037000
      7 C4         -1.4350    0.2180    0.2840 c2        1 3FQ      0.086000
      8 C3          3.3890   -0.1520    1.7220 c2        1 3FQ      0.069000
      9 C11         5.3590   -2.7060    3.1880 ca        1 3FQ     -0.093000
     10 C10         5.2650   -1.6430    2.2650 ca        1 3FQ     -0.027000
     11 C9         -2.1270    0.6970    1.4740 c2        1 3FQ     -0.134000
     12 C8         -3.4720    0.6350    1.5710 c2        1 3FQ     -0.125000
     13 C12         6.5570   -2.9580    3.8480 ca        1 3FQ     -0.190500
     14 C16        10.1030   -0.5560    8.2430 c1        1 3FQ     -0.027000
     15 C14         7.6040   -1.1060    2.6540 ca        1 3FQ     -0.190500
     16 C13         7.6700   -2.1440    3.5980 ca        1 3FQ      0.076000
     17 C15         6.4080   -0.8650    1.9890 ca        1 3FQ     -0.093000
     18 C           0.2350   -1.4200    3.1850 c1        1 3FQ      0.221000
     19 N           0.5140   -0.6580    2.3210 n2        1 3FQ     -0.430000
     20 N2         -0.0580    0.3520    0.1670 n7        1 3FQ     -0.318000
     21 N3          4.0160   -1.4100    1.6240 nu        1 3FQ     -0.246000
     22 O           8.8520   -2.2650    4.2900 oh        1 3FQ     -0.267000
     23 C21        -4.2030    1.1710    2.8040 c3        1 3FQ      0.455000
     24 F2         -5.1330    2.1360    2.5120 f         1 3FQ     -0.154667
     25 F3         -4.9000    0.2070    3.4890 f         1 3FQ     -0.154667
     26 F4         -3.3930    1.7490    3.7510 f         1 3FQ     -0.154667
     27 C17         8.8710    0.8320    6.5060 c3        1 3FQ     -0.049000
     28 C18         9.1240   -0.5050    7.1830 c3        1 3FQ     -0.293000
     29 C19         5.7430    3.5180    4.5460 c2        1 3FQ      0.169500
     30 C20         5.4310    1.0190    4.6770 c2        1 3FQ      0.169500
     31 N4          5.5570    2.2750    4.6110 n2        1 3FQ     -0.168000
     32 O1          7.9890    0.7010    5.4000 oh        1 3FQ     -0.399000
     33 O1L         1.0130    1.5860    1.9230 oh        1 3FQ     -0.352000
     34 HN1         1.7540   -1.9890    0.0540 ha        1 3FQ      0.011250
     35 H2          2.0360   -1.7150   -0.5050 ha        1 3FQ      0.011250
     36 H7         -5.0910    0.8160    0.1660 hc        1 3FQ      0.196000
     37 H6         -4.9180   -0.8120    0.9180 hc        1 3FQ      0.196000
     38 H11         4.4840   -3.3470    3.3910 ha        1 3FQ      0.158000
     39 H9         -1.5340    1.1330    2.2960 ha        1 3FQ      0.151000
     40 H12         6.6290   -3.7960    4.5590 ha        1 3FQ      0.160000
     41 H161        8.8890   -3.1520    4.6830 ho        1 3FQ      0.243000
     42 H162       10.6360    0.3760    8.4890 ha        1 3FQ      0.049000
     43 H14         8.5050   -0.5130    2.4330 ha        1 3FQ      0.160000
     44 H15         6.3630   -0.0600    1.2370 ha        1 3FQ      0.158000
     45 H           3.1390    1.5580    2.6010 hn        1 3FQ      0.169000
     46 HA          0.3380    0.0180   -0.6930 hn        1 3FQ      0.264000
     47 H3          3.9610   -1.8200    0.7090 hn        1 3FQ      0.237000
     48 H17         9.8370    1.2880    6.1580 h1        1 3FQ      0.090500
     49 H181        8.3540    1.5520    7.1970 h1        1 3FQ      0.090500
     50 H182        9.4550   -1.2650    6.4100 hc        1 3FQ      0.155500
     51 H191        7.8800    4.1200    7.4850 ha        1 3FQ      0.011250
     52 H192        6.4480    4.0210    5.2500 h4        1 3FQ      0.202250
     53 H193        7.5640    3.7210    7.0370 ha        1 3FQ      0.011250
     54 H201        5.2010    4.1350    3.7950 h4        1 3FQ      0.202250
     55 H202        4.6500    0.5660    5.3290 h4        1 3FQ      0.202250
     56 H203        6.0940    0.3500    4.0720 h4        1 3FQ      0.202250
     57 H1          8.3750    0.0370    4.8090 ho        1 3FQ      0.223000
     58 H1L         0.2450    2.1410    1.7230 ho        1 3FQ      0.255000
     59 H41         8.1590   -0.9060    7.6110 hc        1 3FQ      0.155500
     60 F1         -1.6110   -0.7130   -1.9090 f         1 3FQ     -0.089000
@<TRIPOS>BOND
     1    1    3 1   
     2    1   19 1   
     3    1   20 1   
     4    1   33 1   
     5    2    8 1   
     6    2   45 1   
     7    3    8 1   
     8    4    5 1   
     9    4   12 1   
    10    4   36 1   
    11    4   37 1   
    12    5    6 1   
    13    6    7 1   
    14    6   60 1   
    15    7   11 1   
    16    7   20 1   
    17    8   21 1   
    18    9   10 1   
    19    9   13 1   
    20    9   38 1   
    21   10   17 1   
    22   10   21 1   
    23   11   12 1   
    24   11   39 1   
    25   12   23 1   
    26   13   16 1   
    27   13   40 1   
    28   14   28 1   
    29   14   42 1   
    30   15   16 1   
    31   15   17 1   
    32   15   43 1   
    33   16   22 1   
    34   17   44 1   
    35   18   19 1   
    36   20   46 1   
    37   21   47 1   
    38   22   41 1   
    39   23   24 1   
    40   23   25 1   
    41   23   26 1   
    42   27   28 1   
    43   27   32 1   
    44   27   48 1   
    45   27   49 1   
    46   28   50 1   
    47   28   59 1   
    48   29   31 1   
    49   29   52 1   
    50   29   54 1   
    51   30   31 1   
    52   30   55 1   
    53   30   56 1   
    54   32   57 1   
    55   33   58 1   
    56   34   35 1   
    57   51   53 1   
@<TRIPOS>SUBSTRUCTURE
     1 3FQ         1 TEMP              0 ****  ****    0 ROOT
