@<TRIPOS>MOLECULE
3FQ
   59    55     1     0     0
SMALL
bcc


@<TRIPOS>ATOM
      1 C1         -4.3710   -1.7840   -0.9800 c3        1 3FQ      0.665400
      2 N1         -2.9430    0.2580    0.5920 nh        1 3FQ     -0.760000
      3 C2         -2.9170   -1.9340   -0.6140 c2        1 3FQ     -0.358200
      4 C7         -8.0400   -1.6880   -4.7390 c1        1 3FQ     -0.049500
      5 C6         -8.1060   -1.1080   -3.4700 c1        1 3FQ     -0.081500
      6 C5         -7.0090   -1.1990   -2.5960 c1        1 3FQ      0.068100
      7 C4         -5.8420   -1.8760   -3.0010 c1        1 3FQ      0.121800
      8 C3         -2.2620   -0.9230    0.2590 c2        1 3FQ      0.327000
      9 C11         0.7770    0.8020    0.4090 c1        1 3FQ     -0.046500
     10 C10         0.0440   -0.1930    1.0390 c1        1 3FQ      0.027800
     11 C9         -5.7760   -2.4570   -4.2710 c1        1 3FQ     -0.082500
     12 C8         -6.8740   -2.3650   -5.1430 c1        1 3FQ     -0.110100
     13 C12         1.9530    1.2880    1.0050 c1        1 3FQ     -0.134500
     14 C16         4.6220    1.5710    1.9950 c3        1 3FQ      0.087400
     15 C14         1.6470   -0.2240    2.8550 c1        1 3FQ     -0.074000
     16 C13         2.3820    0.7720    2.2270 c1        1 3FQ      0.111600
     17 C15         0.4740   -0.7100    2.2630 c1        1 3FQ     -0.074000
     18 C          -4.3300    0.4300    0.2030 c2        1 3FQ      0.652100
     19 N          -4.9080   -0.4290   -0.7780 n2        1 3FQ     -0.649900
     20 N2         -4.6140   -2.2440   -2.3150 n3        1 3FQ     -0.725800
     21 F1         -7.0760   -0.6410   -1.3710 f         1 3FQ     -0.096100
     22 N3         -0.9800   -1.2340    0.9020 nh        1 3FQ     -0.577600
     23 O           3.5640    1.3170    2.8740 os        1 3FQ     -0.321400
     24 C21        -6.9680   -2.5870   -6.6010 c3        1 3FQ      0.654000
     25 F2         -5.9190   -3.2670   -7.0090 f         1 3FQ     -0.238300
     26 F3         -8.0660   -3.2670   -6.8750 f         1 3FQ     -0.238300
     27 F4         -7.0070   -1.4040   -7.2290 f         1 3FQ     -0.238300
     28 C17         5.8700    1.9810    2.7850 c3        1 3FQ      0.140100
     29 C18         7.0900    1.9820    1.8440 c3        1 3FQ      0.175800
     30 C19         7.9500    3.0290    3.7930 c3        1 3FQ      0.154600
     31 C20         9.3910    2.3940    2.0810 c3        1 3FQ      0.154600
     32 N4          8.1030    2.9010    2.3640 n3        1 3FQ     -0.740600
     33 O1          6.0830    1.0760    3.8290 oh        1 3FQ     -0.600800
     34 O1L        -5.1440   -2.7190   -0.2390 oh        1 3FQ     -0.605800
     35 HN1        -2.4820    0.9620    1.0000 hn        1 3FQ      0.454800
     36 H2         -2.4320   -2.7090   -0.8940 ha        1 3FQ      0.162000
     37 H7         -8.8110   -1.6240   -5.3520 ha        1 3FQ      0.096500
     38 H6         -8.9420   -0.6230   -3.1810 ha        1 3FQ      0.096500
     39 H11         0.4720    1.1700   -0.4620 ha        1 3FQ      0.092500
     40 H9         -4.9450   -2.9390   -4.5600 ha        1 3FQ      0.093500
     41 H12         2.4700    1.9880    0.5620 ha        1 3FQ      0.086500
     42 H161        4.8170    0.7590    1.4760 h1        1 3FQ      0.052700
     43 H162        4.3790    2.2730    1.4030 h1        1 3FQ      0.052700
     44 H14         1.9530   -0.5920    3.7270 ha        1 3FQ      0.090500
     45 H15        -0.0380   -1.4040    2.7020 ha        1 3FQ      0.090500
     46 H          -4.8470    1.1200    0.5910 h5        1 3FQ      0.049800
     47 HA         -4.0240   -2.8130   -2.7130 hn        1 3FQ      0.411800
     48 H3         -0.8130   -2.0810    1.2000 hn        1 3FQ      0.420800
     49 H17         5.7430    2.8860    3.1570 h1        1 3FQ      0.068700
     50 H181        7.4760    1.0510    1.7890 h1        1 3FQ      0.043200
     51 H182        6.8140    2.2720    0.9570 h1        1 3FQ      0.043200
     52 H191        8.4900    2.3670    4.2290 h1        1 3FQ      0.034700
     53 H192        7.0300    2.9000    4.0310 h1        1 3FQ      0.034700
     54 H193        8.2390    3.9260    4.0750 h1        1 3FQ      0.034700
     55 H201        9.6100    2.5610    1.1380 h1        1 3FQ      0.034700
     56 H202        9.4090    1.4210    2.2570 h1        1 3FQ      0.034700
     57 H203       10.0560    2.8450    2.6600 h1        1 3FQ      0.034700
     58 H1          5.6130    1.3110    4.5140 ho        1 3FQ      0.415000
     59 H1L        -6.0340   -2.5700   -0.3930 ho        1 3FQ      0.431000
@<TRIPOS>BOND
     1    1    3 1   
     2    1   19 1   
     3    1   20 1   
     4    1   34 1   
     5    2    8 1   
     6    2   18 1   
     7    2   35 1   
     8    3    8 2   
     9    3   36 1   
    10    4   12 3   
    11    4   37 1   
    12    5    6 3   
    13    5   38 1   
    14    6   21 1   
    15    7   11 3   
    16    7   20 1   
    17    8   22 1   
    18    9   10 3   
    19    9   39 1   
    20   10   22 1   
    21   11   40 1   
    22   12   24 1   
    23   13   16 3   
    24   13   41 1   
    25   14   23 1   
    26   14   28 1   
    27   14   42 1   
    28   14   43 1   
    29   15   17 3   
    30   15   44 1   
    31   16   23 1   
    32   17   45 1   
    33   18   19 2   
    34   18   46 1   
    35   20   47 1   
    36   22   48 1   
    37   24   25 1   
    38   24   26 1   
    39   24   27 1   
    40   28   29 1   
    41   28   33 1   
    42   28   49 1   
    43   29   32 1   
    44   29   50 1   
    45   29   51 1   
    46   30   32 1   
    47   30   52 1   
    48   30   53 1   
    49   30   54 1   
    50   31   32 1   
    51   31   55 1   
    52   31   56 1   
    53   31   57 1   
    54   33   58 1   
    55   34   59 1   
@<TRIPOS>SUBSTRUCTURE
     1 3FQ         1 TEMP              0 ****  ****    0 ROOT
