@<TRIPOS>MOLECULE
3FR
   59    48     1     0     0
SMALL
bcc


@<TRIPOS>ATOM
      1 C31        -5.2510    0.2600   -5.7310 c1        1 3FR     -0.130000
      2 C30        -5.1900    0.4410   -4.3540 c1        1 3FR     -0.121833
      3 C28        -2.7690    0.2910   -4.4450 c1        1 3FR     -0.022000
      4 C26         4.5430   -0.1470   -2.0780 c3        1 3FR     -0.154000
      5 C24         2.8650   -0.8920    5.1780 c3        1 3FR     -0.239000
      6 C23        -0.8460   -0.1110   -2.7950 c1        1 3FR     -0.196000
      7 C22        -1.6700    0.6750   -3.6090 c1        1 3FR      0.025000
      8 C17         3.1870   -0.2890   -1.3380 c2        1 3FR     -0.047000
      9 C20        -0.4460    2.6370   -2.9410 c1        1 3FR     -0.050000
     10 C12         2.8180   -0.3290    0.0170 c1        1 3FR     -0.240000
     11 C13         3.5790   -0.3630    1.2030 c1        1 3FR      0.046000
     12 C11         1.4650   -0.3340    0.0820 c1        1 3FR      0.025000
     13 C10         0.8310   -0.3720    1.3210 c1        1 3FR     -0.196000
     14 C9          1.5870   -0.4050    2.4900 c1        1 3FR      0.162000
     15 C7          1.4190   -1.1390    4.8770 c3        1 3FR      0.055000
     16 C4         -0.1790   -1.8490    6.6640 c1        1 3FR     -0.121833
     17 C5          0.5960   -0.8540    6.1100 c1        1 3FR     -0.084000
     18 C6          0.6860    0.3850    6.7340 c1        1 3FR     -0.127000
     19 C3         -0.8710   -1.6130    7.8490 c1        1 3FR     -0.121833
     20 C2         -0.7820   -0.3820    8.4700 c1        1 3FR     -0.121833
     21 C1         -0.0050    0.6180    7.9150 c1        1 3FR     -0.121833
     22 O36        -0.4890   -0.2390   -6.0250 o         1 3FR     -0.366000
     23 C34        -1.5590   -0.1720   -6.6040 c1        1 3FR      0.336000
     24 N35        -1.6140   -0.3240   -8.0010 n2        1 3FR     -0.416000
     25 C33        -2.8300    0.1100   -5.8200 c2        1 3FR     -0.099000
     26 C32        -4.0720    0.0940   -6.4690 c2        1 3FR     -0.083000
     27 C29        -3.9510    0.4570   -3.7060 c1        1 3FR     -0.121833
     28 C21        -1.4690    2.0440   -3.6810 c1        1 3FR     -0.130000
     29 CL         -0.1000    4.3490   -2.9980 cl        1 3FR     -0.006000
     30 C19         0.3750    1.8530   -2.1280 c2        1 3FR     -0.148000
     31 C18         0.1750    0.4840   -2.0560 c1        1 3FR      0.101000
     32 N15         0.9760   -0.2970   -1.2100 n1        1 3FR     -0.132000
     33 N16         2.0560   -0.2690   -2.0770 n2        1 3FR     -0.043000
     34 N14         2.9490   -0.4000    2.4230 n1        1 3FR     -0.215000
     35 N8          0.9940   -0.2730    3.8050 n3        1 3FR     -0.282000
     36 H31        -6.1220    0.2480   -6.1860 ha        1 3FR      0.140000
     37 H30        -6.0140    0.5570   -3.8390 ha        1 3FR      0.136000
     38 H26         5.0600    0.5970   -1.6800 hc        1 3FR      0.097000
     39 H26A        4.3780    0.0410   -3.0350 hc        1 3FR      0.097000
     40 H26B        5.0550   -0.9890   -1.9910 hc        1 3FR      0.097000
     41 H24         3.0160    0.0680    5.2840 hc        1 3FR      0.085333
     42 H24A        3.1090   -1.3550    6.0090 hc        1 3FR      0.085333
     43 H24B        3.4130   -1.2290    4.4450 hc        1 3FR      0.085333
     44 H23        -0.9890   -1.0800   -2.7440 ha        1 3FR      0.163500
     45 H13         4.5680   -0.3590    1.1580 ha        1 3FR      0.164000
     46 H10        -0.1480   -0.3760    1.3710 ha        1 3FR      0.163500
     47 H7          1.2950   -2.0800    4.6100 h1        1 3FR      0.128000
     48 H4         -0.2430   -2.7120    6.2300 ha        1 3FR      0.136000
     49 H6          1.2390    1.0970    6.3390 ha        1 3FR      0.127000
     50 H3         -1.4190   -2.3170    8.2410 ha        1 3FR      0.136000
     51 H2         -1.2710   -0.2160    9.3040 ha        1 3FR      0.136000
     52 H1          0.0570    1.4790    8.3510 ha        1 3FR      0.136000
     53 HN35       -2.4180   -0.2800   -8.4340 hn        1 3FR      0.225500
     54 HN3A       -0.8530   -0.4940   -8.4710 hn        1 3FR      0.225500
     55 H32        -4.1160   -0.0340   -7.4400 ha        1 3FR      0.157000
     56 H29        -3.9090    0.5830   -2.7470 ha        1 3FR      0.136000
     57 H21        -2.1040    2.6090   -4.1870 ha        1 3FR      0.157000
     58 H19         1.0990    2.2750   -1.6040 ha        1 3FR      0.162000
     59 HN8         0.3100    0.3240    3.9420 hn        1 3FR      0.209000
@<TRIPOS>BOND
     1    1   26 1   
     2    1   36 1   
     3    2   27 1   
     4    2   37 1   
     5    3   25 1   
     6    4    8 1   
     7    4   38 1   
     8    4   39 1   
     9    4   40 1   
    10    5   15 1   
    11    5   41 1   
    12    5   42 1   
    13    5   43 1   
    14    6    7 1   
    15    6   44 1   
    16    8   10 1   
    17    8   33 1   
    18    9   28 1   
    19    9   30 1   
    20   10   11 1   
    21   11   45 1   
    22   12   13 1   
    23   13   46 1   
    24   14   34 1   
    25   14   35 1   
    26   15   17 1   
    27   15   35 1   
    28   15   47 1   
    29   16   19 1   
    30   16   48 1   
    31   17   18 1   
    32   18   49 1   
    33   19   50 1   
    34   20   21 1   
    35   20   51 1   
    36   21   52 1   
    37   22   23 1   
    38   23   25 1   
    39   24   53 1   
    40   24   54 1   
    41   25   26 1   
    42   26   55 1   
    43   27   56 1   
    44   28   57 1   
    45   30   31 1   
    46   30   58 1   
    47   32   33 1   
    48   35   59 1   
@<TRIPOS>SUBSTRUCTURE
     1 3FR         1 TEMP              0 ****  ****    0 ROOT
