@<TRIPOS>MOLECULE
3FR
   59    63     1     0     0
SMALL
bcc


@<TRIPOS>ATOM
      1 C31         7.0030   -0.7800   -2.5420 ca        1 3FR     -0.129000
      2 C30         5.9810   -1.6690   -2.8750 ca        1 3FR     -0.113000
      3 C28         4.5880   -0.7500   -1.1080 cp        1 3FR     -0.022000
      4 C24        -4.0540   -1.2080    1.3410 c3        1 3FR     -0.126100
      5 C23         2.5770    0.4320   -0.2490 ca        1 3FR     -0.115000
      6 C22         3.2930   -0.7570   -0.4210 cp        1 3FR     -0.033000
      7 C17         0.2110    3.7380    0.9810 cc        1 3FR      0.399900
      8 C20         1.5070   -1.9870    0.6410 ca        1 3FR      0.027400
      9 C12        -1.0950    3.1450    0.7150 ca        1 3FR     -0.385200
     10 C13        -2.4290    3.5690    0.6650 ca        1 3FR      0.511200
     11 C11        -0.8180    1.7560    0.4340 ca        1 3FR      0.031800
     12 C10        -1.8550    0.8790    0.1040 ca        1 3FR     -0.326300
     13 C9         -3.1690    1.4230    0.0720 ca        1 3FR      0.672200
     14 C7         -4.2480   -0.7930   -0.1210 c3        1 3FR      0.252800
     15 C4         -5.4580   -2.3510   -1.6830 ca        1 3FR     -0.118000
     16 C5         -5.5210   -1.4190   -0.6430 ca        1 3FR     -0.093300
     17 C6         -6.7610   -1.0800   -0.0910 ca        1 3FR     -0.118000
     18 C3         -6.6260   -2.9480   -2.1570 ca        1 3FR     -0.128000
     19 C2         -7.8600   -2.6120   -1.6030 ca        1 3FR     -0.123000
     20 C1         -7.9270   -1.6760   -0.5710 ca        1 3FR     -0.128000
     21 O36         5.9040    2.3040    0.2010 o         1 3FR     -0.605100
     22 N35         5.0920    0.6790    1.5720 n         1 3FR     -0.656000
     23 C33         5.6260    0.1320   -0.7670 ca        1 3FR     -0.119600
     24 C32         6.8240    0.1180   -1.4940 ca        1 3FR     -0.083000
     25 C29         4.7830   -1.6520   -2.1660 ca        1 3FR     -0.124000
     26 C21         2.7560   -1.9740    0.0180 ca        1 3FR     -0.130000
     27 CL          0.8590   -3.4620    1.1850 cl        1 3FR     -0.084400
     28 C19         0.7790   -0.8130    0.8340 ca        1 3FR     -0.148000
     29 C18         1.3120    0.4090    0.3740 ca        1 3FR      0.055800
     30 N15         0.5790    1.6100    0.5520 na        1 3FR      0.139800
     31 N16         1.1710    2.7950    0.8700 nd        1 3FR     -0.510100
     32 N14        -3.4390    2.7540    0.3730 nb        1 3FR     -0.743000
     33 H31         7.9470   -0.7850   -3.1070 ha        1 3FR      0.141000
     34 H30         6.1170   -2.3820   -3.7030 ha        1 3FR      0.138000
     35 H26         0.4680    5.2660    2.4450 hc        1 3FR      0.057700
     36 H26A        1.4110    5.5260    0.9160 hc        1 3FR      0.057700
     37 H26B       -0.3910    5.7780    0.9260 hc        1 3FR      0.057700
     38 H24A       -3.0890   -0.8070    1.7350 hc        1 3FR      0.047700
     39 H24B       -4.8880   -0.8300    1.9800 hc        1 3FR      0.047700
     40 H23         3.0140    1.3820   -0.6040 ha        1 3FR      0.175000
     41 H13        -2.7030    4.6200    0.8800 h4        1 3FR      0.027100
     42 H10        -1.6570   -0.1690   -0.1460 ha        1 3FR      0.154000
     43 H7         -3.3780   -1.2140   -0.7150 h1        1 3FR      0.064700
     44 H4         -4.4880   -2.6140   -2.1310 ha        1 3FR      0.133500
     45 H6         -6.8200   -0.3460    0.7270 ha        1 3FR      0.133500
     46 H3         -6.5710   -3.6830   -2.9740 ha        1 3FR      0.134500
     47 H2         -8.7800   -3.0810   -1.9810 ha        1 3FR      0.134000
     48 H1         -8.9000   -1.4060   -0.1340 ha        1 3FR      0.134500
     49 HN35        4.9530    1.3410    2.2960 hn        1 3FR      0.312500
     50 HN3A        4.6630   -0.2080    1.6570 hn        1 3FR      0.312500
     51 H32         7.6170    0.8370   -1.2290 ha        1 3FR      0.157000
     52 H29         3.9720   -2.3450   -2.4400 ha        1 3FR      0.140000
     53 H21         3.3190   -2.9090   -0.1280 ha        1 3FR      0.157000
     54 H19        -0.1960   -0.8450    1.3460 ha        1 3FR      0.162000
     55 C34         5.5290    1.1220    0.3470 c         1 3FR      0.662700
     56 N8         -4.2520    0.6420   -0.3580 nh        1 3FR     -0.830900
     57 C26         0.4430    5.1520    1.3320 c3        1 3FR     -0.111400
     58 H24        -4.0340   -2.3220    1.4060 hc        1 3FR      0.047700
     59 HN8        -5.1520    1.0660   -0.2480 hn        1 3FR      0.422800
@<TRIPOS>BOND
     1    1    2 ar  
     2    1   24 ar  
     3    1   33 1   
     4    2   25 ar  
     5    2   34 1   
     6    3    6 1   
     7    3   23 ar  
     8    3   25 ar  
     9    4   14 1   
    10    4   38 1   
    11    4   39 1   
    12    4   58 1   
    13    5    6 ar  
    14    5   29 ar  
    15    5   40 1   
    16    6   26 ar  
    17    7    9 1   
    18    7   31 2   
    19    7   57 1   
    20    8   26 ar  
    21    8   27 1   
    22    8   28 ar  
    23    9   10 ar  
    24    9   11 ar  
    25   10   32 ar  
    26   10   41 1   
    27   11   12 ar  
    28   11   30 1   
    29   12   13 ar  
    30   12   42 1   
    31   13   32 ar  
    32   13   56 1   
    33   14   16 1   
    34   14   43 1   
    35   14   56 1   
    36   15   16 ar  
    37   15   18 ar  
    38   15   44 1   
    39   16   17 ar  
    40   17   20 ar  
    41   17   45 1   
    42   18   19 ar  
    43   18   46 1   
    44   19   20 ar  
    45   19   47 1   
    46   20   48 1   
    47   21   55 2   
    48   22   49 1   
    49   22   50 1   
    50   22   55 1   
    51   23   24 ar  
    52   23   55 1   
    53   24   51 1   
    54   25   52 1   
    55   26   53 1   
    56   28   29 ar  
    57   28   54 1   
    58   29   30 1   
    59   30   31 1   
    60   35   57 1   
    61   36   57 1   
    62   37   57 1   
    63   56   59 1   
@<TRIPOS>SUBSTRUCTURE
     1 3FR         1 TEMP              0 ****  ****    0 ROOT
