@<TRIPOS>MOLECULE
3FT
   43    45     1     0     0
SMALL
bcc


@<TRIPOS>ATOM
      1 C1          0.0680   -0.0140    0.0500 ca        1 3FT     -0.122000
      2 C2          1.4560    0.0920    0.1240 ca        1 3FT     -0.146000
      3 C3          2.0460    0.1930    1.3890 ca        1 3FT      0.073100
      4 O4          3.4390    0.1590    1.5190 os        1 3FT     -0.367900
      5 C5          4.1530    1.3050    1.1490 c3        1 3FT      0.817700
      6 F6          3.7390    2.4220    1.7960 f         1 3FT     -0.222633
      7 F7          5.4390    1.0450    1.4920 f         1 3FT     -0.222633
      8 F8          4.0980    1.5300   -0.1900 f         1 3FT     -0.222633
      9 C9          1.2890    0.1920    2.5650 ca        1 3FT     -0.113000
     10 C10        -0.1070    0.0780    2.4750 cp        1 3FT      0.012000
     11 C11        -0.9240    0.0700    3.6830 cp        1 3FT     -0.102000
     12 C12        -0.7050   -0.0220    1.2090 ca        1 3FT     -0.120000
     13 C13        -2.0500   -0.7550    3.7700 ca        1 3FT     -0.128000
     14 C14        -2.8410   -0.7690    4.9240 ca        1 3FT      0.062900
     15 F15        -3.9120   -1.6010    4.9640 f         1 3FT     -0.127900
     16 C16        -2.5310    0.0770    6.0450 ca        1 3FT      0.101600
     17 N17        -3.3500    0.0500    7.1650 n         1 3FT     -0.464100
     18 C18        -1.3870    0.8980    5.9210 ca        1 3FT     -0.169000
     19 C19        -0.6060    0.8880    4.7740 ca        1 3FT     -0.099000
     20 C20        -3.0750    0.6260    8.4060 c         1 3FT      0.709300
     21 C21        -4.1130    0.5110    9.4420 ce        1 3FT     -0.247400
     22 O22        -1.9760    1.1740    8.6510 o         1 3FT     -0.645100
     23 C23        -5.4600    0.4460    9.3420 cf        1 3FT     -0.060400
     24 C24        -6.0930    0.3920   10.7050 c3        1 3FT     -0.060200
     25 C25        -4.9370    0.4570   11.7070 c3        1 3FT     -0.085400
     26 C26        -3.6510    0.5190   10.8750 c3        1 3FT     -0.024200
     27 C27        -6.3860    0.4750    8.1490 c         1 3FT      0.904800
     28 O28        -6.2000   -0.3670    7.2200 o         1 3FT     -0.812300
     29 O29        -7.3170    1.3230    8.1610 o         1 3FT     -0.812300
     30 H1         -0.4180   -0.0920   -0.9340 ha        1 3FT      0.134000
     31 H2          2.0800    0.1030   -0.7800 ha        1 3FT      0.145000
     32 H9          1.7860    0.2610    3.5440 ha        1 3FT      0.158000
     33 H12        -1.8010   -0.0990    1.1350 ha        1 3FT      0.146000
     34 H13        -2.3230   -1.4180    2.9340 ha        1 3FT      0.137000
     35 H17        -4.2710   -0.3670    7.0420 hn        1 3FT      0.394500
     36 H18        -1.1040    1.5670    6.7520 ha        1 3FT      0.179000
     37 H19         0.2730    1.5500    4.7210 ha        1 3FT      0.127000
     38 H241       -6.8000    1.2530   10.8180 hc        1 3FT      0.064700
     39 H242       -6.6820   -0.5520   10.8160 hc        1 3FT      0.064700
     40 H251       -4.9350   -0.4420   12.3700 hc        1 3FT      0.027700
     41 H252       -5.0280    1.3600   12.3580 hc        1 3FT      0.027700
     42 H261       -3.0630    1.4460   11.0890 hc        1 3FT      0.042700
     43 H262       -2.9900   -0.3590   11.0810 hc        1 3FT      0.042700
@<TRIPOS>BOND
     1    1    2 ar  
     2    1   12 ar  
     3    1   30 1   
     4    2    3 ar  
     5    2   31 1   
     6    3    4 1   
     7    3    9 ar  
     8    4    5 1   
     9    5    6 1   
    10    5    7 1   
    11    5    8 1   
    12    9   10 ar  
    13    9   32 1   
    14   10   11 1   
    15   10   12 ar  
    16   11   13 ar  
    17   11   19 ar  
    18   12   33 1   
    19   13   14 ar  
    20   13   34 1   
    21   14   15 1   
    22   14   16 ar  
    23   16   17 1   
    24   16   18 ar  
    25   17   20 1   
    26   17   35 1   
    27   18   19 ar  
    28   18   36 1   
    29   19   37 1   
    30   20   21 1   
    31   20   22 2   
    32   21   23 2   
    33   21   26 1   
    34   23   24 1   
    35   23   27 1   
    36   24   25 1   
    37   24   38 1   
    38   24   39 1   
    39   25   26 1   
    40   25   40 1   
    41   25   41 1   
    42   26   42 1   
    43   26   43 1   
    44   27   28 1   
    45   27   29 1   
@<TRIPOS>SUBSTRUCTURE
     1 3FT         1 TEMP              0 ****  ****    0 ROOT
