@<TRIPOS>MOLECULE
3FT
   43    37     1     0     0
SMALL
bcc


@<TRIPOS>ATOM
      1 C1          1.9760   -2.4320   -3.1270 c1        1 3FT     -0.135500
      2 C2          3.2020   -3.1010   -3.0320 c1        1 3FT     -0.135500
      3 C3          3.6460   -3.5650   -1.8010 c1        1 3FT      0.031000
      4 O4          4.9320   -4.1600   -1.6900 os        1 3FT     -0.251000
      5 C5          5.0500   -5.3990   -2.3550 c3        1 3FT      0.532000
      6 F6          4.0310   -6.1900   -2.0100 f         1 3FT     -0.150667
      7 F7          5.0320   -5.1980   -3.6900 f         1 3FT     -0.150667
      8 F8          6.2010   -5.9810   -2.0090 f         1 3FT     -0.150667
      9 C9          2.8750   -3.3660   -0.6650 c1        1 3FT     -0.111000
     10 C10         1.6480   -2.6960   -0.7600 c1        1 3FT     -0.044500
     11 C11         0.9130   -2.3710    0.4340 c1        1 3FT     -0.044500
     12 C12         1.2050   -2.2330   -1.9920 c1        1 3FT     -0.111500
     13 C13         1.6370   -1.2180    0.7140 c1        1 3FT     -0.128000
     14 C14         0.9830    0.0230    0.7750 c1        1 3FT      0.029000
     15 F15         1.6700    1.1260    1.1080 f         1 3FT     -0.093000
     16 C16        -0.3870    0.0980    0.5570 c2        1 3FT      0.109000
     17 N17        -1.0330    1.3970    0.4600 n         1 3FT     -0.318000
     18 C18        -1.1130   -1.0640    0.2750 c1        1 3FT     -0.168000
     19 C19        -0.4600   -2.2970    0.2150 c1        1 3FT     -0.111500
     20 C20        -2.0150    1.7860    1.4330 c2        1 3FT      0.384000
     21 C21        -2.7690    3.0990    1.2670 c2        1 3FT     -0.224000
     22 O22        -2.3050    1.0360    2.3280 o         1 3FT     -0.408000
     23 C23        -2.7110    4.1250    2.3270 c1        1 3FT     -0.036000
     24 C24        -3.4210    5.2470    2.0580 c2        1 3FT     -0.143000
     25 C25        -4.4290    4.6890    0.8440 c3        1 3FT     -0.164000
     26 C26        -3.8890    3.1440    0.5030 c3        1 3FT     -0.107000
     27 C27        -1.5200    4.1880    3.2590 c2        1 3FT      0.355000
     28 O28        -1.6480    3.8490    4.4680 o         1 3FT     -0.546500
     29 O29        -0.4400    4.6930    2.8610 o         1 3FT     -0.546500
     30 H1          1.6580   -2.1190   -3.9930 ha        1 3FT      0.138500
     31 H2          3.7520   -3.2430   -3.8440 ha        1 3FT      0.138500
     32 H9          3.1890   -3.6950    0.2040 ha        1 3FT      0.161000
     33 H12         0.3510   -1.7670   -2.0580 ha        1 3FT      0.134000
     34 H13         2.5900   -1.2820    0.9410 ha        1 3FT      0.140000
     35 H17        -0.7700    1.9910   -0.1850 hn        1 3FT      0.309000
     36 H18        -2.0940   -1.0260    0.2150 ha        1 3FT      0.178000
     37 H19        -0.9740   -3.1180    0.0320 ha        1 3FT      0.134000
     38 H241       -3.8070    5.6470    2.8600 ha        1 3FT      0.104500
     39 H242       -2.8690    5.9860    1.7090 ha        1 3FT      0.104500
     40 H251       -5.3530    4.6620    1.1570 hc        1 3FT      0.067000
     41 H252       -4.3550    5.2580    0.0520 hc        1 3FT      0.067000
     42 H261       -4.5230    2.4050    0.6040 hc        1 3FT      0.082000
     43 H262       -3.6590    3.0740   -0.4500 hc        1 3FT      0.082000
@<TRIPOS>BOND
     1    1    2 1   
     2    1   30 1   
     3    2   31 1   
     4    3    4 1   
     5    3    9 1   
     6    4    5 1   
     7    5    6 1   
     8    5    7 1   
     9    5    8 1   
    10    9   32 1   
    11   10   12 1   
    12   11   19 1   
    13   12   33 1   
    14   13   14 1   
    15   13   34 1   
    16   14   16 1   
    17   16   17 1   
    18   16   18 1   
    19   17   20 1   
    20   17   35 1   
    21   18   36 1   
    22   19   37 1   
    23   20   21 1   
    24   20   22 1   
    25   21   23 1   
    26   21   26 1   
    27   23   27 1   
    28   24   25 1   
    29   24   38 1   
    30   24   39 1   
    31   25   26 1   
    32   25   40 1   
    33   25   41 1   
    34   26   42 1   
    35   26   43 1   
    36   27   28 1   
    37   27   29 1   
@<TRIPOS>SUBSTRUCTURE
     1 3FT         1 TEMP              0 ****  ****    0 ROOT
