@<TRIPOS>MOLECULE
3FT
   44    46     1     0     0
SMALL
bcc


@<TRIPOS>ATOM
      1 C1          0.3800   -0.7880    0.2880 ca        1 3FT     -0.117000
      2 C2          1.6920   -0.3250    0.3680 ca        1 3FT     -0.114000
      3 C3          2.1150    0.2840    1.5560 ca        1 3FT      0.084100
      4 O4          3.4530    0.6340    1.7360 os        1 3FT     -0.368900
      5 C5          3.9340    1.7580    1.0440 c3        1 3FT      0.820700
      6 F6          3.2190    2.8770    1.3210 f         1 3FT     -0.213967
      7 F7          5.2070    1.9160    1.4810 f         1 3FT     -0.213967
      8 F8          3.9410    1.5580   -0.2980 f         1 3FT     -0.213967
      9 C9          1.2580    0.4400    2.6520 ca        1 3FT     -0.095000
     10 C10        -0.0550   -0.0390    2.5570 cp        1 3FT     -0.055000
     11 C11        -0.9680    0.1050    3.6900 cp        1 3FT      0.027000
     12 C12        -0.4870   -0.6510    1.3710 ca        1 3FT     -0.102000
     13 C13        -1.8280   -0.9410    4.0350 ca        1 3FT     -0.148000
     14 C14        -2.7070   -0.8060    5.1220 ca        1 3FT      0.166900
     15 F15        -3.5330   -1.8280    5.4430 f         1 3FT     -0.116900
     16 C16        -2.7300    0.4000    5.8700 ca        1 3FT     -0.041400
     17 N17        -3.6510    0.5610    6.9810 n4        1 3FT     -0.562200
     18 C18        -1.8580    1.4430    5.5110 ca        1 3FT     -0.073000
     19 C19        -0.9910    1.2940    4.4360 ca        1 3FT     -0.123000
     20 C20        -3.0960    0.2000    8.3510 c         1 3FT      0.595300
     21 C21        -4.0610    0.2320    9.4220 ce        1 3FT     -0.307400
     22 O22        -1.9050   -0.0920    8.4070 o         1 3FT     -0.479100
     23 C23        -5.3390    0.7060    9.4300 cf        1 3FT      0.006600
     24 C24        -5.9630    0.5290   10.7770 c3        1 3FT     -0.073200
     25 C25        -4.8870   -0.1190   11.6550 c3        1 3FT     -0.085400
     26 C26        -3.6540   -0.3160   10.7650 c3        1 3FT     -0.019200
     27 C27        -6.1170    1.3910    8.3270 c         1 3FT      0.878800
     28 O28        -6.5500    2.5420    8.5500 o         1 3FT     -0.780300
     29 O29        -6.2480    0.7630    7.2280 o         1 3FT     -0.780300
     30 H1          0.0270   -1.2670   -0.6390 ha        1 3FT      0.150000
     31 H2          2.3870   -0.4270   -0.4780 ha        1 3FT      0.162000
     32 H9          1.6270    0.9120    3.5750 ha        1 3FT      0.159000
     33 H12        -1.5220   -1.0190    1.2920 ha        1 3FT      0.146000
     34 H13        -1.8220   -1.8860    3.4680 ha        1 3FT      0.170000
     35 H17        -4.5270   -0.0100    6.8260 hn        1 3FT      0.498300
     36 H18        -1.8560    2.3880    6.0790 ha        1 3FT      0.159000
     37 H19        -0.3180    2.1230    4.1630 ha        1 3FT      0.160000
     38 H241       -6.2880    1.5290   11.1680 hc        1 3FT      0.092200
     39 H242       -6.8770   -0.1150   10.6930 hc        1 3FT      0.092200
     40 H251       -4.6420    0.5380   12.5250 hc        1 3FT      0.052200
     41 H252       -5.2420   -1.0990   12.0560 hc        1 3FT      0.052200
     42 H261       -2.7670    0.2370   11.1630 hc        1 3FT      0.056200
     43 H262       -3.3770   -1.3960   10.6830 hc        1 3FT      0.056200
     44 H172       -3.9850    1.5380    7.0160 hn        1 3FT      0.498300
@<TRIPOS>BOND
     1    1    2 ar  
     2    1   12 ar  
     3    1   30 1   
     4    2    3 ar  
     5    2   31 1   
     6    3    4 1   
     7    3    9 ar  
     8    4    5 1   
     9    5    6 1   
    10    5    7 1   
    11    5    8 1   
    12    9   10 ar  
    13    9   32 1   
    14   10   11 1   
    15   10   12 ar  
    16   11   13 ar  
    17   11   19 ar  
    18   12   33 1   
    19   13   14 ar  
    20   13   34 1   
    21   14   15 1   
    22   14   16 ar  
    23   16   17 1   
    24   16   18 ar  
    25   17   20 1   
    26   17   35 1   
    27   17   44 1   
    28   18   19 ar  
    29   18   36 1   
    30   19   37 1   
    31   20   21 1   
    32   20   22 2   
    33   21   23 2   
    34   21   26 1   
    35   23   24 1   
    36   23   27 1   
    37   24   25 1   
    38   24   38 1   
    39   24   39 1   
    40   25   26 1   
    41   25   40 1   
    42   25   41 1   
    43   26   42 1   
    44   26   43 1   
    45   27   28 1   
    46   27   29 1   
@<TRIPOS>SUBSTRUCTURE
     1 3FT         1 TEMP              0 ****  ****    0 ROOT
