@<TRIPOS>MOLECULE
3FT
   43    45     1     0     0
SMALL
bcc


@<TRIPOS>ATOM
      1 C1          0.0700   -0.0220    0.0510 ca        1 3FT     -0.122000
      2 C2          1.4570    0.0890    0.1260 ca        1 3FT     -0.146000
      3 C3          2.0470    0.1940    1.3900 ca        1 3FT      0.073100
      4 O4          3.4400    0.1640    1.5200 os        1 3FT     -0.367900
      5 C5          4.1510    1.3110    1.1480 c3        1 3FT      0.817700
      6 F6          3.7340    2.4290    1.7940 f         1 3FT     -0.222633
      7 F7          5.4380    1.0550    1.4910 f         1 3FT     -0.222633
      8 F8          4.0940    1.5340   -0.1910 f         1 3FT     -0.222633
      9 C9          1.2900    0.1930    2.5660 ca        1 3FT     -0.113000
     10 C10        -0.1060    0.0750    2.4760 cp        1 3FT      0.012000
     11 C11        -0.9230    0.0680    3.6840 cp        1 3FT     -0.102000
     12 C12        -0.7040   -0.0290    1.2100 ca        1 3FT     -0.120000
     13 C13        -2.0470   -0.7600    3.7720 ca        1 3FT     -0.128000
     14 C14        -2.8380   -0.7740    4.9260 ca        1 3FT      0.062900
     15 F15        -3.9060   -1.6090    4.9680 f         1 3FT     -0.127900
     16 C16        -2.5310    0.0750    6.0450 ca        1 3FT      0.101600
     17 N17        -3.3490    0.0490    7.1660 ns        1 3FT     -0.464100
     18 C18        -1.3880    0.9000    5.9190 ca        1 3FT     -0.169000
     19 C19        -0.6070    0.8890    4.7730 ca        1 3FT     -0.099000
     20 C20        -3.0750    0.6280    8.4050 c         1 3FT      0.709300
     21 C21        -4.1140    0.5140    9.4410 ce        1 3FT     -0.247400
     22 O22        -1.9780    1.1800    8.6490 o         1 3FT     -0.645100
     23 C23        -5.4610    0.4450    9.3420 cf        1 3FT     -0.060400
     24 C24        -6.0940    0.3920   10.7040 c3        1 3FT     -0.060200
     25 C25        -4.9380    0.4620   11.7060 c3        1 3FT     -0.085400
     26 C26        -3.6520    0.5260   10.8740 c3        1 3FT     -0.024200
     27 C27        -6.3860    0.4690    8.1480 c         1 3FT      0.904800
     28 O28        -6.1980   -0.3740    7.2210 o         1 3FT     -0.812300
     29 O29        -7.3190    1.3140    8.1580 o         1 3FT     -0.812300
     30 H1         -0.4160   -0.1030   -0.9330 ha        1 3FT      0.134000
     31 H2          2.0810    0.0990   -0.7790 ha        1 3FT      0.145000
     32 H9          1.7860    0.2660    3.5440 ha        1 3FT      0.158000
     33 H12        -1.8000   -0.1090    1.1360 ha        1 3FT      0.146000
     34 H13        -2.3180   -1.4250    2.9380 ha        1 3FT      0.137000
     35 H17        -4.2690   -0.3700    7.0430 hn        1 3FT      0.394500
     36 H18        -1.1070    1.5710    6.7490 ha        1 3FT      0.179000
     37 H19         0.2700    1.5530    4.7180 ha        1 3FT      0.127000
     38 H241       -6.6810   -0.5530   10.8170 hc        1 3FT      0.064700
     39 H242       -6.8030    1.2520   10.8150 hc        1 3FT      0.064700
     40 H251       -5.0320    1.3670   12.3550 hc        1 3FT      0.027700
     41 H252       -4.9340   -0.4350   12.3720 hc        1 3FT      0.027700
     42 H261       -2.9890   -0.3500   11.0820 hc        1 3FT      0.042700
     43 H262       -3.0670    1.4540   11.0860 hc        1 3FT      0.042700
@<TRIPOS>BOND
     1    1    2 ar  
     2    1   12 ar  
     3    1   30 1   
     4    2    3 ar  
     5    2   31 1   
     6    3    4 1   
     7    3    9 ar  
     8    4    5 1   
     9    5    6 1   
    10    5    7 1   
    11    5    8 1   
    12    9   10 ar  
    13    9   32 1   
    14   10   11 1   
    15   10   12 ar  
    16   11   13 ar  
    17   11   19 ar  
    18   12   33 1   
    19   13   14 ar  
    20   13   34 1   
    21   14   15 1   
    22   14   16 ar  
    23   16   17 1   
    24   16   18 ar  
    25   17   20 1   
    26   17   35 1   
    27   18   19 ar  
    28   18   36 1   
    29   19   37 1   
    30   20   21 1   
    31   20   22 2   
    32   21   23 2   
    33   21   26 1   
    34   23   24 1   
    35   23   27 1   
    36   24   25 1   
    37   24   38 1   
    38   24   39 1   
    39   25   26 1   
    40   25   40 1   
    41   25   41 1   
    42   26   42 1   
    43   26   43 1   
    44   27   28 1   
    45   27   29 1   
@<TRIPOS>SUBSTRUCTURE
     1 3FT         1 TEMP              0 ****  ****    0 ROOT
