@<TRIPOS>MOLECULE
3FT
   43    45     1     0     0
SMALL
bcc


@<TRIPOS>ATOM
      1 C1         35.4960   47.3300   40.6630 ca        1 3FT     -0.122000
      2 C2         34.9920   48.1210   41.6940 ca        1 3FT     -0.146000
      3 C3         35.4740   47.9070   42.9910 ca        1 3FT      0.073100
      4 O4         35.1040   48.7690   44.0290 os        1 3FT     -0.367900
      5 C5         33.8080   48.6450   44.5440 c3        1 3FT      0.817700
      6 F6         33.5240   47.3900   44.9740 f         1 3FT     -0.222633
      7 F7         33.7660   49.4950   45.6000 f         1 3FT     -0.222633
      8 F8         32.8640   49.0230   43.6440 f         1 3FT     -0.222633
      9 C9         36.4340   46.9300   43.2750 ca        1 3FT     -0.113000
     10 C10        36.9360   46.1450   42.2260 cp        1 3FT      0.012000
     11 C11        37.9400   45.1200   42.4890 cp        1 3FT     -0.102000
     12 C12        36.4560   46.3540   40.9230 ca        1 3FT     -0.120000
     13 C13        38.9740   44.8910   41.5750 ca        1 3FT     -0.128000
     14 C14        39.9410   43.9100   41.8180 ca        1 3FT      0.062900
     15 F15        40.9320   43.7400   40.9080 f         1 3FT     -0.127900
     16 C16        39.8900   43.0970   43.0030 ca        1 3FT      0.101600
     17 N17        40.8560   42.1200   43.2010 n         1 3FT     -0.464100
     18 C18        38.8310   43.3560   43.9040 ca        1 3FT     -0.169000
     19 C19        37.8890   44.3430   43.6530 ca        1 3FT     -0.099000
     20 C20        41.0850   41.4090   44.3790 c         1 3FT      0.709300
     21 C21        42.1390   40.3820   44.3470 ce        1 3FT     -0.247400
     22 O22        40.4610   41.6600   45.4350 o         1 3FT     -0.645100
     23 C23        42.5830   39.6000   43.3370 cf        1 3FT     -0.060400
     24 C24        43.6500   38.6590   43.8220 c3        1 3FT     -0.060200
     25 C25        43.8100   38.9420   45.3190 c3        1 3FT     -0.085400
     26 C26        42.8330   40.0750   45.6480 c3        1 3FT     -0.024200
     27 C27        42.1620   39.4860   41.8910 c         1 3FT      0.904800
     28 O28        42.1560   40.5340   41.1790 o         1 3FT     -0.812300
     29 O29        41.8680   38.3370   41.4650 o         1 3FT     -0.812300
     30 H1         35.1300   47.4790   39.6370 ha        1 3FT      0.134000
     31 H2         34.2330   48.8930   41.5070 ha        1 3FT      0.145000
     32 H9         36.7990   46.7960   44.3030 ha        1 3FT      0.158000
     33 H12        36.8390   45.7310   40.1000 ha        1 3FT      0.146000
     34 H13        39.0490   45.4910   40.6550 ha        1 3FT      0.137000
     35 H17        41.3970   41.8470   42.3830 hn        1 3FT      0.394500
     36 H18        38.7450   42.7610   44.8290 ha        1 3FT      0.179000
     37 H19        37.0780   44.5040   44.3800 ha        1 3FT      0.127000
     38 H241       44.6030   38.8410   43.2640 hc        1 3FT      0.064700
     39 H242       43.3310   37.6050   43.6220 hc        1 3FT      0.064700
     40 H251       44.8590   39.2430   45.5560 hc        1 3FT      0.027700
     41 H252       43.5730   38.0310   45.9200 hc        1 3FT      0.027700
     42 H261       42.0870   39.7690   46.4230 hc        1 3FT      0.042700
     43 H262       43.3700   40.9790   46.0300 hc        1 3FT      0.042700
@<TRIPOS>BOND
     1    1    2 ar  
     2    1   12 ar  
     3    1   30 1   
     4    2    3 ar  
     5    2   31 1   
     6    3    4 1   
     7    3    9 ar  
     8    4    5 1   
     9    5    6 1   
    10    5    7 1   
    11    5    8 1   
    12    9   10 ar  
    13    9   32 1   
    14   10   11 1   
    15   10   12 ar  
    16   11   13 ar  
    17   11   19 ar  
    18   12   33 1   
    19   13   14 ar  
    20   13   34 1   
    21   14   15 1   
    22   14   16 ar  
    23   16   17 1   
    24   16   18 ar  
    25   17   20 1   
    26   17   35 1   
    27   18   19 ar  
    28   18   36 1   
    29   19   37 1   
    30   20   21 1   
    31   20   22 2   
    32   21   23 2   
    33   21   26 1   
    34   23   24 1   
    35   23   27 1   
    36   24   25 1   
    37   24   38 1   
    38   24   39 1   
    39   25   26 1   
    40   25   40 1   
    41   25   41 1   
    42   26   42 1   
    43   26   43 1   
    44   27   28 1   
    45   27   29 1   
@<TRIPOS>SUBSTRUCTURE
     1 3FT         1 TEMP              0 ****  ****    0 ROOT
