@<TRIPOS>MOLECULE
3FV
   44    47     1     0     0
SMALL
bcc


@<TRIPOS>ATOM
      1 CAJ         0.3000    0.1770    0.1070 c3        1 3FV     -0.093900
      2 CAK         1.7940    0.4340    0.3010 c3        1 3FV      0.163300
      3 NAL         2.1850    0.4800    1.6960 n3        1 3FV     -0.825200
      4 CAM         1.4070    1.4130    2.4870 c3        1 3FV      0.163300
      5 CAN        -0.1000    1.1890    2.3650 c3        1 3FV     -0.093900
      6 CAI        -0.5100    1.2250    0.8850 c3        1 3FV      0.063000
      7 NAD        -1.9540    1.0350    0.7140 na        1 3FV      0.109400
      8 NAE        -2.7640    1.9580    0.1890 nc        1 3FV     -0.477800
      9 CAC        -2.6490   -0.1160    1.1050 cc        1 3FV     -0.147300
     10 CAB        -4.0020    0.1130    0.7980 cd        1 3FV     -0.123900
     11 CL         -5.2720   -0.9280    1.0380 cl        1 3FV     -0.015400
     12 CAF        -4.0290    1.4420    0.2200 cd        1 3FV      0.264800
     13 CAG        -5.2410    2.1690   -0.2380 c         1 3FV      0.604600
     14 OAH        -6.2930    2.1580    0.4280 o         1 3FV     -0.588100
     15 NAO        -5.1220    2.8420   -1.4440 n         1 3FV     -0.420100
     16 CAP        -6.1560    3.5570   -2.0200 cc        1 3FV     -0.066700
     17 CAT        -7.4760    3.7220   -1.5320 cd        1 3FV     -0.181300
     18 NAS        -8.1310    4.5270   -2.4650 na        1 3FV      0.000400
     19 NAR        -7.3630    4.8790   -3.4810 nd        1 3FV     -0.501800
     20 CAQ        -6.1260    4.3190   -3.2720 cc        1 3FV      0.213300
     21 CAU        -5.0060    4.4940   -4.1950 ca        1 3FV      0.401300
     22 NAV        -3.9050    3.7080   -4.0400 nb        1 3FV     -0.691000
     23 CAW        -2.8870    3.8760   -4.8980 ca        1 3FV      0.402200
     24 CAX        -2.8900    4.8120   -5.9480 ca        1 3FV     -0.252300
     25 CAY        -4.0180    5.6170   -6.1030 ca        1 3FV     -0.093000
     26 CAZ        -5.0900    5.4650   -5.2230 ca        1 3FV     -0.222300
     27 H1          0.0670    0.2360   -0.9860 hc        1 3FV      0.062950
     28 H2          0.0400   -0.8540    0.4640 hc        1 3FV      0.062950
     29 H3          2.3680   -0.4070   -0.1800 h1        1 3FV      0.035950
     30 H4          2.0600    1.3870   -0.2470 h1        1 3FV      0.035950
     31 H5          3.1620    0.6910    1.7750 hn        1 3FV      0.370800
     32 H7          1.6250    2.4890    2.2130 h1        1 3FV      0.035950
     33 H8          1.7040    1.2690    3.5640 h1        1 3FV      0.035950
     34 H9         -0.6280    1.9960    2.9360 hc        1 3FV      0.062950
     35 H10        -0.3780    0.2030    2.8180 hc        1 3FV      0.062950
     36 H11        -0.2500    2.2480    0.4720 h1        1 3FV      0.088700
     37 H12        -2.1540   -0.9770    1.5550 h4        1 3FV      0.191000
     38 H13        -4.2530    2.8200   -1.9320 hn        1 3FV      0.360500
     39 H14        -7.9470    3.3340   -0.6270 h4        1 3FV      0.214000
     40 H15        -9.0780    4.8240   -2.4270 hn        1 3FV      0.326700
     41 H16        -2.0170    3.2160   -4.7330 h4        1 3FV      0.018100
     42 H17        -2.0280    4.9000   -6.6200 ha        1 3FV      0.143000
     43 H18        -4.0660    6.3650   -6.9080 ha        1 3FV      0.139000
     44 H19        -5.9860    6.0930   -5.3290 ha        1 3FV      0.160000
@<TRIPOS>BOND
     1    1    2 1   
     2    1    6 1   
     3    1   27 1   
     4    1   28 1   
     5    2    3 1   
     6    2   29 1   
     7    2   30 1   
     8    3    4 1   
     9    3   31 1   
    10    4    5 1   
    11    4   32 1   
    12    4   33 1   
    13    5    6 1   
    14    5   34 1   
    15    5   35 1   
    16    6    7 1   
    17    6   36 1   
    18    7    8 1   
    19    7    9 1   
    20    8   12 2   
    21    9   10 2   
    22    9   37 1   
    23   10   11 1   
    24   10   12 1   
    25   12   13 1   
    26   13   14 2   
    27   13   15 1   
    28   15   16 1   
    29   15   38 1   
    30   16   17 2   
    31   16   20 1   
    32   17   18 1   
    33   17   39 1   
    34   18   19 1   
    35   18   40 1   
    36   19   20 2   
    37   20   21 1   
    38   21   22 ar  
    39   21   26 ar  
    40   22   23 ar  
    41   23   24 ar  
    42   23   41 1   
    43   24   25 ar  
    44   24   42 1   
    45   25   26 ar  
    46   25   43 1   
    47   26   44 1   
@<TRIPOS>SUBSTRUCTURE
     1 3FV         1 TEMP              0 ****  ****    0 ROOT
