@<TRIPOS>MOLECULE
3FV
   44    47     1     0     0
SMALL
bcc


@<TRIPOS>ATOM
      1 CAJ         0.3030    0.1860    0.1160 c3        1 3FV     -0.093900
      2 CAK         1.7960    0.4470    0.3120 c3        1 3FV      0.163300
      3 NAL         2.1850    0.4950    1.7070 n7        1 3FV     -0.825200
      4 CAM         1.4030    1.4270    2.4960 c3        1 3FV      0.163300
      5 CAN        -0.1020    1.2000    2.3720 c3        1 3FV     -0.093900
      6 CAI        -0.5100    1.2340    0.8910 c3        1 3FV      0.063000
      7 NAD        -1.9540    1.0400    0.7180 na        1 3FV      0.109400
      8 NAE        -2.7640    1.9610    0.1910 nc        1 3FV     -0.477800
      9 CAC        -2.6460   -0.1120    1.1090 cc        1 3FV     -0.147300
     10 CAB        -3.9990    0.1140    0.7990 cd        1 3FV     -0.123900
     11 Cl         -5.2680   -0.9290    1.0380 cl        1 3FV     -0.015400
     12 CAF        -4.0290    1.4430    0.2200 cd        1 3FV      0.264800
     13 CAG        -5.2410    2.1660   -0.2410 c         1 3FV      0.604600
     14 OAH        -6.2940    2.1550    0.4230 o         1 3FV     -0.588100
     15 NAO        -5.1220    2.8370   -1.4480 ns        1 3FV     -0.420100
     16 CAP        -6.1570    3.5490   -2.0260 cc        1 3FV     -0.066700
     17 CAT        -7.4770    3.7130   -1.5400 cd        1 3FV     -0.181300
     18 NAS        -8.1330    4.5140   -2.4760 na        1 3FV      0.000400
     19 NAR        -7.3640    4.8660   -3.4930 nd        1 3FV     -0.501800
     20 CAQ        -6.1270    4.3090   -3.2810 cc        1 3FV      0.213300
     21 CAU        -5.0050    4.4830   -4.2030 ca        1 3FV      0.401300
     22 NAV        -3.9030    3.7010   -4.0430 nb        1 3FV     -0.691000
     23 CAW        -2.8850    3.8680   -4.9010 ca        1 3FV      0.402200
     24 CAX        -2.8890    4.8010   -5.9540 ca        1 3FV     -0.252300
     25 CAY        -4.0190    5.6030   -6.1130 ca        1 3FV     -0.093000
     26 CAZ        -5.0910    5.4510   -5.2340 ca        1 3FV     -0.222300
     27 H1          0.0720    0.2440   -0.9780 hc        1 3FV      0.062950
     28 H2          0.0450   -0.8440    0.4730 hc        1 3FV      0.062950
     29 H3          2.3730   -0.3940   -0.1680 h1        1 3FV      0.035950
     30 H4          2.0610    1.4000   -0.2370 h1        1 3FV      0.035950
     31 H5          3.1610    0.7080    1.7880 hn        1 3FV      0.370800
     32 H7          1.6200    2.5030    2.2220 h1        1 3FV      0.035950
     33 H8          1.6990    1.2840    3.5740 h1        1 3FV      0.035950
     34 H9         -0.3800    0.2130    2.8250 hc        1 3FV      0.062950
     35 H10        -0.6330    2.0060    2.9410 hc        1 3FV      0.062950
     36 H11        -0.2520    2.2570    0.4780 h1        1 3FV      0.088700
     37 H12        -2.1510   -0.9710    1.5600 h4        1 3FV      0.191000
     38 H13        -4.2520    2.8160   -1.9350 hn        1 3FV      0.360500
     39 H14        -7.9480    3.3250   -0.6350 h4        1 3FV      0.214000
     40 H15        -9.0810    4.8100   -2.4400 hn        1 3FV      0.326700
     41 H16        -2.0130    3.2110   -4.7330 h4        1 3FV      0.018100
     42 H17        -2.0260    4.8890   -6.6250 ha        1 3FV      0.143000
     43 H18        -4.0670    6.3480   -6.9200 ha        1 3FV      0.139000
     44 H19        -5.9890    6.0760   -5.3430 ha        1 3FV      0.160000
@<TRIPOS>BOND
     1    1    2 1   
     2    1    6 1   
     3    1   27 1   
     4    1   28 1   
     5    2    3 1   
     6    2   29 1   
     7    2   30 1   
     8    3    4 1   
     9    3   31 1   
    10    4    5 1   
    11    4   32 1   
    12    4   33 1   
    13    5    6 1   
    14    5   34 1   
    15    5   35 1   
    16    6    7 1   
    17    6   36 1   
    18    7    8 1   
    19    7    9 1   
    20    8   12 2   
    21    9   10 2   
    22    9   37 1   
    23   10   11 1   
    24   10   12 1   
    25   12   13 1   
    26   13   14 2   
    27   13   15 1   
    28   15   16 1   
    29   15   38 1   
    30   16   17 2   
    31   16   20 1   
    32   17   18 1   
    33   17   39 1   
    34   18   19 1   
    35   18   40 1   
    36   19   20 2   
    37   20   21 1   
    38   21   22 ar  
    39   21   26 ar  
    40   22   23 ar  
    41   23   24 ar  
    42   23   41 1   
    43   24   25 ar  
    44   24   42 1   
    45   25   26 ar  
    46   25   43 1   
    47   26   44 1   
@<TRIPOS>SUBSTRUCTURE
     1 3FV         1 TEMP              0 ****  ****    0 ROOT
