@<TRIPOS>MOLECULE
3FV
   44    47     1     0     0
SMALL
bcc


@<TRIPOS>ATOM
      1 CAJ         0.3040    0.1860    0.1160 c3        1 3FV     -0.093900
      2 CAK         1.7970    0.4470    0.3140 c3        1 3FV      0.163300
      3 NAL         2.1850    0.4960    1.7090 n3        1 3FV     -0.825200
      4 CAM         1.4030    1.4270    2.4970 c3        1 3FV      0.163300
      5 CAN        -0.1030    1.1990    2.3720 c3        1 3FV     -0.093900
      6 CAI        -0.5100    1.2330    0.8910 c3        1 3FV      0.063000
      7 NAD        -1.9530    1.0400    0.7170 na        1 3FV      0.109400
      8 NAE        -2.7640    1.9610    0.1910 nc        1 3FV     -0.477800
      9 CAC        -2.6460   -0.1130    1.1070 cc        1 3FV     -0.147300
     10 CAB        -3.9990    0.1130    0.7970 cd        1 3FV     -0.123900
     11 CL         -5.2680   -0.9310    1.0340 cl        1 3FV     -0.015400
     12 CAF        -4.0280    1.4420    0.2190 cd        1 3FV      0.264800
     13 CAG        -5.2410    2.1660   -0.2410 c         1 3FV      0.604600
     14 OAH        -6.2940    2.1540    0.4230 o         1 3FV     -0.588100
     15 NAO        -5.1220    2.8370   -1.4490 n         1 3FV     -0.420100
     16 CAP        -6.1560    3.5500   -2.0260 cc        1 3FV     -0.066700
     17 CAT        -7.4760    3.7140   -1.5390 cd        1 3FV     -0.181300
     18 NAS        -8.1320    4.5160   -2.4740 na        1 3FV      0.000400
     19 NAR        -7.3640    4.8680   -3.4910 nd        1 3FV     -0.501800
     20 CAQ        -6.1270    4.3100   -3.2800 cc        1 3FV      0.213300
     21 CAU        -5.0060    4.4840   -4.2030 ca        1 3FV      0.401300
     22 NAV        -3.9030    3.7030   -4.0430 nb        1 3FV     -0.691000
     23 CAW        -2.8850    3.8690   -4.9020 ca        1 3FV      0.402200
     24 CAX        -2.8900    4.8010   -5.9560 ca        1 3FV     -0.252300
     25 CAY        -4.0210    5.6010   -6.1150 ca        1 3FV     -0.093000
     26 CAZ        -5.0930    5.4500   -5.2350 ca        1 3FV     -0.222300
     27 H1          0.0730    0.2440   -0.9780 hc        1 3FV      0.062950
     28 H2          0.0460   -0.8450    0.4730 hc        1 3FV      0.062950
     29 H3          2.3740   -0.3930   -0.1660 h1        1 3FV      0.035950
     30 H4          2.0620    1.4000   -0.2350 h1        1 3FV      0.035950
     31 H5          3.1610    0.7080    1.7900 hn        1 3FV      0.370800
     32 H7          1.6190    2.5030    2.2240 h1        1 3FV      0.035950
     33 H8          1.6980    1.2840    3.5750 h1        1 3FV      0.035950
     34 H9         -0.3800    0.2120    2.8250 hc        1 3FV      0.062950
     35 H10        -0.6340    2.0050    2.9410 hc        1 3FV      0.062950
     36 H11        -0.2510    2.2570    0.4780 h1        1 3FV      0.088700
     37 H12        -2.1500   -0.9720    1.5580 h4        1 3FV      0.191000
     38 H13        -4.2510    2.8170   -1.9350 hn        1 3FV      0.360500
     39 H14        -7.9470    3.3270   -0.6340 h4        1 3FV      0.214000
     40 H15        -9.0790    4.8120   -2.4370 hn        1 3FV      0.326700
     41 H16        -2.0120    3.2130   -4.7330 h4        1 3FV      0.018100
     42 H17        -2.0270    4.8880   -6.6270 ha        1 3FV      0.143000
     43 H18        -4.0700    6.3450   -6.9240 ha        1 3FV      0.139000
     44 H19        -5.9910    6.0740   -5.3450 ha        1 3FV      0.160000
@<TRIPOS>BOND
     1    1    2 1   
     2    1    6 1   
     3    1   27 1   
     4    1   28 1   
     5    2    3 1   
     6    2   29 1   
     7    2   30 1   
     8    3    4 1   
     9    3   31 1   
    10    4    5 1   
    11    4   32 1   
    12    4   33 1   
    13    5    6 1   
    14    5   34 1   
    15    5   35 1   
    16    6    7 1   
    17    6   36 1   
    18    7    8 1   
    19    7    9 1   
    20    8   12 2   
    21    9   10 2   
    22    9   37 1   
    23   10   11 1   
    24   10   12 1   
    25   12   13 1   
    26   13   14 2   
    27   13   15 1   
    28   15   16 1   
    29   15   38 1   
    30   16   17 2   
    31   16   20 1   
    32   17   18 1   
    33   17   39 1   
    34   18   19 1   
    35   18   40 1   
    36   19   20 2   
    37   20   21 1   
    38   21   22 ar  
    39   21   26 ar  
    40   22   23 ar  
    41   23   24 ar  
    42   23   41 1   
    43   24   25 ar  
    44   24   42 1   
    45   25   26 ar  
    46   25   43 1   
    47   26   44 1   
@<TRIPOS>SUBSTRUCTURE
     1 3FV         1 TEMP              0 ****  ****    0 ROOT
