@<TRIPOS>MOLECULE
3FW
   19    19     1     0     0
SMALL
bcc


@<TRIPOS>ATOM
      1 C24         0.0560    0.3530    0.3770 c3        1 3FW      0.060500
      2 C25         1.5490    0.1520    0.2590 ca        1 3FW      0.372600
      3 C27         3.5280    0.2530   -0.9440 ca        1 3FW      0.591700
      4 C29         3.6270   -0.5300    1.2340 ca        1 3FW      0.471200
      5 C30         2.2280   -0.3540    1.3780 ca        1 3FW     -0.328600
      6 N6         -0.5850    0.8950   -0.8560 n4        1 3FW     -0.826600
      7 N26         2.1780    0.4590   -0.9040 nb        1 3FW     -0.740000
      8 N28         4.2770   -0.2370    0.1000 nb        1 3FW     -0.659000
      9 C31         4.2430    0.5900   -2.2320 ce        1 3FW      0.372200
     10 N32         5.4800    0.4850   -2.4930 n2        1 3FW     -0.684100
     11 H18        -0.1490    1.0750    1.2220 hx        1 3FW      0.123700
     12 H19        -0.4290   -0.6400    0.6140 hx        1 3FW      0.123700
     13 H20         4.2410   -0.9250    2.0680 h4        1 3FW      0.065100
     14 H21         1.7200   -0.6020    2.3180 ha        1 3FW      0.175000
     15 H24        -0.1730    1.8050   -1.0970 hn        1 3FW      0.471133
     16 H28         3.5750    0.9760   -3.0310 h4        1 3FW      0.041800
     17 H29         6.1110    0.1410   -1.8000 hn        1 3FW      0.427400
     18 H2         -1.5920    1.0060   -0.7060 hn        1 3FW      0.471133
     19 H63        -0.4260    0.2570   -1.6460 hn        1 3FW      0.471133
@<TRIPOS>BOND
     1    1    2 1   
     2    1    6 1   
     3    1   11 1   
     4    1   12 1   
     5    2    5 ar  
     6    2    7 ar  
     7    3    7 ar  
     8    3    8 ar  
     9    3    9 1   
    10    4    5 ar  
    11    4    8 ar  
    12    4   13 1   
    13    5   14 1   
    14    6   15 1   
    15    6   18 1   
    16    6   19 1   
    17    9   10 2   
    18    9   16 1   
    19   10   17 1   
@<TRIPOS>SUBSTRUCTURE
     1 3FW         1 TEMP              0 ****  ****    0 ROOT
