@<TRIPOS>MOLECULE
3FW
   18    18     1     0     0
SMALL
bcc


@<TRIPOS>ATOM
      1 C24        -0.0140    0.1140    0.2240 c3        1 3FW      0.111500
      2 C25         1.4990    0.0600    0.1480 ca        1 3FW      0.444600
      3 C27         3.4680    0.0580   -1.0750 ca        1 3FW      0.547700
      4 C29         3.6390   -0.1740    1.2150 ca        1 3FW      0.433200
      5 C30         2.2400   -0.0980    1.3390 ca        1 3FW     -0.346600
      6 N6         -0.5780    1.3140   -0.3410 n3        1 3FW     -0.912800
      7 N26         2.1030    0.1390   -1.0620 nb        1 3FW     -0.685000
      8 N28         4.2670   -0.0990    0.0280 nb        1 3FW     -0.697000
      9 C31         4.1410    0.1480   -2.4220 ce        1 3FW      0.388200
     10 N32         5.3830    0.1060   -2.6880 n2        1 3FW     -0.735100
     11 H18        -0.4020   -0.8340   -0.2600 h1        1 3FW      0.043200
     12 H19        -0.3170    0.0810    1.3110 h1        1 3FW      0.043200
     13 H20         4.2880   -0.2980    2.1020 h4        1 3FW      0.032100
     14 H21         1.7490   -0.1510    2.3180 ha        1 3FW      0.160000
     15 H24        -0.1960    1.5190   -1.2430 hn        1 3FW      0.362300
     16 H28         3.4340    0.2670   -3.2720 h4        1 3FW      0.038800
     17 H29         6.0320    0.0000   -1.9370 hn        1 3FW      0.408400
     18 H2         -1.5720    1.2200   -0.4170 hn        1 3FW      0.362300
@<TRIPOS>BOND
     1    1    2 1   
     2    1    6 1   
     3    1   11 1   
     4    1   12 1   
     5    2    5 ar  
     6    2    7 ar  
     7    3    7 ar  
     8    3    8 ar  
     9    3    9 1   
    10    4    5 ar  
    11    4    8 ar  
    12    4   13 1   
    13    5   14 1   
    14    6   15 1   
    15    6   18 1   
    16    9   10 2   
    17    9   16 1   
    18   10   17 1   
@<TRIPOS>SUBSTRUCTURE
     1 3FW         1 TEMP              0 ****  ****    0 ROOT
