@<TRIPOS>MOLECULE
3FX
   34    34     1     0     0
SMALL
bcc


@<TRIPOS>ATOM
      1 OAA        -0.0040    0.6170    0.1680 o         1 3FX     -0.733533
      2 OAB         1.9490   -0.1270    1.3140 o         1 3FX     -0.733533
      3 OAC         2.2350    0.6770   -3.0250 oh        1 3FX     -0.684800
      4 OAD         1.4390   -0.9390   -0.8740 o         1 3FX     -0.733533
      5 CAE         3.4460    6.1390   -6.7680 c3        1 3FX     -0.088400
      6 CAF         1.9800    6.2080   -6.3950 c3        1 3FX     -0.077400
      7 CAG         4.2880    5.6710   -5.6010 c3        1 3FX     -0.077400
      8 CAH         1.4810    4.8820   -5.8590 c3        1 3FX     -0.097900
      9 CAI         3.8000    4.3420   -5.0600 c3        1 3FX     -0.097900
     10 CAJ         2.1870    3.0070   -2.6170 c3        1 3FX      0.096800
     11 CAK         2.2310    1.4280   -0.6970 c3        1 3FX     -0.325600
     12 NAL         1.8140    3.1830   -4.0530 n4        1 3FX     -0.760000
     13 CAM         1.7290    1.6260   -2.0950 c3        1 3FX      0.192100
     14 CAN         2.3270    4.4610   -4.6500 c3        1 3FX      0.120500
     15 SAO         1.2910    0.0770    0.1010 s6        1 3FX      1.443800
     16 HOAC        2.1760   -0.2050   -2.6070 ho        1 3FX      0.497000
     17 HAFA        1.3730    6.4860   -7.2970 hc        1 3FX      0.060700
     18 HAG         4.2660    6.4410   -4.7850 hc        1 3FX      0.060700
     19 HAGA        5.3560    5.5580   -5.9260 hc        1 3FX      0.060700
     20 HAH         0.4030    4.9850   -5.5640 hc        1 3FX      0.064200
     21 HAHA        1.5480    4.1020   -6.6630 hc        1 3FX      0.064200
     22 HAI         3.9150    3.5510   -5.8480 hc        1 3FX      0.064200
     23 HAIA        4.4270    4.0450   -4.1790 hc        1 3FX      0.064200
     24 HAJ         3.3060    3.0850   -2.5330 hx        1 3FX      0.097700
     25 HAJA        1.7000    3.8170   -2.0100 hx        1 3FX      0.097700
     26 HAK         2.0920    2.3460   -0.0860 h1        1 3FX      0.084700
     27 HAKA        3.3110    1.1580   -0.6910 h1        1 3FX      0.084700
     28 HNAL        2.1910    2.3750   -4.5700 hn        1 3FX      0.455300
     29 HAM         0.5980    1.5750   -2.1050 h1        1 3FX      0.068700
     30 HAN         2.2330    5.2540   -3.8480 hx        1 3FX      0.100700
     31 HAE         3.7950    7.1530   -7.0980 hc        1 3FX      0.058200
     32 HAEA        3.5810    5.4390   -7.6350 hc        1 3FX      0.058200
     33 HAL2        0.7930    3.1530   -4.1320 hn        1 3FX      0.455300
     34 HAF         1.8230    7.0090   -5.6250 hc        1 3FX      0.060700
@<TRIPOS>BOND
     1    1   15 1   
     2    2   15 1   
     3    3   13 1   
     4    3   16 1   
     5    4   15 1   
     6    5    6 1   
     7    5    7 1   
     8    5   31 1   
     9    5   32 1   
    10    6    8 1   
    11    6   17 1   
    12    6   34 1   
    13    7    9 1   
    14    7   18 1   
    15    7   19 1   
    16    8   14 1   
    17    8   20 1   
    18    8   21 1   
    19    9   14 1   
    20    9   22 1   
    21    9   23 1   
    22   10   12 1   
    23   10   13 1   
    24   10   24 1   
    25   10   25 1   
    26   11   13 1   
    27   11   15 1   
    28   11   26 1   
    29   11   27 1   
    30   12   14 1   
    31   12   28 1   
    32   12   33 1   
    33   13   29 1   
    34   14   30 1   
@<TRIPOS>SUBSTRUCTURE
     1 3FX         1 TEMP              0 ****  ****    0 ROOT
