@<TRIPOS>MOLECULE
3FX
   34    34     1     0     0
SMALL
bcc


@<TRIPOS>ATOM
      1 OAA        -0.0020    0.6270    0.1760 o         1 3FX     -0.733533
      2 OAB         1.9520   -0.1300    1.3120 o         1 3FX     -0.733533
      3 OAC         2.2220    0.6770   -3.0270 oh        1 3FX     -0.684800
      4 OAD         1.4260   -0.9360   -0.8740 o         1 3FX     -0.733533
      5 CAE         3.4470    6.1370   -6.7700 c3        1 3FX     -0.088400
      6 CAF         1.9830    6.2120   -6.3920 c3        1 3FX     -0.077400
      7 CAG         4.2910    5.6650   -5.6050 c3        1 3FX     -0.077400
      8 CAH         1.4800    4.8870   -5.8550 c3        1 3FX     -0.097900
      9 CAI         3.8000    4.3370   -5.0640 c3        1 3FX     -0.097900
     10 CAJ         2.1900    3.0060   -2.6170 c3        1 3FX      0.096800
     11 CAK         2.2340    1.4250   -0.6990 c3        1 3FX     -0.325600
     12 NAL         1.8120    3.1860   -4.0510 n4        1 3FX     -0.760000
     13 CAM         1.7270    1.6280   -2.0950 c3        1 3FX      0.192100
     14 CAN         2.3290    4.4620   -4.6490 c3        1 3FX      0.120500
     15 SAO         1.2890    0.0790    0.1030 s6        1 3FX      1.443800
     16 HOAC        2.1600   -0.2050   -2.6100 ho        1 3FX      0.497000
     17 HAFA        1.8320    7.0120   -5.6200 hc        1 3FX      0.060700
     18 HAG         4.2740    6.4340   -4.7890 hc        1 3FX      0.060700
     19 HAGA        5.3580    5.5480   -5.9340 hc        1 3FX      0.060700
     20 HAH         1.5410    4.1080   -6.6600 hc        1 3FX      0.064200
     21 HAHA        0.4040    4.9940   -5.5560 hc        1 3FX      0.064200
     22 HAI         4.4280    4.0370   -4.1850 hc        1 3FX      0.064200
     23 HAIA        3.9090    3.5460   -5.8530 hc        1 3FX      0.064200
     24 HAJ         3.3100    3.0790   -2.5380 hx        1 3FX      0.097700
     25 HAJA        1.7100    3.8190   -2.0070 hx        1 3FX      0.097700
     26 HAK         3.3120    1.1490   -0.6980 h1        1 3FX      0.084700
     27 HAKA        2.1030    2.3440   -0.0860 h1        1 3FX      0.084700
     28 HNAL        0.7910    3.1600   -4.1260 hn        1 3FX      0.455300
     29 HAM         0.5960    1.5830   -2.0990 h1        1 3FX      0.068700
     30 HAN         2.2400    5.2540   -3.8460 hx        1 3FX      0.100700
     31 HAE         3.5770    5.4370   -7.6370 hc        1 3FX      0.058200
     32 HAEA        3.7990    7.1490   -7.1000 hc        1 3FX      0.058200
     33 HAL2        2.1840    2.3760   -4.5710 hn        1 3FX      0.455300
     34 HAF         1.3740    6.4920   -7.2920 hc        1 3FX      0.060700
@<TRIPOS>BOND
     1    1   15 1   
     2    2   15 1   
     3    3   13 1   
     4    3   16 1   
     5    4   15 1   
     6    5    6 1   
     7    5    7 1   
     8    5   31 1   
     9    5   32 1   
    10    6    8 1   
    11    6   17 1   
    12    6   34 1   
    13    7    9 1   
    14    7   18 1   
    15    7   19 1   
    16    8   14 1   
    17    8   20 1   
    18    8   21 1   
    19    9   14 1   
    20    9   22 1   
    21    9   23 1   
    22   10   12 1   
    23   10   13 1   
    24   10   24 1   
    25   10   25 1   
    26   11   13 1   
    27   11   15 1   
    28   11   26 1   
    29   11   27 1   
    30   12   14 1   
    31   12   28 1   
    32   12   33 1   
    33   13   29 1   
    34   14   30 1   
@<TRIPOS>SUBSTRUCTURE
     1 3FX         1 TEMP              0 ****  ****    0 ROOT
