@<TRIPOS>MOLECULE
3FX
   33    33     1     0     0
SMALL
bcc


@<TRIPOS>ATOM
      1 OAA        -0.0660   -2.9660    4.4640 o         1 3FX     -0.750533
      2 OAB        -2.2870   -2.7090    3.3650 o         1 3FX     -0.750533
      3 OAC         0.6590   -1.7780    1.8460 oh        1 3FX     -0.651800
      4 OAD        -1.7110   -1.7510    5.5900 o         1 3FX     -0.750533
      5 CAE         0.5610   -0.2510   -2.8680 c3        1 3FX     -0.074400
      6 CAF        -0.5860    0.4270   -3.0760 c3        1 3FX     -0.072900
      7 CAG         1.7420    0.3030   -2.5270 c3        1 3FX     -0.072900
      8 CAH        -0.7510    1.5610   -2.0820 c3        1 3FX     -0.088900
      9 CAI         1.5590    1.4390   -1.5370 c3        1 3FX     -0.088900
     10 CAJ         0.0670    0.4440    1.2230 c3        1 3FX      0.162800
     11 CAK        -0.6750   -0.5440    3.3860 c3        1 3FX     -0.333600
     12 NAL        -0.0380    0.2730   -0.2110 n3        1 3FX     -0.818200
     13 CAM        -0.3660   -0.8400    1.9230 c3        1 3FX      0.163100
     14 CAN         0.1570    1.3930   -0.7870 c3        1 3FX      0.179500
     15 SAO        -1.2230   -2.0320    4.1900 s6        1 3FX      1.430800
     16 HOAC        0.3470   -2.5290    1.4890 ho        1 3FX      0.448000
     17 HAE         0.7290   -0.7600   -3.6970 hc        1 3FX      0.032700
     18 HAEA        0.3610   -0.9080   -2.1690 hc        1 3FX      0.032700
     19 HAF        -0.5780    0.7960   -3.9840 hc        1 3FX      0.032200
     20 HAFA       -1.3410   -0.1890   -2.9870 hc        1 3FX      0.032200
     21 HAG         2.3130   -0.3830   -2.1250 hc        1 3FX      0.032200
     22 HAGA        2.1790    0.6510   -3.3390 hc        1 3FX      0.032200
     23 HAH        -1.6940    1.6020   -1.8040 hc        1 3FX      0.044700
     24 HAHA       -0.5140    2.4060   -2.5250 hc        1 3FX      0.044700
     25 HAI         2.2740    1.3920   -0.8700 hc        1 3FX      0.044700
     26 HAIA        1.6310    2.2890   -2.0170 hc        1 3FX      0.044700
     27 HAJ         0.9960    0.6490    1.4610 h1        1 3FX      0.045700
     28 HAJA       -0.5110    1.1810    1.5070 h1        1 3FX      0.045700
     29 HAK         0.1330   -0.2110    3.8290 h1        1 3FX      0.076700
     30 HAKA       -1.3770    0.1320    3.4390 h1        1 3FX      0.076700
     31 HNAL       -0.8740   -0.0380   -0.4220 hn        1 3FX      0.366800
     32 HAM        -1.1690   -1.1970    1.4850 h1        1 3FX      0.034700
     33 HAN         0.0510    2.1480   -0.1700 h1        1 3FX      0.049700
@<TRIPOS>BOND
     1    1   15 1   
     2    2   15 1   
     3    3   13 1   
     4    3   16 1   
     5    4   15 1   
     6    5    6 1   
     7    5    7 1   
     8    5   17 1   
     9    5   18 1   
    10    6    8 1   
    11    6   19 1   
    12    6   20 1   
    13    7    9 1   
    14    7   21 1   
    15    7   22 1   
    16    8   14 1   
    17    8   23 1   
    18    8   24 1   
    19    9   14 1   
    20    9   25 1   
    21    9   26 1   
    22   10   12 1   
    23   10   13 1   
    24   10   27 1   
    25   10   28 1   
    26   11   13 1   
    27   11   15 1   
    28   11   29 1   
    29   11   30 1   
    30   12   14 1   
    31   12   31 1   
    32   13   32 1   
    33   14   33 1   
@<TRIPOS>SUBSTRUCTURE
     1 3FX         1 TEMP              0 ****  ****    0 ROOT
