@<TRIPOS>MOLECULE
3FX
   34    34     1     0     0
SMALL
bcc


@<TRIPOS>ATOM
      1 OAA        -0.0080    0.6160    0.1650 o         1 3FX     -0.733533
      2 OAB         1.9440   -0.1200    1.3180 o         1 3FX     -0.733533
      3 OAC         2.2410    0.6780   -3.0210 oh        1 3FX     -0.684800
      4 OAD         1.4430   -0.9370   -0.8700 o         1 3FX     -0.733533
      5 CAE         3.4470    6.1390   -6.7690 c3        1 3FX     -0.088400
      6 CAF         1.9790    6.2020   -6.4020 c3        1 3FX     -0.077400
      7 CAG         4.2860    5.6770   -5.5960 c3        1 3FX     -0.077400
      8 CAH         1.4840    4.8730   -5.8660 c3        1 3FX     -0.097900
      9 CAI         3.8020    4.3460   -5.0560 c3        1 3FX     -0.097900
     10 CAJ         2.1850    3.0080   -2.6170 c3        1 3FX      0.096800
     11 CAK         2.2280    1.4320   -0.6950 c3        1 3FX     -0.325600
     12 NAL         1.8170    3.1800   -4.0550 ny        1 3FX     -0.760000
     13 CAM         1.7300    1.6260   -2.0950 c3        1 3FX      0.192100
     14 CAN         2.3270    4.4590   -4.6520 c3        1 3FX      0.120500
     15 SAO         1.2880    0.0800    0.1030 s6        1 3FX      1.443800
     16 HOAC        2.1840   -0.2040   -2.6020 ho        1 3FX      0.497000
     17 HAFA        1.3750    6.4740   -7.3070 hc        1 3FX      0.060700
     18 HAG         5.3560    5.5680   -5.9170 hc        1 3FX      0.060700
     19 HAGA        4.2560    6.4480   -4.7820 hc        1 3FX      0.060700
     20 HAH         0.4040    4.9720   -5.5750 hc        1 3FX      0.064200
     21 HAHA        1.5580    4.0930   -6.6680 hc        1 3FX      0.064200
     22 HAI         4.4260    4.0540   -4.1710 hc        1 3FX      0.064200
     23 HAIA        3.9240    3.5540   -5.8410 hc        1 3FX      0.064200
     24 HAJ         1.6930    3.8180   -2.0130 hx        1 3FX      0.097700
     25 HAJA        3.3030    3.0900   -2.5290 hx        1 3FX      0.097700
     26 HAK         2.0840    2.3520   -0.0850 h1        1 3FX      0.084700
     27 HAKA        3.3080    1.1660   -0.6850 h1        1 3FX      0.084700
     28 HNAL        0.7960    3.1460   -4.1370 hn        1 3FX      0.455300
     29 HAM         0.5990    1.5710   -2.1080 h1        1 3FX      0.068700
     30 HAN         2.2250    5.2530   -3.8520 hx        1 3FX      0.100700
     31 HAE         3.5900    5.4380   -7.6330 hc        1 3FX      0.058200
     32 HAEA        3.7930    7.1530   -7.0990 hc        1 3FX      0.058200
     33 HAL2        2.2000    2.3730   -4.5690 hn        1 3FX      0.455300
     34 HAF         1.8150    7.0030   -5.6340 hc        1 3FX      0.060700
@<TRIPOS>BOND
     1    1   15 1   
     2    2   15 1   
     3    3   13 1   
     4    3   16 1   
     5    4   15 1   
     6    5    6 1   
     7    5    7 1   
     8    5   31 1   
     9    5   32 1   
    10    6    8 1   
    11    6   17 1   
    12    6   34 1   
    13    7    9 1   
    14    7   18 1   
    15    7   19 1   
    16    8   14 1   
    17    8   20 1   
    18    8   21 1   
    19    9   14 1   
    20    9   22 1   
    21    9   23 1   
    22   10   12 1   
    23   10   13 1   
    24   10   24 1   
    25   10   25 1   
    26   11   13 1   
    27   11   15 1   
    28   11   26 1   
    29   11   27 1   
    30   12   14 1   
    31   12   28 1   
    32   12   33 1   
    33   13   29 1   
    34   14   30 1   
@<TRIPOS>SUBSTRUCTURE
     1 3FX         1 TEMP              0 ****  ****    0 ROOT
