@<TRIPOS>MOLECULE
3FX
   33    33     1     0     0
SMALL
bcc


@<TRIPOS>ATOM
      1 OAA        -3.9450   -0.4800    0.4370 o         1 3FX     -0.749867
      2 OAB        -4.1100    1.4380   -0.9470 o         1 3FX     -0.749867
      3 OAC        -0.1070    0.9830    0.6720 oh        1 3FX     -0.653800
      4 OAD        -2.8800    1.5390    1.0860 o         1 3FX     -0.749867
      5 CAE         5.3300    0.7170    0.2310 c3        1 3FX     -0.076400
      6 CAF         5.2700   -0.7540   -0.1250 c3        1 3FX     -0.071900
      7 CAG         4.1380    1.4620   -0.3330 c3        1 3FX     -0.071900
      8 CAH         3.9670   -1.3830    0.3210 c3        1 3FX     -0.094900
      9 CAI         2.8350    0.8330    0.1060 c3        1 3FX     -0.094900
     10 CAJ         0.3670   -0.8710   -0.7450 c3        1 3FX      0.159800
     11 CAK        -1.8700    0.2590   -0.8470 c3        1 3FX     -0.333600
     12 NAL         1.5190   -1.3260    0.0100 n3        1 3FX     -0.814200
     13 CAM        -0.7290   -0.1410    0.0600 c3        1 3FX      0.175100
     14 CAN         2.7700   -0.6470   -0.3070 c3        1 3FX      0.180500
     15 SAO        -3.3570    0.7330    0.0170 s6        1 3FX      1.431800
     16 HOAC       -0.8140    1.5070    1.0830 ho        1 3FX      0.450000
     17 HAF         5.3820   -0.8730   -1.2350 hc        1 3FX      0.030450
     18 HAFA        6.1280   -1.2920    0.3580 hc        1 3FX      0.030450
     19 HAG         4.1700    2.5310    0.0060 hc        1 3FX      0.030450
     20 HAGA        4.1960    1.4640   -1.4530 hc        1 3FX      0.030450
     21 HAH         3.9510   -2.4620    0.0200 hc        1 3FX      0.051200
     22 HAHA        3.8910   -1.3400    1.4380 hc        1 3FX      0.051200
     23 HAI         2.7260    0.9150    1.2190 hc        1 3FX      0.051200
     24 HAIA        1.9680    1.3860   -0.3450 hc        1 3FX      0.051200
     25 HAJ         0.6740   -0.2030   -1.5970 h1        1 3FX      0.041700
     26 HAJA       -0.1060   -1.7960   -1.1840 h1        1 3FX      0.041700
     27 HAK        -1.5470    1.1100   -1.4930 h1        1 3FX      0.076200
     28 HAKA       -2.1170   -0.5950   -1.5210 h1        1 3FX      0.076200
     29 HNAL        1.3360   -1.2410    0.9940 hn        1 3FX      0.359800
     30 HAM        -1.1200   -0.8210    0.8730 h1        1 3FX      0.038700
     31 HAN         2.8940   -0.6960   -1.4310 h1        1 3FX      0.043700
     32 HAE         5.3450    0.8290    1.3470 hc        1 3FX      0.029700
     33 HAEA        6.2790    1.1630   -0.1650 hc        1 3FX      0.029700
@<TRIPOS>BOND
     1    1   15 1   
     2    2   15 1   
     3    3   13 1   
     4    3   16 1   
     5    4   15 1   
     6    5    6 1   
     7    5    7 1   
     8    5   32 1   
     9    5   33 1   
    10    6    8 1   
    11    6   17 1   
    12    6   18 1   
    13    7    9 1   
    14    7   19 1   
    15    7   20 1   
    16    8   14 1   
    17    8   21 1   
    18    8   22 1   
    19    9   14 1   
    20    9   23 1   
    21    9   24 1   
    22   10   12 1   
    23   10   13 1   
    24   10   25 1   
    25   10   26 1   
    26   11   13 1   
    27   11   15 1   
    28   11   27 1   
    29   11   28 1   
    30   12   14 1   
    31   12   29 1   
    32   13   30 1   
    33   14   31 1   
@<TRIPOS>SUBSTRUCTURE
     1 3FX         1 TEMP              0 ****  ****    0 ROOT
