@<TRIPOS>MOLECULE
3FY
   66    62     1     0     0
SMALL
bcc


@<TRIPOS>ATOM
      1 CAA       154.2600  106.1490  -61.9150 c3        1 3FY     -0.199000
      2 CAB       152.2000  109.9740  -57.1200 c3        1 3FY     -0.038000
      3 CAC      -378.4430 -267.4770  160.0470 c3        1 3FY     -0.111000
      4 OAD       150.0360  104.1240  -57.8040 o         1 3FY     -0.447900
      5 OAE       149.4530  106.3120  -58.5210 o         1 3FY     -0.447900
      6 CAG       154.9530  109.2790  -60.6150 c1        1 3FY     -0.161000
      7 CAH       151.5400  109.4800  -60.6160 c2        1 3FY     -0.188000
      8 CAI       154.2500  108.3410  -60.8680 c1        1 3FY     -0.165000
      9 CAJ      -371.8910 -269.2220  160.0690 c2        1 3FY     -0.548000
     10 CAK       148.7150  102.7770  -61.4490 c1        1 3FY     -0.190000
     11 CAL       151.3570  108.1810  -60.3650 c2        1 3FY     -0.177000
     12 CAM      -370.5680 -269.3380  159.9090 c1        1 3FY      0.462000
     13 CAN       149.8130  102.3880  -61.7270 c1        1 3FY     -0.235000
     14 CAO      -376.5050 -269.9040  158.2400 c2        1 3FY     -0.026000
     15 CAP      -378.8350 -269.8760  160.1340 c1        1 3FY      0.525000
     16 CAQ       153.4900  105.5280  -55.9850 c2        1 3FY     -0.108000
     17 CAR       151.7870  107.4470  -57.2450 c1        1 3FY      0.318000
     18 CAS       152.9200  103.0840  -60.9580 c3        1 3FY     -0.079000
     19 CAT       152.4570  104.0770  -59.8690 c3        1 3FY     -0.169000
     20 CAU       151.3680  105.8550  -61.2080 c3        1 3FY     -0.065000
     21 CAV      -375.6180 -268.6380  160.1790 c2        1 3FY     -0.139000
     22 NAW      -377.2490 -270.7960  157.7310 n2        1 3FY     -0.172000
     23 NAX       152.5190  105.1740  -56.7350 n2        1 3FY     -0.092000
     24 CAY       153.4870  107.1980  -61.1920 c2        1 3FY      0.060000
     25 CAZ      -372.9280 -268.9340  159.1830 c1        1 3FY     -0.157000
     26 CBA       151.1060  101.8650  -62.1180 c3        1 3FY      0.032000
     27 CBB       152.1680  107.0900  -60.8870 c2        1 3FY     -0.118000
     28 CBC      -376.6650 -269.1170  159.4960 c2        1 3FY     -0.160000
     29 CBD       151.5940  106.0760  -57.3190 c2        1 3FY     -1.039000
     30 NBE       152.1640  101.8800  -61.1390 n3        1 3FY     -0.318000
     31 NBF       151.2500  104.8530  -60.1390 n3        1 3FY     -0.387000
     32 NBG       151.9570  108.5910  -57.0940 n2        1 3FY     -0.106000
     33 NBH      -378.0530 -268.8870  159.9310 n3        1 3FY     -0.225000
     34 SBI       150.3720  105.4190  -58.0450 s4        1 3FY      2.105800
     35 HAA       154.4690  105.2720  -61.2530 hc        1 3FY      0.101667
     36 HAAA      155.2430  106.5520  -62.2680 hc        1 3FY      0.101667
     37 HAAB      153.6950  105.7930  -62.8130 hc        1 3FY      0.101667
     38 HAB       152.0970  110.3430  -58.1820 h1        1 3FY      0.147000
     39 HABA      153.2440  110.1660  -56.7430 h1        1 3FY      0.147000
     40 HABB      151.4500  110.4900  -56.4550 h1        1 3FY      0.147000
     41 HAC      -378.3400 -266.9950  159.0360 h1        1 3FY      0.147333
     42 HACA     -379.5050 -267.3970  160.4050 h1        1 3FY      0.147333
     43 HACB     -377.7530 -266.9770  160.7790 h1        1 3FY      0.147333
     44 HAG       155.5840  110.1080  -60.4080 ha        1 3FY      0.238000
     45 HAH       150.8420  110.2420  -60.2420 ha        1 3FY      0.129000
     46 HAI       152.3640  109.8670  -61.2330 ha        1 3FY      0.129000
     47 HAJ      -372.2320 -269.3920  161.1270 ha        1 3FY      0.228000
     48 HAK       147.7310  103.0990  -61.2120 ha        1 3FY      0.233000
     49 HAL       150.4650  107.8640  -59.7900 ha        1 3FY      0.128000
     50 HAM       150.9600  100.7770  -62.4060 h1        1 3FY      0.123500
     51 HAN       151.4530  102.4150  -63.0440 h1        1 3FY      0.123500
     52 HAO      -375.5540 -269.6540  157.7120 h4        1 3FY      0.208000
     53 HAP      -378.1050 -271.0450  158.1860 hn        1 3FY      0.142000
     54 HAQ       154.1300  104.7130  -55.5900 h4        1 3FY      0.141500
     55 HAR       153.7660  106.5530  -55.6800 h4        1 3FY      0.141500
     56 HAS       152.2660  103.4950  -58.9190 h1        1 3FY      0.119500
     57 HASA      153.0160  103.6220  -61.9430 h1        1 3FY      0.108000
     58 HAT       153.9580  102.7600  -60.6450 h1        1 3FY      0.108000
     59 HATA      153.3000  104.7990  -59.6740 h1        1 3FY      0.119500
     60 HAU       151.7960  105.3730  -62.1360 h1        1 3FY      0.118500
     61 HAUA      150.3130  106.1780  -61.4600 h1        1 3FY      0.118500
     62 HAV       151.8880  101.4630  -60.2720 hn        1 3FY      0.187000
     63 HAVA     -375.6900 -268.0720  161.1180 ha        1 3FY      0.212000
     64 HBE1     -374.5340 -268.8060  159.7880 ha        1 3FY      0.212000
     65 HBF1      150.5240  104.2030  -60.4380 hn        1 3FY      0.203000
     66 BRAF     -372.7200 -268.6150  157.4040 br        1 3FY      0.106000
@<TRIPOS>BOND
     1    1   24 1   
     2    1   35 1   
     3    1   36 1   
     4    1   37 1   
     5    2   32 1   
     6    2   38 1   
     7    2   39 1   
     8    2   40 1   
     9    3   33 1   
    10    3   41 1   
    11    3   42 1   
    12    3   43 1   
    13    4   34 1   
    14    5   34 1   
    15    6    8 1   
    16    6   44 1   
    17    7   11 1   
    18    7   45 1   
    19    7   46 1   
    20    8   24 1   
    21    9   12 1   
    22    9   25 1   
    23    9   47 1   
    24   10   13 1   
    25   10   48 1   
    26   11   27 1   
    27   11   49 1   
    28   13   26 1   
    29   14   22 1   
    30   14   28 1   
    31   14   52 1   
    32   15   33 1   
    33   16   23 1   
    34   16   54 1   
    35   16   55 1   
    36   17   29 1   
    37   17   32 1   
    38   18   19 1   
    39   18   30 1   
    40   18   57 1   
    41   18   58 1   
    42   19   31 1   
    43   19   56 1   
    44   19   59 1   
    45   20   27 1   
    46   20   31 1   
    47   20   60 1   
    48   20   61 1   
    49   21   28 1   
    50   21   63 1   
    51   21   64 1   
    52   22   53 1   
    53   23   29 1   
    54   24   27 1   
    55   25   66 1   
    56   26   30 1   
    57   26   50 1   
    58   26   51 1   
    59   28   33 1   
    60   29   34 1   
    61   30   62 1   
    62   31   65 1   
@<TRIPOS>SUBSTRUCTURE
     1 3FY         1 TEMP              0 ****  ****    0 ROOT
