@<TRIPOS>MOLECULE
3FY
   65    64     1     0     0
SMALL
bcc


@<TRIPOS>ATOM
      1 CAA         2.0630    1.7380    2.7920 c3        1 3FY     -0.183000
      2 CAB         6.0590   -3.1720    1.7810 c3        1 3FY     -0.085000
      3 CAC        -4.5990   -7.8050    4.7670 c3        1 3FY     -0.083000
      4 OAD         0.3390   -4.0690    3.6160 o         1 3FY     -0.974000
      5 OAE         2.4620   -3.6240    4.5700 o         1 3FY     -0.974000
      6 CAG         5.1580    2.0520    1.9600 c3        1 3FY     -0.156000
      7 CAH         5.1740   -0.2550    3.1300 c1        1 3FY      0.079000
      8 CAI         4.5130    1.0040    2.7510 c2        1 3FY     -0.193000
      9 CAJ        -1.4730   -1.6920    5.3480 c2        1 3FY     -0.176000
     10 CAK        -2.3260    2.1320    1.0590 c1        1 3FY     -0.222000
     11 CAL         4.3450   -0.8540    4.1860 c2        1 3FY     -0.250000
     12 CAM        -1.4020   -1.2210    4.0830 c2        1 3FY     -0.109000
     13 CAN        -2.1130    1.2500    0.2800 c1        1 3FY     -0.222000
     14 CAO        -2.1420   -5.0510    4.4180 c2        1 3FY      0.168000
     15 CAP        -2.5200   -7.1540    3.5620 c1        1 3FY      0.140000
     16 CAQ         1.7390   -3.2900   -0.2130 c2        1 3FY     -0.144000
     17 CAR         3.5830   -3.3780    1.9750 c1        1 3FY      0.241000
     18 CAS        -4.9240   -0.7360    2.9290 c3        1 3FY     -0.155000
     19 CAT        -0.1370   -1.1420    3.2680 c3        1 3FY      0.021000
     20 CAU         1.8470   -0.8210    4.6800 c3        1 3FY      0.016000
     21 CAV        -4.1380   -4.9730    5.9490 c2        1 3FY     -0.001000
     22 NAW        -1.6750   -5.9710    3.5710 n7        1 3FY     -0.171000
     23 NAX         1.3620   -3.1620    1.0040 n2        1 3FY     -0.099000
     24 CAY         3.1990    0.8890    3.1460 c2        1 3FY     -0.041000
     25 CAZ        -2.6250   -1.9980    6.0840 c1        1 3FY     -0.168000
     26 CBA        -2.5890   -0.7810    3.3330 c2        1 3FY     -0.056000
     27 CBB         3.0940   -0.3140    4.0440 c2        1 3FY     -0.086000
     28 CBC        -3.3760   -5.6020    5.0390 c2        1 3FY     -0.171000
     29 CBD         2.2320   -3.2720    2.1000 c2        1 3FY     -0.934000
     30 NBE        -3.7730   -1.1830    3.6440 n2        1 3FY     -0.212000
     31 NBF         1.0500   -1.6990    3.8540 n3        1 3FY     -0.820000
     32 NBG         4.7350   -3.6590    1.8550 n2        1 3FY     -0.126000
     33 NBH        -3.5260   -6.9120    4.4430 n3        1 3FY     -0.200000
     34 SBI         1.5070   -3.2540    3.5960 s6        1 3FY      2.906000
     35 HAA         1.3630    1.8470    3.6600 hc        1 3FY      0.098667
     36 HAAA        1.4950    1.2920    1.9350 hc        1 3FY      0.098667
     37 HAAB        2.4070    2.7590    2.4850 hc        1 3FY      0.098667
     38 HAB         6.1320   -2.1060    2.1570 h1        1 3FY      0.138000
     39 HABA        6.7050   -3.8450    2.4090 h1        1 3FY      0.138000
     40 HABB        6.3960   -3.2250    0.7090 h1        1 3FY      0.138000
     41 HAC        -4.4820   -8.7480    4.1670 h1        1 3FY      0.117667
     42 HACA       -4.5720   -8.0530    5.8620 h1        1 3FY      0.117667
     43 HACB       -5.5830   -7.3240    4.5190 h1        1 3FY      0.117667
     44 HAG         4.5460    2.9880    1.9500 hc        1 3FY      0.094333
     45 HAH         6.1670    2.2890    2.3840 hc        1 3FY      0.094333
     46 HAI         5.3000    1.7110    0.9020 hc        1 3FY      0.094333
     47 HAJ        -0.5500   -2.0030    5.8900 ha        1 3FY      0.184000
     48 HAK        -2.5180    2.9250    1.7380 ha        1 3FY      0.223500
     49 HAL         4.6550   -1.6690    4.8410 ha        1 3FY      0.185000
     50 HAM         0.0380   -0.0500    3.0230 h1        1 3FY      0.118000
     51 HAN        -2.3670   -0.0830    2.4900 h4        1 3FY      0.132000
     52 HAO        -1.6950   -4.0560    4.6220 h4        1 3FY      0.261000
     53 HAP        -0.8350   -5.8720    3.0270 hn        1 3FY      0.326000
     54 HAQ         0.9630   -3.1840   -0.9920 h4        1 3FY      0.125000
     55 HAR         2.7610   -3.5010   -0.5750 h4        1 3FY      0.125000
     56 HAS        -5.4510   -1.6390    2.5180 h1        1 3FY      0.096667
     57 HASA       -4.7150   -0.0260    2.0830 h1        1 3FY      0.096667
     58 HAT        -5.6110   -0.2280    3.6600 h1        1 3FY      0.096667
     59 HATA       -0.3410   -1.6740    2.2890 h1        1 3FY      0.118000
     60 HAU         1.2240    0.0630    5.0050 h1        1 3FY      0.118500
     61 HAUA        2.1430   -1.3940    5.6140 h1        1 3FY      0.118500
     62 HAV        -3.8630   -3.9530    6.2940 ha        1 3FY      0.181000
     63 HAVA       -5.0450   -5.4250    6.3810 ha        1 3FY      0.181000
     64 HBF1       -1.9270    0.4800   -0.4270 ha        1 3FY      0.223500
     65 BrAF       -3.7420   -0.9500    6.9950 br        1 3FY      0.181000
@<TRIPOS>BOND
     1    1   24 1   
     2    1   35 1   
     3    1   36 1   
     4    1   37 1   
     5    2   32 1   
     6    2   38 1   
     7    2   39 1   
     8    2   40 1   
     9    3   33 1   
    10    3   41 1   
    11    3   42 1   
    12    3   43 1   
    13    4   34 1   
    14    5   34 1   
    15    6    8 1   
    16    6   44 1   
    17    6   45 1   
    18    6   46 1   
    19    7    8 1   
    20    7   11 1   
    21    8   24 1   
    22    9   12 1   
    23    9   25 1   
    24    9   47 1   
    25   10   13 1   
    26   10   48 1   
    27   11   27 1   
    28   11   49 1   
    29   12   19 1   
    30   12   26 1   
    31   13   64 1   
    32   14   22 1   
    33   14   28 1   
    34   14   52 1   
    35   15   22 1   
    36   15   33 1   
    37   16   23 1   
    38   16   54 1   
    39   16   55 1   
    40   17   29 1   
    41   17   32 1   
    42   18   30 1   
    43   18   56 1   
    44   18   57 1   
    45   18   58 1   
    46   19   31 1   
    47   19   50 1   
    48   19   59 1   
    49   20   27 1   
    50   20   31 1   
    51   20   60 1   
    52   20   61 1   
    53   21   28 1   
    54   21   62 1   
    55   21   63 1   
    56   22   53 1   
    57   23   29 1   
    58   24   27 1   
    59   25   65 1   
    60   26   30 1   
    61   26   51 1   
    62   28   33 1   
    63   29   34 1   
    64   31   34 1   
@<TRIPOS>SUBSTRUCTURE
     1 3FY         1 TEMP              0 ****  ****    0 ROOT
