@<TRIPOS>MOLECULE
3FY
   64    67     1     0     0
SMALL
bcc


@<TRIPOS>ATOM
      1 CAA         2.7490   -1.1160    3.6140 c3        1 3FY     -0.057800
      2 CAB         4.6450   -1.3620   -4.3780 c3        1 3FY      0.015600
      3 CAC         0.4590    5.9910    1.3970 c3        1 3FY      0.025600
      4 OAD        -0.3190    0.2060   -1.6720 o         1 3FY     -0.658300
      5 OAE         0.1240   -2.1300   -1.4250 o         1 3FY     -0.658300
      6 CAG         4.8210   -3.5660    1.6280 ca        1 3FY     -0.123000
      7 CAH         3.9880   -3.8410    0.5440 ca        1 3FY     -0.137000
      8 CAI         4.4080   -2.6720    2.6120 ca        1 3FY     -0.135000
      9 CAJ        -4.0140    0.7330    0.0650 ca        1 3FY     -0.073500
     10 CAK        -3.3790   -0.9260    1.6940 ca        1 3FY     -0.073500
     11 CAL         2.7490   -3.2130    0.4480 ca        1 3FY     -0.117000
     12 CAM        -2.8950    1.4890    0.3910 ca        1 3FY     -0.175000
     13 CAN        -2.2580   -0.1780    2.0310 ca        1 3FY     -0.175000
     14 CAO        -0.3050    3.3340   -0.9650 cc        1 3FY      0.314200
     15 CAP         0.6670    5.2960   -1.0210 cd        1 3FY      0.386400
     16 CAQ         3.9790    0.2180   -2.5140 cc        1 3FY      0.395400
     17 CAR         2.5480   -1.4420   -2.9900 cc        1 3FY     -0.094600
     18 CAS         0.3650    1.2720    2.0880 c3        1 3FY      0.210800
     19 CAT         1.1910    0.7320    0.8950 c3        1 3FY      0.187800
     20 CAU         0.9590   -1.6960    1.2900 c3        1 3FY      0.258100
     21 CAV        -0.9750    3.2830    1.5960 c3        1 3FY      0.297100
     22 NAW         0.3280    4.2480   -1.8020 nc        1 3FY     -0.664000
     23 NAX         2.9500    0.3930   -1.6730 nd        1 3FY     -0.591000
     24 CAY         3.1620   -2.0350    2.5260 ca        1 3FY     -0.059300
     25 CAZ        -4.2700   -0.4750    0.7180 ca        1 3FY     -0.058900
     26 CBA        -1.9940    1.0590    1.3950 ca        1 3FY      0.182600
     27 CBB         2.3310   -2.3050    1.4290 ca        1 3FY     -0.111300
     28 CBC        -0.3530    3.8320    0.3550 cd        1 3FY     -0.273900
     29 CBD         2.0320   -0.6330   -1.9500 cd        1 3FY     -0.009800
     30 NBE        -0.9200    1.8620    1.8210 nh        1 3FY     -0.684000
     31 NBF         0.8480   -0.5720    0.3970 n3        1 3FY     -0.783500
     32 NBG         3.7740   -0.9060   -3.3460 na        1 3FY     -0.197900
     33 NBH         0.2770    5.0920    0.3090 na        1 3FY     -0.207900
     34 SBI         0.5430   -0.7960   -1.1920 sy        1 3FY      1.465800
     35 HAA         3.5920   -0.9230    4.3220 hc        1 3FY      0.044367
     36 HAAA        2.4090   -0.1340    3.1970 hc        1 3FY      0.044367
     37 HAAB        1.9010   -1.5620    4.1940 hc        1 3FY      0.044367
     38 HAB         4.3890   -2.4190   -4.6550 h1        1 3FY      0.061367
     39 HABA        4.5410   -0.7100   -5.2880 h1        1 3FY      0.061367
     40 HABB        5.7090   -1.3210   -4.0210 h1        1 3FY      0.061367
     41 HAC        -0.5310    6.2310    1.8730 h1        1 3FY      0.050033
     42 HACA        1.1280    5.5320    2.1750 h1        1 3FY      0.050033
     43 HACB        0.9280    6.9410    1.0270 h1        1 3FY      0.050033
     44 HAG         5.8010   -4.0590    1.7100 ha        1 3FY      0.129000
     45 HAH         4.3050   -4.5560   -0.2290 ha        1 3FY      0.129000
     46 HAI         5.0660   -2.4630    3.4690 ha        1 3FY      0.130000
     47 HAJ        -4.6920    1.0940   -0.7250 ha        1 3FY      0.144000
     48 HAK        -3.5580   -1.8830    2.2100 ha        1 3FY      0.144000
     49 HAL         2.0810   -3.4340   -0.4020 ha        1 3FY      0.149000
     50 HAM        -2.7000    2.4190   -0.1680 ha        1 3FY      0.141000
     51 HAN        -1.5830   -0.5630    2.8090 ha        1 3FY      0.141000
     52 HAO        -0.6760    2.3740   -1.3460 h4        1 3FY      0.086100
     53 HAP         1.1810    6.2040   -1.3500 h5        1 3FY      0.056100
     54 HAQ         4.8770    0.8410   -2.5800 h5        1 3FY      0.069100
     55 HAR         2.1170   -2.3290   -3.4600 h4        1 3FY      0.200000
     56 HAS         0.2190    0.4600    2.8550 h1        1 3FY      0.050200
     57 HASA        1.0090    2.0690    2.5650 h1        1 3FY      0.050200
     58 HAT         1.1000    1.4720    0.0420 h1        1 3FY      0.071200
     59 HATA        2.2700    0.7250    1.2330 h1        1 3FY      0.071200
     60 HAU         0.2610   -2.5060    0.9100 h1        1 3FY      0.068700
     61 HAUA        0.5870   -1.3990    2.3120 h1        1 3FY      0.068700
     62 HAV        -0.4800    3.7650    2.4950 h1        1 3FY      0.056200
     63 HAVA       -2.0610    3.6000    1.6030 h1        1 3FY      0.056200
     64 BRAF       -5.7870   -1.4820    0.2860 br        1 3FY     -0.098100
@<TRIPOS>BOND
     1    1   24 1   
     2    1   35 1   
     3    1   36 1   
     4    1   37 1   
     5    2   32 1   
     6    2   38 1   
     7    2   39 1   
     8    2   40 1   
     9    3   33 1   
    10    3   41 1   
    11    3   42 1   
    12    3   43 1   
    13    4   34 2   
    14    5   34 2   
    15    6    7 ar  
    16    6    8 ar  
    17    6   44 1   
    18    7   11 ar  
    19    7   45 1   
    20    8   24 ar  
    21    8   46 1   
    22    9   12 ar  
    23    9   25 ar  
    24    9   47 1   
    25   10   13 ar  
    26   10   25 ar  
    27   10   48 1   
    28   11   27 ar  
    29   11   49 1   
    30   12   26 ar  
    31   12   50 1   
    32   13   26 ar  
    33   13   51 1   
    34   14   22 1   
    35   14   28 2   
    36   14   52 1   
    37   15   22 2   
    38   15   33 1   
    39   15   53 1   
    40   16   23 2   
    41   16   32 1   
    42   16   54 1   
    43   17   29 2   
    44   17   32 1   
    45   17   55 1   
    46   18   19 1   
    47   18   30 1   
    48   18   56 1   
    49   18   57 1   
    50   19   31 1   
    51   19   58 1   
    52   19   59 1   
    53   20   27 1   
    54   20   31 1   
    55   20   60 1   
    56   20   61 1   
    57   21   28 1   
    58   21   30 1   
    59   21   62 1   
    60   21   63 1   
    61   23   29 1   
    62   24   27 ar  
    63   25   64 1   
    64   26   30 1   
    65   28   33 1   
    66   29   34 1   
    67   31   34 1   
@<TRIPOS>SUBSTRUCTURE
     1 3FY         1 TEMP              0 ****  ****    0 ROOT
