@<TRIPOS>MOLECULE
3FY
   64    56     1     0     0
SMALL
bcc


@<TRIPOS>ATOM
      1 CAA         0.8050    0.7870   -4.7690 c3        1 3FY     -0.094000
      2 CAB         6.1410   -2.2420    2.6230 c3        1 3FY      0.014600
      3 CAC        -6.2630   -2.2840    0.1380 c3        1 3FY      0.191100
      4 OAD         1.4380    0.1790    2.1610 o         1 3FY     -0.544900
      5 OAE         2.8820    1.6520    1.3710 o         1 3FY     -0.544900
      6 BRAF       -2.8550    1.2880    6.6430 br        1 3FY     -0.184800
      7 CAG         4.1770    1.2800   -4.7000 c1        1 3FY     -0.068000
      8 CAH         4.6140    1.5580   -3.4090 c1        1 3FY     -0.068000
      9 CAI         2.8720    0.8970   -4.9180 c1        1 3FY     -0.068000
     10 CAJ        -2.8860   -0.4150    4.3590 c1        1 3FY     -0.068000
     11 CAK        -2.1780    1.8480    3.9330 c1        1 3FY     -0.024500
     12 CAL         3.7330    1.4490   -2.3390 c1        1 3FY     -0.068000
     13 CAM        -2.7680   -0.7070    3.0050 c1        1 3FY     -0.068000
     14 CAN        -2.0590    1.5570    2.5750 c1        1 3FY     -0.104500
     15 CAO        -4.7560    0.9150   -0.4550 c1        1 3FY      0.116500
     16 CAP        -6.5910   -0.2260   -0.2450 cg        1 3FY     -0.045000
     17 CAQ         4.3120   -2.8410    1.0660 c1        1 3FY      0.124400
     18 CAR         4.4980   -0.7080    1.5610 c1        1 3FY     -0.062300
     19 CAS        -1.2040    0.7770   -0.1180 c3        1 3FY      0.148800
     20 CAT         0.0120   -0.1400   -0.4860 c3        1 3FY      0.215800
     21 CAU         1.6200    1.7030   -1.3390 c3        1 3FY      0.226900
     22 CAV        -3.0110   -0.9100   -0.0160 c3        1 3FY      0.267000
     23 NAW        -6.0740    0.9880   -0.5700 ne        1 3FY     -0.414400
     24 NAX         3.3130   -2.1830    0.4270 ne        1 3FY     -0.330400
     25 CAY         1.9870    0.7880   -3.8420 c1        1 3FY     -0.028100
     26 CAZ        -2.5920    0.8620    4.8230 c1        1 3FY      0.042800
     27 CBA        -2.3530    0.2830    2.1120 c1        1 3FY      0.119800
     28 CBB         2.4200    1.0640   -2.5590 c1        1 3FY     -0.069100
     29 CBC        -4.4350   -0.3630   -0.0510 c2        1 3FY     -0.147300
     30 CBD         3.4200   -0.8670    0.7270 cg        1 3FY     -0.807000
     31 NBE        -2.1700    0.0150    0.6440 n3        1 3FY     -0.620200
     32 NBF         1.2900    0.6410   -0.3480 n3        1 3FY     -0.783300
     33 NBG         5.0450   -1.9180    1.7690 n3        1 3FY     -0.079400
     34 NBH        -5.5650   -1.0480    0.0730 nh        1 3FY     -0.383200
     35 SBI         2.2370    0.4370    0.9990 s4        1 3FY      1.740700
     36 HAA         0.8940    1.5070   -5.4030 hc        1 3FY      0.047367
     37 HAAA        0.7670   -0.0500   -5.2400 hc        1 3FY      0.047367
     38 HAAB        0.0030    0.9050   -4.2640 hc        1 3FY      0.047367
     39 HAB         6.7710   -2.8230    2.1400 h1        1 3FY      0.062367
     40 HABA        6.5930   -1.4280    2.8920 h1        1 3FY      0.062367
     41 HABB        5.8080   -2.7110    3.4220 h1        1 3FY      0.062367
     42 HAC        -5.5960   -3.0440    0.1900 h1        1 3FY      0.058700
     43 HACA       -6.8200   -2.3910   -0.6690 h1        1 3FY      0.058700
     44 HACB       -6.8470   -2.2960    0.9500 h1        1 3FY      0.058700
     45 HAG         4.7850    1.3550   -5.4390 ha        1 3FY      0.076833
     46 HAH         5.5340    1.8280   -3.2560 ha        1 3FY      0.076833
     47 HAI         2.5570    0.6980   -5.8500 ha        1 3FY      0.076833
     48 HAJ        -3.1810   -1.1190    4.9960 ha        1 3FY      0.076833
     49 HAK        -1.9710    2.7490    4.2620 ha        1 3FY      0.091500
     50 HAL         4.0460    1.6480   -1.4130 ha        1 3FY      0.076833
     51 HAM        -2.9810   -1.6290    2.6700 ha        1 3FY      0.076833
     52 HAN        -1.7690    2.2480    1.9510 ha        1 3FY      0.092500
     53 HAO        -4.1260    1.6350   -0.6260 DU        1 3FY      0.196250
     54 HAP        -7.5310   -0.4620   -0.2420 DU        1 3FY      0.196250
     55 HAQ         4.4730   -3.7680    1.0350 DU        1 3FY      0.196250
     56 HAR         4.8000    0.1050    1.9250 DU        1 3FY      0.196250
     57 HAS        -1.6350    1.1130   -0.9610 h1        1 3FY      0.064700
     58 HASA       -0.8910    1.5390    0.4170 h1        1 3FY      0.064700
     59 HAT        -0.0800   -0.4390   -1.3800 h1        1 3FY      0.068200
     60 HATA        0.0350   -0.9270    0.1270 h1        1 3FY      0.068200
     61 HAU         0.8210    2.0950   -1.6570 h1        1 3FY      0.069200
     62 HAUA        2.1630    2.3790   -0.9180 h1        1 3FY      0.069200
     63 HAV        -2.9990   -1.7790    0.4710 h1        1 3FY      0.065700
     64 HAVA       -2.6770   -1.0510   -0.9760 h1        1 3FY      0.065700
@<TRIPOS>BOND
     1    1   25 1   
     2    1   36 1   
     3    1   37 1   
     4    1   38 1   
     5    2   33 1   
     6    2   39 1   
     7    2   40 1   
     8    2   41 1   
     9    3   34 1   
    10    3   42 1   
    11    3   43 1   
    12    3   44 1   
    13    4   35 1   
    14    5   35 1   
    15    6   26 1   
    16    7    9 3   
    17    7   45 1   
    18    8   12 3   
    19    8   46 1   
    20    9   47 1   
    21   10   13 3   
    22   10   48 1   
    23   11   26 3   
    24   11   49 1   
    25   12   50 1   
    26   13   51 1   
    27   14   27 3   
    28   14   52 1   
    29   15   23 2   
    30   15   29 2   
    31   16   23 1   
    32   16   34 3   
    33   17   24 2   
    34   17   33 2   
    35   18   30 3   
    36   18   33 1   
    37   19   20 1   
    38   19   31 1   
    39   19   57 1   
    40   19   58 1   
    41   20   32 1   
    42   20   59 1   
    43   20   60 1   
    44   21   28 1   
    45   21   32 1   
    46   21   61 1   
    47   21   62 1   
    48   22   29 1   
    49   22   31 1   
    50   22   63 1   
    51   22   64 1   
    52   24   30 1   
    53   25   28 3   
    54   27   31 1   
    55   29   34 1   
    56   32   35 1   
@<TRIPOS>SUBSTRUCTURE
     1 3FY         1 TEMP              0 ****  ****    0 ROOT
