@<TRIPOS>MOLECULE
3FZ
   19    18     1     0     0
SMALL
bcc


@<TRIPOS>ATOM
      1 O          -0.4970   -0.9690   -0.5410 oh        1 3FZ     -0.175000
      2 N1          7.8980   -0.7810    4.2150 n3        1 3FZ     -0.420000
      3 C2          3.1600    0.3810    2.2440 c2        1 3FZ     -0.241000
      4 N2          5.6300    0.2250    2.8510 n2        1 3FZ     -0.244000
      5 C3          2.3140    1.3360    2.8980 c2        1 3FZ     -0.056000
      6 C4          1.0020    1.4510    2.5180 c2        1 3FZ     -0.166000
      7 C5          0.4530    0.6520    1.4890 c1        1 3FZ     -0.224000
      8 C6          1.2990   -0.2820    0.8510 c2        1 3FZ     -0.278000
      9 C7          0.7470   -1.1260   -0.2210 c1        1 3FZ      0.033000
     10 C8          2.6260   -0.4280    1.2010 c2        1 3FZ      0.050000
     11 HN1         8.3540   -0.0440    4.7120 hn        1 3FZ      0.159000
     12 HN1A        8.5320   -1.1700    3.5470 hn        1 3FZ      0.159000
     13 HN2         6.4600   -0.1030    3.3260 hn        1 3FZ      0.373000
     14 H3          7.6220   -1.4930    4.8600 hn        1 3FZ      0.159000
     15 H4          2.7460    1.9580    3.6960 ha        1 3FZ      0.112000
     16 H5          0.3470    2.1810    3.0170 ha        1 3FZ      0.134000
     17 H7         -0.9800   -0.2790   -0.0240 ho        1 3FZ      0.207000
     18 H8          3.2730   -1.1580    0.6900 ha        1 3FZ      0.132000
     19 C1          4.4740    0.2480    2.6200 c1        1 3FZ      0.286000
@<TRIPOS>BOND
     1    1    9 1   
     2    1   17 1   
     3    2   11 1   
     4    2   12 1   
     5    2   14 1   
     6    3    5 1   
     7    3   10 1   
     8    3   19 1   
     9    4   13 1   
    10    4   19 1   
    11    5    6 1   
    12    5   15 1   
    13    6    7 1   
    14    6   16 1   
    15    7    8 1   
    16    8    9 1   
    17    8   10 1   
    18   10   18 1   
@<TRIPOS>SUBSTRUCTURE
     1 3FZ         1 TEMP              0 ****  ****    0 ROOT
