@<TRIPOS>MOLECULE
3FZ
   19    15     1     0     0
SMALL
bcc


@<TRIPOS>ATOM
      1 O          -1.7870   -0.1380   -3.2100 o         1 3FZ     -0.285000
      2 C1          2.0340   -0.1340    0.3120 c1        1 3FZ      0.123000
      3 N1          2.8550    1.0190    0.4040 n2        1 3FZ     -0.394000
      4 C2          0.5280    0.0080    0.2950 c2        1 3FZ     -0.072000
      5 N2          2.5790   -1.3200    0.2410 n1        1 3FZ     -0.286000
      6 C3         -0.1340   -0.0060    1.5130 c1        1 3FZ     -0.078000
      7 C4         -1.5180   -0.0650    1.5490 c1        1 3FZ     -0.114500
      8 C5         -2.2410   -0.1100    0.3670 c1        1 3FZ     -0.114500
      9 C6         -1.5790   -0.0960   -0.8510 c1        1 3FZ     -0.183000
     10 C7         -2.3690   -0.1210   -2.1410 c2        1 3FZ      0.224000
     11 C8         -0.1950   -0.0370   -0.8870 c2        1 3FZ     -0.032000
     12 HN1         2.4770    1.8520    0.3870 hn        1 3FZ      0.193500
     13 HN1A        3.7610    0.9300    0.4850 hn        1 3FZ      0.193500
     14 HN2         3.4890   -1.4060    0.2510 DU        1 3FZ      0.141000
     15 H3          0.3750    0.0260    2.3450 ha        1 3FZ      0.148000
     16 H4         -1.9840   -0.0750    2.4060 ha        1 3FZ      0.138000
     17 H5         -3.2160   -0.1520    0.3920 ha        1 3FZ      0.138000
     18 H7         -3.3460   -0.1470   -2.1160 h4        1 3FZ      0.091000
     19 H8          0.2710   -0.0270   -1.7440 ha        1 3FZ      0.169000
@<TRIPOS>BOND
     1    1   10 1   
     2    2    4 1   
     3    2    5 1   
     4    3   12 1   
     5    3   13 1   
     6    4    6 1   
     7    4   11 1   
     8    6   15 1   
     9    7    8 1   
    10    7   16 1   
    11    8   17 1   
    12    9   10 1   
    13    9   11 1   
    14   10   18 1   
    15   11   19 1   
@<TRIPOS>SUBSTRUCTURE
     1 3FZ         1 TEMP              0 ****  ****    0 ROOT
