@<TRIPOS>MOLECULE
3FZ
   20    28     1     0     0
SMALL
bcc


@<TRIPOS>ATOM
      1 O           0.0000    0.0000    0.0000 oh        1 3FZ     -0.103000
      2 N1          6.1940    0.0000    3.6950 nz        1 3FZ      0.420000
      3 C2          4.0320    0.0010    2.4850 c3        1 3FZ     -0.227000
      4 N2          6.1730    0.0070    1.3740 n2        1 3FZ      0.023000
      5 C3          3.3240    0.0000    3.6880 c3        1 3FZ     -0.174000
      6 C4          1.9430   -0.0000    3.6820 c3        1 3FZ     -0.123000
      7 C5          1.2530    0.0010    2.4870 c2        1 3FZ     -0.202000
      8 C6          1.9490    0.0000    1.2730 DU        1 3FZ     -0.541000
      9 C7          1.2130    0.0000    0.0000 c2        1 3FZ      0.177000
     10 C8          3.3450    0.0060    1.2750 c2        1 3FZ      0.000000
     11 HN1         5.8580    0.0100    2.7520 DU        1 3FZ     -0.394000
     12 HN1A        6.3810    0.8630    4.1670 hn        1 3FZ     -0.186000
     13 HN2         6.2800   -0.2970    2.3210 DU        1 3FZ      0.146000
     14 H3          4.2520    0.0010    3.1290 DU        1 3FZ      0.428000
     15 H4          2.9140   -0.0000    4.1630 DU        1 3FZ      0.222000
     16 H5          1.3260    0.0000    3.5680 DU        1 3FZ      0.215000
     17 H7          0.7920    0.0010    0.9980 DU        1 3FZ      0.462000
     18 H8          2.7140    0.0040    0.3950 DU        1 3FZ      0.374000
     19 H13         5.7010    0.0340    2.8250 hn        1 3FZ     -0.186000
     20 C1          5.5130    0.0010    2.4970 c3        1 3FZ      0.671000
@<TRIPOS>BOND
     1    1    9 1   
     2    1   17 1   
     3    2   11 1   
     4    2   12 1   
     5    2   19 1   
     6    2   20 1   
     7    3    5 1   
     8    3   10 1   
     9    3   14 1   
    10    3   20 1   
    11    4   13 1   
    12    4   20 1   
    13    5    6 1   
    14    5   14 1   
    15    5   15 1   
    16    6    7 1   
    17    6   15 1   
    18    6   16 1   
    19    7    8 1   
    20    7   16 1   
    21    8    9 1   
    22    8   10 1   
    23    8   17 1   
    24    8   18 1   
    25    9   17 1   
    26   10   18 1   
    27   11   13 1   
    28   13   20 1   
@<TRIPOS>SUBSTRUCTURE
     1 3FZ         1 TEMP              0 ****  ****    0 ROOT
