@<TRIPOS>MOLECULE
3FZ
   19    19     1     0     0
SMALL
bcc


@<TRIPOS>ATOM
      1 O           3.7460   -0.6390    0.4580 o         1 3FZ     -0.523100
      2 N1         -3.2890    0.2460    0.5880 nh        1 3FZ     -0.892800
      3 C2         -0.9590    0.1290   -0.1360 ca        1 3FZ     -0.212900
      4 N2         -2.6620   -1.5050   -0.8780 n2        1 3FZ     -0.831100
      5 C3         -0.7650    1.4930   -0.3830 ca        1 3FZ     -0.066000
      6 C4          0.5240    2.0250   -0.3710 ca        1 3FZ     -0.150000
      7 C5          1.6200    1.2040   -0.1100 ca        1 3FZ     -0.058000
      8 C6          1.4300   -0.1620    0.1380 ca        1 3FZ     -0.200600
      9 C7          2.5800   -1.0380    0.4160 c         1 3FZ      0.575500
     10 C8          0.1370   -0.6980    0.1210 ca        1 3FZ     -0.073000
     11 HN1        -2.9220    0.6100    1.4390 hn        1 3FZ      0.399300
     12 HN1A       -4.1700   -0.2090    0.6990 hn        1 3FZ      0.399300
     13 HN2        -1.9270   -1.8570   -1.4530 hn        1 3FZ      0.395400
     14 H3         -1.6290    2.1430   -0.5920 ha        1 3FZ      0.154000
     15 H4          0.6770    3.0970   -0.5690 ha        1 3FZ      0.144000
     16 H5          2.6430    1.6150   -0.0960 ha        1 3FZ      0.158000
     17 H7          2.3270   -2.1090    0.5890 h4        1 3FZ      0.001200
     18 H8         -0.0150   -1.7720    0.3140 ha        1 3FZ      0.141000
     19 C1         -2.3340   -0.4640   -0.1700 ce        1 3FZ      0.637800
@<TRIPOS>BOND
     1    1    9 2   
     2    2   11 1   
     3    2   12 1   
     4    2   19 1   
     5    3    5 ar  
     6    3   10 ar  
     7    3   19 1   
     8    4   13 1   
     9    4   19 2   
    10    5    6 ar  
    11    5   14 1   
    12    6    7 ar  
    13    6   15 1   
    14    7    8 ar  
    15    7   16 1   
    16    8    9 1   
    17    8   10 ar  
    18    9   17 1   
    19   10   18 1   
@<TRIPOS>SUBSTRUCTURE
     1 3FZ         1 TEMP              0 ****  ****    0 ROOT
