@<TRIPOS>MOLECULE
3G1
   29    30     1     0     0
SMALL
bcc


@<TRIPOS>ATOM
      1 C1         -0.0820    0.0180    0.0000 ca        1 3G1     -0.104500
      2 C2          1.3080    0.1410   -0.1220 ca        1 3G1     -0.063600
      3 C3          2.1070    0.1270    1.0310 ca        1 3G1     -0.129000
      4 C4          1.5370   -0.0070    2.2910 ca        1 3G1     -0.124000
      5 C6         -0.6450   -0.1180    1.2760 ca        1 3G1     -0.080000
      6 C8         -1.2090    1.6750   -1.7800 c3        1 3G1     -0.024800
      7 C10        -0.9590    1.6740   -4.2590 ca        1 3G1     -0.123500
      8 C11        -1.4770    1.8770   -5.5360 ca        1 3G1     -0.144000
      9 C12        -2.8030    2.2760   -5.7040 ca        1 3G1     -0.152000
     10 C13        -3.6150    2.4690   -4.5870 ca        1 3G1     -0.144000
     11 C14        -3.1030    2.2680   -3.3060 ca        1 3G1     -0.123500
     12 O2          1.2850    0.3320   -2.5100 o         1 3G1     -0.828300
     13 C7          2.0070    0.2810   -1.4690 c         1 3G1      0.903200
     14 O3          3.2650    0.3400   -1.4870 o         1 3G1     -0.828300
     15 C5          0.1510   -0.1330    2.4160 ca        1 3G1     -0.175000
     16 S1         -1.0900   -0.0600   -1.3960 sx        1 3G1      0.390400
     17 O1         -2.4510   -0.3940   -0.8560 o         1 3G1     -0.586200
     18 C9         -1.7720    1.8710   -3.1310 ca        1 3G1     -0.040300
     19 H1          3.1990    0.2210    0.9030 ha        1 3G1      0.156000
     20 H2          2.1710   -0.0160    3.1880 ha        1 3G1      0.108000
     21 H3         -1.7410   -0.2240    1.3620 ha        1 3G1      0.147000
     22 H4         -1.8170    2.2190   -1.0170 h1        1 3G1      0.095200
     23 H5         -0.1600    2.0780   -1.7510 h1        1 3G1      0.095200
     24 H8         -3.2080    2.4350   -6.7130 ha        1 3G1      0.110000
     25 H9         -4.6620    2.7770   -4.7150 ha        1 3G1      0.116500
     26 H10        -3.7480    2.4110   -2.4260 ha        1 3G1      0.162500
     27 H12        -0.3070   -0.2420    3.4080 ha        1 3G1      0.109000
     28 H6          0.0890    1.3470   -4.1120 ha        1 3G1      0.162500
     29 H7         -0.8350    1.7190   -6.4140 ha        1 3G1      0.116500
@<TRIPOS>BOND
     1    1    2 ar  
     2    1    5 ar  
     3    1   16 1   
     4    2    3 ar  
     5    2   13 1   
     6    3    4 ar  
     7    3   19 1   
     8    4   15 ar  
     9    4   20 1   
    10    5   15 ar  
    11    5   21 1   
    12    6   16 1   
    13    6   18 1   
    14    6   22 1   
    15    6   23 1   
    16    7    8 ar  
    17    7   18 ar  
    18    7   28 1   
    19    8    9 ar  
    20    8   29 1   
    21    9   10 ar  
    22    9   24 1   
    23   10   11 ar  
    24   10   25 1   
    25   11   18 ar  
    26   11   26 1   
    27   12   13 1   
    28   13   14 1   
    29   15   27 1   
    30   16   17 2   
@<TRIPOS>SUBSTRUCTURE
     1 3G1         1 TEMP              0 ****  ****    0 ROOT
