@<TRIPOS>MOLECULE
3G3
   27    29     1     0     0
SMALL
bcc


@<TRIPOS>ATOM
      1 O18         0.1140    0.6840   -0.2140 o         1 3G3     -0.569000
      2 C12         1.3020    0.3740   -0.0920 c         1 3G3      0.725600
      3 C11         2.1060    0.2040    1.1590 ca        1 3G3     -0.139600
      4 C13         1.7520    0.3300    2.4850 ca        1 3G3     -0.060000
      5 C14         2.7510    0.1030    3.4530 ca        1 3G3     -0.115000
      6 C15         4.0460   -0.2350    3.0840 ca        1 3G3     -0.115000
      7 C16         4.4100   -0.3650    1.7290 ca        1 3G3     -0.060000
      8 C10         3.4350   -0.1440    0.7810 ca        1 3G3     -0.139600
      9 N8          2.1790    0.1070   -1.1800 n         1 3G3     -0.531400
     10 C9          3.4910   -0.2020   -0.7140 c         1 3G3      0.725600
     11 O17         4.4490   -0.4670   -1.4420 o         1 3G3     -0.569000
     12 C7          1.7900    0.1600   -2.5580 c3        1 3G3      0.107000
     13 C6          1.5090    1.5820   -3.0700 c3        1 3G3     -0.134700
     14 C5          0.8180    1.5120   -4.3780 cc        1 3G3      0.388800
     15 N4          1.3290    1.5980   -5.6450 nd        1 3G3     -0.368000
     16 N3          0.3010    1.4810   -6.4840 nd        1 3G3     -0.050000
     17 N2         -0.8190    1.3280   -5.8760 nc        1 3G3     -0.192800
     18 N1         -0.5710    1.3360   -4.5600 na        1 3G3     -0.183400
     19 H13         0.7270    0.5970    2.7820 ha        1 3G3      0.161000
     20 H14         2.4900    0.1990    4.5190 ha        1 3G3      0.146500
     21 H15         4.8100   -0.4070    3.8590 ha        1 3G3      0.146500
     22 H16         5.4370   -0.6350    1.4420 ha        1 3G3      0.161000
     23 H7          2.6170   -0.2980   -3.1750 h1        1 3G3      0.076700
     24 H7A         0.8560   -0.4620   -2.6800 h1        1 3G3      0.076700
     25 H6          0.8680    2.1410   -2.3340 hc        1 3G3      0.087200
     26 H6A         2.4730    2.1460   -3.1890 hc        1 3G3      0.087200
     27 HN1        -1.2830    1.2400   -3.8740 hn        1 3G3      0.338700
@<TRIPOS>BOND
     1    1    2 2   
     2    2    3 1   
     3    2    9 1   
     4    3    4 ar  
     5    3    8 ar  
     6    4    5 ar  
     7    4   19 1   
     8    5    6 ar  
     9    5   20 1   
    10    6    7 ar  
    11    6   21 1   
    12    7    8 ar  
    13    7   22 1   
    14    8   10 1   
    15    9   10 1   
    16    9   12 1   
    17   10   11 2   
    18   12   13 1   
    19   12   23 1   
    20   12   24 1   
    21   13   14 1   
    22   13   25 1   
    23   13   26 1   
    24   14   15 2   
    25   14   18 1   
    26   15   16 1   
    27   16   17 2   
    28   17   18 1   
    29   18   27 1   
@<TRIPOS>SUBSTRUCTURE
     1 3G3         1 TEMP              0 ****  ****    0 ROOT
