@<TRIPOS>MOLECULE
3G3
   27    29     1     0     0
SMALL
bcc


@<TRIPOS>ATOM
      1 O18         0.1100    0.6450   -0.2160 o         1 3G3     -0.569000
      2 C12         1.3020    0.3530   -0.0950 c         1 3G3      0.725600
      3 C11         2.1060    0.1830    1.1560 ca        1 3G3     -0.140100
      4 C13         1.7490    0.2890    2.4820 ca        1 3G3     -0.060000
      5 C14         2.7490    0.0700    3.4500 ca        1 3G3     -0.115000
      6 C15         4.0510   -0.2440    3.0810 ca        1 3G3     -0.115000
      7 C16         4.4180   -0.3540    1.7250 ca        1 3G3     -0.060000
      8 C10         3.4420   -0.1390    0.7770 ca        1 3G3     -0.140100
      9 N8          2.1870    0.1120   -1.1840 n         1 3G3     -0.531400
     10 C9          3.5020   -0.1800   -0.7190 c         1 3G3      0.725600
     11 O17         4.4660   -0.4220   -1.4470 o         1 3G3     -0.569000
     12 C7          1.8000    0.1730   -2.5620 c3        1 3G3      0.107000
     13 C6          1.4960    1.5960   -3.0590 c3        1 3G3     -0.134700
     14 C5          0.8080    1.5290   -4.3700 cc        1 3G3      0.388800
     15 N4          1.3200    1.6380   -5.6350 nd        1 3G3     -0.368000
     16 N3          0.2960    1.5130   -6.4770 nd        1 3G3     -0.050000
     17 N2         -0.8230    1.3340   -5.8730 nc        1 3G3     -0.192800
     18 N1         -0.5770    1.3320   -4.5560 na        1 3G3     -0.183400
     19 H13         0.7190    0.5370    2.7800 ha        1 3G3      0.161000
     20 H14         2.4850    0.1500    4.5160 ha        1 3G3      0.146500
     21 H15         4.8150   -0.4110    3.8550 ha        1 3G3      0.146500
     22 H16         5.4510   -0.6030    1.4380 ha        1 3G3      0.161000
     23 H7          0.8760   -0.4620   -2.6920 h1        1 3G3      0.076700
     24 H7A         2.6340   -0.2650   -3.1830 h1        1 3G3      0.076700
     25 H6          0.8440    2.1370   -2.3190 hc        1 3G3      0.087200
     26 H6A         2.4500    2.1770   -3.1700 hc        1 3G3      0.087200
     27 HN1        -1.2880    1.2160   -3.8730 hn        1 3G3      0.338700
@<TRIPOS>BOND
     1    1    2 2   
     2    2    3 1   
     3    2    9 1   
     4    3    4 ar  
     5    3    8 ar  
     6    4    5 ar  
     7    4   19 1   
     8    5    6 ar  
     9    5   20 1   
    10    6    7 ar  
    11    6   21 1   
    12    7    8 ar  
    13    7   22 1   
    14    8   10 1   
    15    9   10 1   
    16    9   12 1   
    17   10   11 2   
    18   12   13 1   
    19   12   23 1   
    20   12   24 1   
    21   13   14 1   
    22   13   25 1   
    23   13   26 1   
    24   14   15 2   
    25   14   18 1   
    26   15   16 1   
    27   16   17 2   
    28   17   18 1   
    29   18   27 1   
@<TRIPOS>SUBSTRUCTURE
     1 3G3         1 TEMP              0 ****  ****    0 ROOT
