@<TRIPOS>MOLECULE
3G3
   27    25     1     0     0
SMALL
bcc


@<TRIPOS>ATOM
      1 O18        -1.9980    0.5700    1.0530 o         1 3G3     -0.282000
      2 C12        -0.8190    0.5310    1.0280 c1        1 3G3      0.363000
      3 C11         0.0900    0.4140    2.2310 c1        1 3G3     -0.118000
      4 C13        -0.1750    0.4010    3.6110 c2        1 3G3     -0.060000
      5 C14         0.8810    0.3550    4.5220 c1        1 3G3     -0.114000
      6 C15         2.1910    0.3220    4.0620 c1        1 3G3     -0.088000
      7 C16         2.4490    0.3350    2.7020 c1        1 3G3     -0.088000
      8 C10         1.3870    0.3820    1.7830 c1        1 3G3     -0.120000
      9 N8         -0.0100    0.5170   -0.1350 n         1 3G3     -0.360000
     10 C9          1.3640    0.4720    0.2840 c2        1 3G3      0.362000
     11 O17         2.3510    0.5970   -0.4460 o         1 3G3     -0.305000
     12 C7         -0.4740    0.6200   -1.4670 c3        1 3G3     -0.009000
     13 C6         -0.5660   -0.7820   -2.0910 c3        1 3G3     -0.119000
     14 C5         -1.3110   -0.6970   -3.4430 c2        1 3G3     -0.057000
     15 N4         -1.6390    0.4420   -4.0970 nc        1 3G3     -0.160000
     16 N3         -2.1900    0.0980   -5.2840 nc        1 3G3     -0.036500
     17 N2         -2.2020   -1.2570   -5.3660 nc        1 3G3     -0.036500
     18 N1         -1.6600   -1.7490   -4.2300 nc        1 3G3     -0.160000
     19 H13        -1.1020    0.4250    3.9340 ha        1 3G3      0.162000
     20 H14         0.7050    0.3460    5.4540 ha        1 3G3      0.147000
     21 H15         2.9320    0.2880    4.6980 ha        1 3G3      0.153000
     22 H16         3.3570    0.3160    2.3850 ha        1 3G3      0.153000
     23 H7          0.1250    1.1510   -1.9720 h1        1 3G3      0.116000
     24 H7A        -1.4000    1.0550   -1.4690 h1        1 3G3      0.116000
     25 H6          0.3110   -1.1270   -2.2320 hc        1 3G3      0.126500
     26 H6A        -1.0520   -1.3700   -1.4920 hc        1 3G3      0.126500
     27 HN1        -1.5450   -2.6560   -4.0210 DU        1 3G3      0.289000
@<TRIPOS>BOND
     1    1    2 1   
     2    2    9 1   
     3    3    4 1   
     4    3    8 1   
     5    4    5 1   
     6    4   19 1   
     7    5   20 1   
     8    6    7 1   
     9    6   21 1   
    10    7   22 1   
    11    8   10 1   
    12    9   10 1   
    13    9   12 1   
    14   10   11 1   
    15   12   13 1   
    16   12   23 1   
    17   12   24 1   
    18   13   14 1   
    19   13   25 1   
    20   13   26 1   
    21   14   15 1   
    22   14   18 1   
    23   15   16 1   
    24   16   17 1   
    25   17   18 1   
@<TRIPOS>SUBSTRUCTURE
     1 3G3         1 TEMP              0 ****  ****    0 ROOT
