@<TRIPOS>MOLECULE
3G3
   27    29     1     0     0
SMALL
bcc


@<TRIPOS>ATOM
      1 O18         0.4560   -2.0810    0.0690 o         1 3G3     -0.569000
      2 C12         1.0230   -0.9900   -0.0350 c         1 3G3      0.725600
      3 C11         2.4810   -0.6730    0.0840 ca        1 3G3     -0.139600
      4 C13         3.5660   -1.4870    0.3220 ca        1 3G3     -0.060000
      5 C14         4.8380   -0.8830    0.3800 ca        1 3G3     -0.115000
      6 C15         4.9930    0.4860    0.2030 ca        1 3G3     -0.115000
      7 C16         3.8840    1.3200   -0.0420 ca        1 3G3     -0.060000
      8 C10         2.6400    0.7310   -0.0980 ca        1 3G3     -0.139600
      9 N8          0.3580    0.2400   -0.2990 n         1 3G3     -0.531400
     10 C9          1.2850    1.3230   -0.3380 c         1 3G3      0.725600
     11 O17         0.9800    2.4990   -0.5410 o         1 3G3     -0.569000
     12 C7         -1.0570    0.3650   -0.4840 c3        1 3G3      0.107000
     13 C6         -1.8730    0.1430    0.7990 c3        1 3G3     -0.134700
     14 C5         -3.3050   -0.0250    0.4560 cc        1 3G3      0.388800
     15 N4         -4.3200    0.8930    0.4590 nd        1 3G3     -0.368000
     16 N3         -5.4220    0.2500    0.0760 nd        1 3G3     -0.050000
     17 N2         -5.2100   -0.9910   -0.1720 nc        1 3G3     -0.192800
     18 N1         -3.9090   -1.2310    0.0430 na        1 3G3     -0.183400
     19 H13         3.4500   -2.5720    0.4620 ha        1 3G3      0.161000
     20 H14         5.7200   -1.5150    0.5690 ha        1 3G3      0.146500
     21 H15         5.9970    0.9360    0.2520 ha        1 3G3      0.146500
     22 H16         4.0110    2.4040   -0.1820 ha        1 3G3      0.161000
     23 H7         -1.2700    1.3990   -0.8830 h1        1 3G3      0.076700
     24 H7A        -1.3760   -0.3960   -1.2540 h1        1 3G3      0.076700
     25 H6         -1.5060   -0.7710    1.3410 hc        1 3G3      0.087200
     26 H6A        -1.7580    1.0240    1.4870 hc        1 3G3      0.087200
     27 HN1        -3.4970   -2.1270   -0.0750 hn        1 3G3      0.338700
@<TRIPOS>BOND
     1    1    2 2   
     2    2    3 1   
     3    2    9 1   
     4    3    4 ar  
     5    3    8 ar  
     6    4    5 ar  
     7    4   19 1   
     8    5    6 ar  
     9    5   20 1   
    10    6    7 ar  
    11    6   21 1   
    12    7    8 ar  
    13    7   22 1   
    14    8   10 1   
    15    9   10 1   
    16    9   12 1   
    17   10   11 2   
    18   12   13 1   
    19   12   23 1   
    20   12   24 1   
    21   13   14 1   
    22   13   25 1   
    23   13   26 1   
    24   14   15 2   
    25   14   18 1   
    26   15   16 1   
    27   16   17 2   
    28   17   18 1   
    29   18   27 1   
@<TRIPOS>SUBSTRUCTURE
     1 3G3         1 TEMP              0 ****  ****    0 ROOT
