@<TRIPOS>MOLECULE
3G3
   27    29     1     0     0
SMALL
bcc


@<TRIPOS>ATOM
      1 O18         0.1070    0.6130   -0.2170 o         1 3G3     -0.569000
      2 C12         1.3040    0.3380   -0.0970 c         1 3G3      0.725600
      3 C11         2.1100    0.1710    1.1540 ca        1 3G3     -0.139600
      4 C13         1.7490    0.2620    2.4800 ca        1 3G3     -0.060000
      5 C14         2.7510    0.0500    3.4470 ca        1 3G3     -0.115000
      6 C15         4.0580   -0.2410    3.0780 ca        1 3G3     -0.115000
      7 C16         4.4290   -0.3360    1.7210 ca        1 3G3     -0.060000
      8 C10         3.4500   -0.1290    0.7740 ca        1 3G3     -0.139600
      9 N8          2.1930    0.1170   -1.1860 n         1 3G3     -0.531400
     10 C9          3.5130   -0.1590   -0.7220 c         1 3G3      0.725600
     11 O17         4.4800   -0.3800   -1.4510 o         1 3G3     -0.569000
     12 C7          1.8060    0.1820   -2.5640 c3        1 3G3      0.107000
     13 C6          1.4820    1.6030   -3.0520 c3        1 3G3     -0.134700
     14 C5          0.7960    1.5350   -4.3640 cc        1 3G3      0.388800
     15 N4          1.3070    1.6600   -5.6280 nd        1 3G3     -0.368000
     16 N3          0.2860    1.5250   -6.4710 nd        1 3G3     -0.050000
     17 N2         -0.8300    1.3250   -5.8700 nc        1 3G3     -0.192800
     18 N1         -0.5860    1.3180   -4.5530 na        1 3G3     -0.183400
     19 H13         0.7150    0.4920    2.7790 ha        1 3G3      0.161000
     20 H14         2.4850    0.1190    4.5140 ha        1 3G3      0.146500
     21 H15         4.8240   -0.4030    3.8520 ha        1 3G3      0.146500
     22 H16         5.4650   -0.5680    1.4330 ha        1 3G3      0.161000
     23 H7          2.6480   -0.2390   -3.1870 h1        1 3G3      0.076700
     24 H7A         0.8920   -0.4660   -2.7000 h1        1 3G3      0.076700
     25 H6          0.8210    2.1290   -2.3090 hc        1 3G3      0.087200
     26 H6A         2.4270    2.2000   -3.1590 hc        1 3G3      0.087200
     27 HN1        -1.2960    1.1860   -3.8710 hn        1 3G3      0.338700
@<TRIPOS>BOND
     1    1    2 2   
     2    2    3 1   
     3    2    9 1   
     4    3    4 ar  
     5    3    8 ar  
     6    4    5 ar  
     7    4   19 1   
     8    5    6 ar  
     9    5   20 1   
    10    6    7 ar  
    11    6   21 1   
    12    7    8 ar  
    13    7   22 1   
    14    8   10 1   
    15    9   10 1   
    16    9   12 1   
    17   10   11 2   
    18   12   13 1   
    19   12   23 1   
    20   12   24 1   
    21   13   14 1   
    22   13   25 1   
    23   13   26 1   
    24   14   15 2   
    25   14   18 1   
    26   15   16 1   
    27   16   17 2   
    28   17   18 1   
    29   18   27 1   
@<TRIPOS>SUBSTRUCTURE
     1 3G3         1 TEMP              0 ****  ****    0 ROOT
