@<TRIPOS>MOLECULE
3G4
   48    49     1     0     0
SMALL
bcc


@<TRIPOS>ATOM
      1 CL7         4.6310    1.3530   -2.9340 cl        1 3G4     -0.089400
      2 C1          3.5300    1.4040   -1.6350 ca        1 3G4     -0.025600
      3 C2          2.6470    2.4830   -1.5660 ca        1 3G4     -0.058000
      4 C3          1.7280    2.5500   -0.5210 ca        1 3G4     -0.161000
      5 C4          1.7000    1.5430    0.4350 ca        1 3G4     -0.010000
      6 C6          3.5170    0.3840   -0.6650 ca        1 3G4      0.068700
      7 C8          4.4900   -0.7280   -0.7960 c3        1 3G4     -0.089800
      8 C5          2.5880    0.4560    0.3880 ca        1 3G4     -0.358500
      9 S9          2.4540   -0.6630    1.6540 sy        1 3G4      1.517200
     10 O11         3.7360   -1.0380    2.1150 o         1 3G4     -0.643300
     11 O12         1.6000   -0.1450    2.6390 o         1 3G4     -0.643300
     12 N10         1.8390   -2.0030    0.9300 nh        1 3G4     -0.867800
     13 C13         0.5690   -2.1410    0.3490 ca        1 3G4      0.670200
     14 N14        -0.2320   -1.0340    0.3200 nb        1 3G4     -0.730000
     15 C18         0.1580   -3.3970   -0.1840 ca        1 3G4     -0.279300
     16 C17        -1.1110   -3.4910   -0.7450 ca        1 3G4     -0.061000
     17 C16        -1.9380   -2.3690   -0.7770 ca        1 3G4     -0.245300
     18 C15        -1.4630   -1.1610   -0.2280 ca        1 3G4      0.461600
     19 C19        -2.3210    0.0730   -0.2860 c3        1 3G4     -0.202700
     20 C20        -3.7590   -0.1740    0.1390 c         1 3G4      0.665100
     21 O22        -4.1390   -1.2690    0.6000 o         1 3G4     -0.602100
     22 N21        -4.6650    0.8720    0.0120 n         1 3G4     -0.482800
     23 C23        -4.3090    2.1520   -0.5490 c3        1 3G4      0.092500
     24 C26        -4.4700    2.2640   -2.0600 c3        1 3G4     -0.116600
     25 C24        -6.0490    0.6810    0.3910 c3        1 3G4      0.092500
     26 C25        -6.4310    1.2870    1.7330 c3        1 3G4     -0.116600
     27 H2          2.6760    3.2760   -2.3310 ha        1 3G4      0.149000
     28 H3          1.0290    3.3970   -0.4560 ha        1 3G4      0.143000
     29 H4          0.9600    1.5940    1.2580 ha        1 3G4      0.173000
     30 H8          5.5310   -0.3150   -0.8400 hc        1 3G4      0.068033
     31 H8A         4.4520   -1.4470    0.0570 hc        1 3G4      0.068033
     32 H8B         4.2980   -1.2890   -1.7460 hc        1 3G4      0.068033
     33 HN10        2.3820   -2.8370    0.8900 hn        1 3G4      0.459800
     34 H18         0.8220   -4.2710   -0.1460 ha        1 3G4      0.145000
     35 H17        -1.4610   -4.4490   -1.1570 ha        1 3G4      0.143000
     36 H16        -2.9580   -2.4260   -1.1810 ha        1 3G4      0.161000
     37 H19        -1.8960    0.8770    0.3780 hc        1 3G4      0.085200
     38 H19A       -2.3040    0.4510   -1.3450 hc        1 3G4      0.085200
     39 H23        -4.9630    2.9350   -0.0640 h1        1 3G4      0.053450
     40 H23A       -3.2430    2.4000   -0.2780 h1        1 3G4      0.053450
     41 H26        -4.1940    3.2980   -2.3750 hc        1 3G4      0.042367
     42 H26A       -3.8090    1.5400   -2.5940 hc        1 3G4      0.042367
     43 H26B       -5.5250    2.0670   -2.3660 hc        1 3G4      0.042367
     44 H24        -6.6960    1.1390   -0.4140 h1        1 3G4      0.053450
     45 H24A       -6.2640   -0.4270    0.4220 h1        1 3G4      0.053450
     46 H25        -5.8370    0.8300    2.5610 hc        1 3G4      0.042367
     47 H25A       -6.2650    2.3910    1.7460 hc        1 3G4      0.042367
     48 H25B       -7.5130    1.0870    1.9190 hc        1 3G4      0.042367
@<TRIPOS>BOND
     1    1    2 1   
     2    2    3 ar  
     3    2    6 ar  
     4    3    4 ar  
     5    3   27 1   
     6    4    5 ar  
     7    4   28 1   
     8    5    8 ar  
     9    5   29 1   
    10    6    7 1   
    11    6    8 ar  
    12    7   30 1   
    13    7   31 1   
    14    7   32 1   
    15    8    9 1   
    16    9   10 2   
    17    9   11 2   
    18    9   12 1   
    19   12   13 1   
    20   12   33 1   
    21   13   14 ar  
    22   13   15 ar  
    23   14   18 ar  
    24   15   16 ar  
    25   15   34 1   
    26   16   17 ar  
    27   16   35 1   
    28   17   18 ar  
    29   17   36 1   
    30   18   19 1   
    31   19   20 1   
    32   19   37 1   
    33   19   38 1   
    34   20   21 2   
    35   20   22 1   
    36   22   23 1   
    37   22   25 1   
    38   23   24 1   
    39   23   39 1   
    40   23   40 1   
    41   24   41 1   
    42   24   42 1   
    43   24   43 1   
    44   25   26 1   
    45   25   44 1   
    46   25   45 1   
    47   26   46 1   
    48   26   47 1   
    49   26   48 1   
@<TRIPOS>SUBSTRUCTURE
     1 3G4         1 TEMP              0 ****  ****    0 ROOT
