@<TRIPOS>MOLECULE
3G4
   49    50     1     0     0
SMALL
bcc


@<TRIPOS>ATOM
      1 CL7         1.3180    2.7720   -1.9380 cl        1 3G4     -0.049400
      2 C1          2.0580    1.7120   -0.8390 ca        1 3G4     -0.023600
      3 C2          1.6550    1.7540    0.4980 ca        1 3G4     -0.032000
      4 C3          2.2430    0.8920    1.4250 ca        1 3G4     -0.145000
      5 C4          3.2230    0.0030    1.0090 ca        1 3G4     -0.026000
      6 C6          3.0540    0.8140   -1.2700 ca        1 3G4      0.069700
      7 C8          3.4450    0.8180   -2.7000 c3        1 3G4     -0.103800
      8 C5          3.6490   -0.0530   -0.3320 ca        1 3G4     -0.417500
      9 S9          4.8680   -1.1350   -0.6780 sy        1 3G4      1.536200
     10 O11         5.8630   -0.6140   -1.5220 o         1 3G4     -0.675800
     11 O12         5.4520   -1.6330    0.5210 o         1 3G4     -0.675800
     12 N10         4.0020   -2.3120   -1.4480 nh        1 3G4     -0.859800
     13 C13         4.5700   -3.5490   -1.7790 ca        1 3G4      0.690200
     14 N14         5.8560   -3.7400   -1.3670 nb        1 3G4     -0.802000
     15 C18         3.8540   -4.5530   -2.4950 ca        1 3G4     -0.251300
     16 C17         4.5000   -5.7540   -2.7670 ca        1 3G4     -0.039000
     17 C16         5.8170   -5.9600   -2.3330 ca        1 3G4     -0.244300
     18 C15         6.4520   -4.9240   -1.6280 ca        1 3G4      0.431600
     19 C19         7.8420   -5.1280   -1.0990 c3        1 3G4     -0.200700
     20 C20         8.6200   -3.8430   -0.9440 c         1 3G4      0.563100
     21 O22         9.5660   -3.5240   -1.6540 o         1 3G4     -0.424100
     22 N21         8.2310   -2.9060    0.1760 n4        1 3G4     -0.590200
     23 C23         8.7390   -3.4360    1.4820 c3        1 3G4      0.112800
     24 C26        10.2480   -3.5020    1.5970 c3        1 3G4     -0.127600
     25 C24         8.7120   -1.5100   -0.1080 c3        1 3G4      0.112800
     26 C25         8.4520   -0.5320    1.0160 c3        1 3G4     -0.127600
     27 H2          0.8750    2.4660    0.8210 ha        1 3G4      0.169000
     28 H3          1.9290    0.9220    2.4800 ha        1 3G4      0.162000
     29 H4          3.6890   -0.6730    1.7500 ha        1 3G4      0.165000
     30 H8          2.5520    0.5970   -3.3410 hc        1 3G4      0.077367
     31 H8A         4.2480    0.0820   -2.9420 hc        1 3G4      0.077367
     32 H8B         3.8240    1.8360   -2.9820 hc        1 3G4      0.077367
     33 HN10        3.0520   -2.2120   -1.7240 hn        1 3G4      0.474800
     34 H18         2.8200   -4.3800   -2.8240 ha        1 3G4      0.167000
     35 H17         3.9760   -6.5480   -3.3240 ha        1 3G4      0.167000
     36 H16         6.3360   -6.9050   -2.5380 ha        1 3G4      0.165000
     37 H19         7.7820   -5.6670   -0.1130 hc        1 3G4      0.113700
     38 H19A        8.4190   -5.7770   -1.8180 hc        1 3G4      0.113700
     39 H23         8.3220   -2.7690    2.2920 hx        1 3G4      0.105700
     40 H23A        8.2980   -4.4650    1.6190 hx        1 3G4      0.105700
     41 H26        10.6980   -2.4790    1.6220 hc        1 3G4      0.073033
     42 H26A       10.5030   -4.0210    2.5550 hc        1 3G4      0.073033
     43 H26B       10.7040   -4.0720    0.7520 hc        1 3G4      0.073033
     44 H24         9.8160   -1.5620   -0.3330 hx        1 3G4      0.105700
     45 H24A        8.1620   -1.1700   -1.0390 hx        1 3G4      0.105700
     46 H25         8.6600    0.4960    0.6250 hc        1 3G4      0.073033
     47 H25A        9.1230   -0.7180    1.8890 hc        1 3G4      0.073033
     48 H25B        7.3860   -0.5690    1.3570 hc        1 3G4      0.073033
     49 H211        7.1920   -2.8590    0.2460 hn        1 3G4      0.506800
@<TRIPOS>BOND
     1    1    2 1   
     2    2    3 ar  
     3    2    6 ar  
     4    3    4 ar  
     5    3   27 1   
     6    4    5 ar  
     7    4   28 1   
     8    5    8 ar  
     9    5   29 1   
    10    6    7 1   
    11    6    8 ar  
    12    7   30 1   
    13    7   31 1   
    14    7   32 1   
    15    8    9 1   
    16    9   10 2   
    17    9   11 2   
    18    9   12 1   
    19   12   13 1   
    20   12   33 1   
    21   13   14 ar  
    22   13   15 ar  
    23   14   18 ar  
    24   15   16 ar  
    25   15   34 1   
    26   16   17 ar  
    27   16   35 1   
    28   17   18 ar  
    29   17   36 1   
    30   18   19 1   
    31   19   20 1   
    32   19   37 1   
    33   19   38 1   
    34   20   21 2   
    35   20   22 1   
    36   22   23 1   
    37   22   25 1   
    38   22   49 1   
    39   23   24 1   
    40   23   39 1   
    41   23   40 1   
    42   24   41 1   
    43   24   42 1   
    44   24   43 1   
    45   25   26 1   
    46   25   44 1   
    47   25   45 1   
    48   26   46 1   
    49   26   47 1   
    50   26   48 1   
@<TRIPOS>SUBSTRUCTURE
     1 3G4         1 TEMP              0 ****  ****    0 ROOT
