@<TRIPOS>MOLECULE
3G4
   49    50     1     0     0
SMALL
bcc


@<TRIPOS>ATOM
      1 Cl7         1.2340    2.7190   -1.8200 cl        1 3G4     -0.049400
      2 C1          1.9950    1.6470   -0.7470 ca        1 3G4     -0.023600
      3 C2          1.5940    1.6510    0.5910 ca        1 3G4     -0.032000
      4 C3          2.2000    0.7780    1.4960 ca        1 3G4     -0.145000
      5 C4          3.1940   -0.0830    1.0580 ca        1 3G4     -0.026000
      6 C6          3.0060    0.7780   -1.2010 ca        1 3G4      0.069700
      7 C8          3.3940    0.8230   -2.6310 c3        1 3G4     -0.103800
      8 C5          3.6190   -0.0990   -0.2850 ca        1 3G4     -0.417500
      9 S9          4.8560   -1.1510   -0.6580 sy        1 3G4      1.536200
     10 O11         5.8400   -0.5920   -1.4920 o         1 3G4     -0.675800
     11 O12         5.4520   -1.6660    0.5270 o         1 3G4     -0.675800
     12 N10         4.0100   -2.3250   -1.4540 nu        1 3G4     -0.859800
     13 C13         4.6010   -3.5440   -1.8150 ca        1 3G4      0.690200
     14 N14         5.8920   -3.7200   -1.4110 nb        1 3G4     -0.802000
     15 C18         3.9020   -4.5440   -2.5540 ca        1 3G4     -0.251300
     16 C17         4.5700   -5.7250   -2.8550 ca        1 3G4     -0.039000
     17 C16         5.8910   -5.9160   -2.4290 ca        1 3G4     -0.244300
     18 C15         6.5080   -4.8860   -1.7010 ca        1 3G4      0.432600
     19 C19         7.9030   -5.0760   -1.1790 c3        1 3G4     -0.200700
     20 C20         8.6580   -3.7810   -0.9960 c         1 3G4      0.563100
     21 O22         9.5950   -3.4280   -1.6990 o         1 3G4     -0.424100
     22 N21         8.2540   -2.8790    0.1470 nx        1 3G4     -0.590200
     23 C23         8.7750   -3.4310    1.4390 c3        1 3G4      0.112800
     24 C26        10.2840   -3.4710    1.5500 c3        1 3G4     -0.127600
     25 C24         8.7080   -1.4680   -0.1040 c3        1 3G4      0.112800
     26 C25         8.4320   -0.5220    1.0440 c3        1 3G4     -0.127600
     27 H2          0.8020    2.3400    0.9320 ha        1 3G4      0.169000
     28 H3          1.8880    0.7770    2.5520 ha        1 3G4      0.162000
     29 H4          3.6750   -0.7680    1.7820 ha        1 3G4      0.165000
     30 H8          4.2100    0.1080   -2.8930 hc        1 3G4      0.077367
     31 H8A         2.5040    0.6020   -3.2760 hc        1 3G4      0.077367
     32 H8B         3.7540    1.8540   -2.8900 hc        1 3G4      0.077367
     33 HN10        3.0580   -2.2360   -1.7260 hn        1 3G4      0.474800
     34 H18         2.8640   -4.3820   -2.8760 ha        1 3G4      0.167000
     35 H17         4.0590   -6.5150   -3.4300 ha        1 3G4      0.167000
     36 H16         6.4280   -6.8470   -2.6580 ha        1 3G4      0.165000
     37 H19         7.8560   -5.6400   -0.2070 hc        1 3G4      0.113700
     38 H19A        8.4910   -5.6970   -1.9150 hc        1 3G4      0.113700
     39 H23         8.3470   -2.7910    2.2660 hx        1 3G4      0.105700
     40 H23A        8.3530   -4.4710    1.5520 hx        1 3G4      0.105700
     41 H26        10.7160   -2.4410    1.5990 hc        1 3G4      0.073033
     42 H26A       10.7500   -4.0120    0.6900 hc        1 3G4      0.073033
     43 H26B       10.5510   -4.0080    2.4950 hc        1 3G4      0.073033
     44 H24         9.8120   -1.4930   -0.3320 hx        1 3G4      0.105700
     45 H24A        8.1500   -1.1150   -1.0250 hx        1 3G4      0.105700
     46 H25         7.3680   -0.5870    1.3860 hc        1 3G4      0.073033
     47 H25A        8.6210    0.5190    0.6780 hc        1 3G4      0.073033
     48 H25B        9.1090   -0.7160    1.9110 hc        1 3G4      0.073033
     49 H211        7.2150   -2.8530    0.2210 hn        1 3G4      0.506800
@<TRIPOS>BOND
     1    1    2 1   
     2    2    3 ar  
     3    2    6 ar  
     4    3    4 ar  
     5    3   27 1   
     6    4    5 ar  
     7    4   28 1   
     8    5    8 ar  
     9    5   29 1   
    10    6    7 1   
    11    6    8 ar  
    12    7   30 1   
    13    7   31 1   
    14    7   32 1   
    15    8    9 1   
    16    9   10 2   
    17    9   11 2   
    18    9   12 1   
    19   12   13 1   
    20   12   33 1   
    21   13   14 ar  
    22   13   15 ar  
    23   14   18 ar  
    24   15   16 ar  
    25   15   34 1   
    26   16   17 ar  
    27   16   35 1   
    28   17   18 ar  
    29   17   36 1   
    30   18   19 1   
    31   19   20 1   
    32   19   37 1   
    33   19   38 1   
    34   20   21 2   
    35   20   22 1   
    36   22   23 1   
    37   22   25 1   
    38   22   49 1   
    39   23   24 1   
    40   23   39 1   
    41   23   40 1   
    42   24   41 1   
    43   24   42 1   
    44   24   43 1   
    45   25   26 1   
    46   25   44 1   
    47   25   45 1   
    48   26   46 1   
    49   26   47 1   
    50   26   48 1   
@<TRIPOS>SUBSTRUCTURE
     1 3G4         1 TEMP              0 ****  ****    0 ROOT
