@<TRIPOS>MOLECULE
3G4
   50    50     1     0     0
SMALL
bcc


@<TRIPOS>ATOM
      1 CL7        -0.1900    1.7750   -4.1200 cl        1 3G4      0.005600
      2 C1          0.2240    0.9180   -2.7220 ca        1 3G4     -0.031600
      3 C2         -0.8170    0.3700   -1.9600 ca        1 3G4      0.033000
      4 C3         -0.5260   -0.3450   -0.7910 ca        1 3G4     -0.139000
      5 C4          0.7830   -0.4940   -0.3860 ca        1 3G4     -0.002000
      6 C6          1.5620    0.7630   -2.3290 ca        1 3G4      0.112700
      7 C8          2.6590    1.3370   -3.1430 c3        1 3G4     -0.121800
      8 C5          1.8680    0.0610   -1.1250 ca        1 3G4     -0.602500
      9 S9          3.3040   -0.0840   -0.5160 s4        1 3G4      1.671300
     10 O11         4.3220    0.6640   -1.0140 o         1 3G4     -0.433400
     11 O12         3.4090   -0.7180    0.6820 o         1 3G4     -0.433400
     12 N10         3.9080   -1.9480   -1.8400 nh        1 3G4     -0.990500
     13 C13         4.4930   -2.9970   -1.0340 ca        1 3G4      0.531200
     14 N14         5.6770   -2.7230   -0.4150 nb        1 3G4     -0.671000
     15 C18         3.8120   -4.2340   -0.8780 ca        1 3G4     -0.214300
     16 C17         4.3760   -5.2000   -0.0460 ca        1 3G4     -0.050000
     17 C16         5.5870   -4.9340    0.5940 ca        1 3G4     -0.199300
     18 C15         6.2020   -3.6840    0.3780 ca        1 3G4      0.409600
     19 C19         7.4980   -3.3830    1.0830 c3        1 3G4     -0.197700
     20 C20         8.6230   -3.1640    0.1040 c         1 3G4      0.547100
     21 O22         8.5860   -3.2410   -1.1130 o         1 3G4     -0.393100
     22 N21         9.9600   -2.8150    0.7380 n4        1 3G4     -0.604200
     23 C23        10.7800   -4.0590    0.9510 c3        1 3G4      0.115800
     24 C26        11.2680   -4.7320   -0.3130 c3        1 3G4     -0.133100
     25 C24        10.6780   -1.7780   -0.0780 c3        1 3G4      0.115800
     26 C25        11.9170   -1.2300    0.5950 c3        1 3G4     -0.133100
     27 H2         -1.8690    0.5030   -2.2790 ha        1 3G4      0.196000
     28 H3         -1.3500   -0.7770   -0.1950 ha        1 3G4      0.190000
     29 H4          1.0010   -1.0470    0.5490 ha        1 3G4      0.176000
     30 H8          2.3200    1.5970   -4.1790 hc        1 3G4      0.091700
     31 H8A         3.0400    2.2800   -2.6660 hc        1 3G4      0.091700
     32 H8B         3.5170    0.6240   -3.2390 hc        1 3G4      0.091700
     33 HN10        3.1330   -2.3220   -2.3660 hn        1 3G4      0.424300
     34 H18         2.8650   -4.4380   -1.4000 ha        1 3G4      0.171000
     35 H17         3.8690   -6.1700    0.0990 ha        1 3G4      0.184000
     36 H16         6.0470   -5.6860    1.2540 ha        1 3G4      0.171000
     37 H19         7.3700   -2.4630    1.7230 hc        1 3G4      0.116200
     38 H19A        7.7630   -4.2440    1.7600 hc        1 3G4      0.116200
     39 H23        10.1360   -4.7720    1.5430 hx        1 3G4      0.105200
     40 H23A       11.6660   -3.7620    1.5860 hx        1 3G4      0.105200
     41 H26        10.4410   -4.9070   -1.0450 hc        1 3G4      0.083200
     42 H26A       12.0710   -4.1350   -0.8110 hc        1 3G4      0.083200
     43 H26B       11.7030   -5.7250   -0.0270 hc        1 3G4      0.083200
     44 H24        10.9410   -2.2470   -1.0710 hx        1 3G4      0.105200
     45 H24A        9.9410   -0.9440   -0.2660 hx        1 3G4      0.105200
     46 H25        12.3130   -0.3970   -0.0440 hc        1 3G4      0.083200
     47 H25A       11.6970   -0.8120    1.6080 hc        1 3G4      0.083200
     48 H25B       12.7180   -2.0040    0.6850 hc        1 3G4      0.083200
     49 H102        4.5920   -1.5700   -2.4830 hn        1 3G4      0.424300
     50 H211        9.7800   -2.4120    1.6660 hn        1 3G4      0.448800
@<TRIPOS>BOND
     1    1    2 1   
     2    2    3 ar  
     3    2    6 ar  
     4    3    4 ar  
     5    3   27 1   
     6    4    5 ar  
     7    4   28 1   
     8    5    8 ar  
     9    5   29 1   
    10    6    7 1   
    11    6    8 ar  
    12    7   30 1   
    13    7   31 1   
    14    7   32 1   
    15    8    9 1   
    16    9   10 1   
    17    9   11 1   
    18   12   13 1   
    19   12   33 1   
    20   12   49 1   
    21   13   14 ar  
    22   13   15 ar  
    23   14   18 ar  
    24   15   16 ar  
    25   15   34 1   
    26   16   17 ar  
    27   16   35 1   
    28   17   18 ar  
    29   17   36 1   
    30   18   19 1   
    31   19   20 1   
    32   19   37 1   
    33   19   38 1   
    34   20   21 2   
    35   20   22 1   
    36   22   23 1   
    37   22   25 1   
    38   22   50 1   
    39   23   24 1   
    40   23   39 1   
    41   23   40 1   
    42   24   41 1   
    43   24   42 1   
    44   24   43 1   
    45   25   26 1   
    46   25   44 1   
    47   25   45 1   
    48   26   46 1   
    49   26   47 1   
    50   26   48 1   
@<TRIPOS>SUBSTRUCTURE
     1 3G4         1 TEMP              0 ****  ****    0 ROOT
