@<TRIPOS>MOLECULE
3G4
   48    44     1     0     0
SMALL
bcc


@<TRIPOS>ATOM
      1 CL7        -2.1390    4.3970    5.9420 cl        1 3G4     -0.003000
      2 C1         -2.8740    3.3380    4.7610 c2        1 3G4     -0.098000
      3 C2         -3.8800    2.4610    5.1450 c2        1 3G4     -0.054000
      4 C3         -4.5140    1.6740    4.1960 c1        1 3G4     -0.155000
      5 C4         -4.1420    1.7630    2.8570 c1        1 3G4     -0.019000
      6 C6         -2.5030    3.4270    3.4230 c1        1 3G4      0.072000
      7 C8         -1.4670    4.4430    2.9930 c2        1 3G4     -0.225000
      8 C5         -3.1360    2.6410    2.4730 c2        1 3G4     -0.828000
      9 S9         -2.5820    2.6800    0.7700 s4        1 3G4      2.084800
     10 O11        -1.4700    3.5770    0.6050 o         1 3G4     -0.539900
     11 O12        -3.5620    3.2920   -0.0830 o         1 3G4     -0.539900
     12 N10        -2.2100    1.1770    0.2630 n2        1 3G4     -0.823000
     13 C13        -1.4230    0.9960   -0.9210 c2        1 3G4      0.139000
     14 N14        -0.1920    0.3870   -0.8410 n2        1 3G4     -0.185000
     15 C18        -1.9490    1.3410   -2.1660 c1        1 3G4     -0.220000
     16 C17        -1.2400    1.0720   -3.3090 c1        1 3G4     -0.117000
     17 C16        -0.0120    0.4650   -3.2280 c1        1 3G4     -0.117000
     18 C15         0.5160    0.1200   -1.9820 c1        1 3G4      0.020000
     19 C19         1.9610   -0.4550   -1.8830 c3        1 3G4     -0.137000
     20 C20         1.9040   -2.0040   -1.8880 c2        1 3G4      0.304000
     21 O22         0.8350   -2.5690   -1.9080 o         1 3G4     -0.363000
     22 N21         3.1230   -2.7690   -1.9180 n         1 3G4     -0.332000
     23 C23         3.4490   -3.5700   -3.0840 c3        1 3G4     -0.023000
     24 C26         3.3010   -5.0600   -2.7390 c3        1 3G4     -0.241000
     25 C24         4.0240   -2.7100   -0.8230 c3        1 3G4     -0.023000
     26 C25         3.4530   -3.5130    0.3550 c3        1 3G4     -0.241000
     27 H2         -4.1420    2.3980    6.0890 ha        1 3G4      0.153000
     28 H3         -5.2210    1.0570    4.4660 ha        1 3G4      0.150000
     29 H4         -4.5870    1.2100    2.1900 ha        1 3G4      0.168000
     30 H8         -1.8260    4.9860    2.2590 ha        1 3G4      0.114333
     31 H8A        -0.6620    3.9790    2.6920 ha        1 3G4      0.114333
     32 H8B        -1.2450    5.0250    3.7530 ha        1 3G4      0.114333
     33 HN10       -2.5720    0.4570    0.6800 hn        1 3G4      0.258000
     34 H18        -2.8280    1.7760   -2.2240 ha        1 3G4      0.172000
     35 H17        -1.6080    1.3140   -4.1800 ha        1 3G4      0.153500
     36 H16         0.4950    0.2730   -4.0440 ha        1 3G4      0.153500
     37 H19         2.3810   -0.1460   -1.0490 hc        1 3G4      0.124000
     38 H19A        2.4890   -0.1450   -2.6480 hc        1 3G4      0.124000
     39 H23         4.3760   -3.3870   -3.3590 h1        1 3G4      0.091250
     40 H23A        2.8430   -3.3430   -3.8130 h1        1 3G4      0.091250
     41 H26         3.1170   -5.5720   -3.5620 hc        1 3G4      0.083333
     42 H26A        2.5610   -5.1760   -2.1110 hc        1 3G4      0.083333
     43 H26B        4.1330   -5.3850   -2.3300 hc        1 3G4      0.083333
     44 H24         4.8880   -3.0890   -1.0890 h1        1 3G4      0.091250
     45 H24A        4.1460   -1.7760   -0.5520 h1        1 3G4      0.091250
     46 H25         4.0640   -4.2520    0.5760 hc        1 3G4      0.083333
     47 H25A        2.5740   -3.8780    0.1080 hc        1 3G4      0.083333
     48 H25B        3.3550   -2.9250    1.1350 hc        1 3G4      0.083333
@<TRIPOS>BOND
     1    1    2 1   
     2    2    3 1   
     3    2    6 1   
     4    3    4 1   
     5    3   27 1   
     6    4   28 1   
     7    5    8 1   
     8    5   29 1   
     9    6    8 1   
    10    7   30 1   
    11    7   31 1   
    12    7   32 1   
    13    8    9 1   
    14    9   10 1   
    15    9   11 1   
    16   12   13 1   
    17   12   33 1   
    18   13   14 1   
    19   13   15 1   
    20   14   18 1   
    21   15   34 1   
    22   16   17 1   
    23   16   35 1   
    24   17   36 1   
    25   18   19 1   
    26   19   20 1   
    27   19   37 1   
    28   19   38 1   
    29   20   21 1   
    30   20   22 1   
    31   22   23 1   
    32   22   25 1   
    33   23   24 1   
    34   23   39 1   
    35   23   40 1   
    36   24   41 1   
    37   24   42 1   
    38   24   43 1   
    39   25   26 1   
    40   25   44 1   
    41   25   45 1   
    42   26   46 1   
    43   26   47 1   
    44   26   48 1   
@<TRIPOS>SUBSTRUCTURE
     1 3G4         1 TEMP              0 ****  ****    0 ROOT
