@<TRIPOS>MOLECULE
3G5
   30    32     1     0     0
SMALL
bcc


@<TRIPOS>ATOM
      1 CAI        -0.1810   -0.0070   -0.4540 c2        1 3G5     -0.183000
      2 CAG         3.2780   -0.0540    0.1490 c1        1 3G5      0.014000
      3 CAR        -0.7810    0.0350    0.7420 c2        1 3G5     -0.140000
      4 OAC         4.4960    0.0040    0.7000 os        1 3G5     -0.279000
      5 OAA         4.6940    0.2800    3.0150 o         1 3G5     -0.324000
      6 CAH         1.3760    0.1800    1.9790 c1        1 3G5     -0.484000
      7 CAJ        -0.0300    0.2000    2.0480 c3        1 3G5      0.065000
      8 CAS        -3.0230   -1.0460    0.2890 c2        1 3G5     -0.080000
      9 CAW        -4.1060    0.8930    1.9060 c2        1 3G5      0.145000
     10 OAM        -2.7710    0.9050    1.6810 os        1 3G5     -0.070000
     11 CAU        -4.4830   -1.0970    0.4800 c2        1 3G5      0.325000
     12 CAQ        -4.5980    1.9860    2.7970 c3        1 3G5     -0.183000
     13 BrF        -4.0230    1.7170    4.6430 br        1 3G5      0.079000
     14 CAK        -6.0530    2.1200    2.9200 c1        1 3G5     -0.051000
     15 CAP         2.5300    0.1060    1.4450 c2        1 3G5     -0.181000
     16 CAL        -6.3840    0.1080    1.5790 c2        1 3G5      0.100000
     17 CAT        -2.2350   -0.0850    0.8530 c2        1 3G5      0.024000
     18 CAO        -6.8830    1.1500    2.3270 c2        1 3G5     -0.315000
     19 CAV        -4.9800   -0.0150    1.3400 c2        1 3G5     -0.301000
     20 H1          0.9200    0.0500   -0.5360 ha        1 3G5      0.140500
     21 H2         -0.7360   -0.0920   -1.3970 ha        1 3G5      0.140500
     22 H4         -0.3730    1.1800    2.4910 hc        1 3G5      0.082000
     23 H5         -0.3820   -0.6220    2.7370 hc        1 3G5      0.082000
     24 H6         -4.1530    2.9700    2.4780 h1        1 3G5      0.195000
     25 H7         -7.0320   -0.6610    1.1160 ha        1 3G5      0.170000
     26 H8         -1.5670   -2.0450   -0.4460 ho        1 3G5      0.234000
     27 CAN         3.9330    0.1740    2.0810 c2        1 3G5      0.257000
     28 OAB        -5.2220   -1.9490   -0.0270 o         1 3G5     -0.296000
     29 BrE        -8.7290    1.3260    2.5870 br        1 3G5      0.058000
     30 OAD        -2.5380   -2.0410   -0.5240 oh        1 3G5     -0.224000
@<TRIPOS>BOND
     1    1    3 1   
     2    1   20 1   
     3    1   21 1   
     4    2    4 1   
     5    2   15 1   
     6    3    7 1   
     7    3   17 1   
     8    4   27 1   
     9    5   27 1   
    10    6    7 1   
    11    6   15 1   
    12    7   22 1   
    13    7   23 1   
    14    8   11 1   
    15    8   17 1   
    16    8   30 1   
    17    9   10 1   
    18    9   12 1   
    19    9   19 1   
    20   10   17 1   
    21   11   19 1   
    22   11   28 1   
    23   12   13 1   
    24   12   14 1   
    25   12   24 1   
    26   14   18 1   
    27   15   27 1   
    28   16   18 1   
    29   16   19 1   
    30   16   25 1   
    31   18   29 1   
    32   26   30 1   
@<TRIPOS>SUBSTRUCTURE
     1 3G5         1 TEMP              0 ****  ****    0 ROOT
