@<TRIPOS>MOLECULE
3G6
   56    59     1     0     0
SMALL
bcc


@<TRIPOS>ATOM
      1 CAY        -0.1480    0.2190    0.1440 c3        1 3G6     -0.050000
      2 CAX         1.9740   -1.3100    3.6790 c3        1 3G6     -0.019800
      3 CAW         1.4010    0.1710    0.1560 c3        1 3G6     -0.069700
      4 CAV        -0.4270    0.4100   -1.3690 c3        1 3G6     -0.027700
      5 CAU         1.4540   -1.1620    2.2300 c3        1 3G6     -0.045700
      6 CAT         1.9570    0.1270    1.5640 c3        1 3G6     -0.049700
      7 CAS        -1.7680    0.9970   -1.7720 c3        1 3G6     -0.190700
      8 CAR         3.4720   -1.1220    3.7050 c2        1 3G6     -0.005400
      9 CAQ        -1.7440    1.2670   -3.3060 c         1 3G6      0.913600
     10 CAP         3.8360   -3.0300    5.2430 c         1 3G6      0.575300
     11 CAO        -0.6220   -1.0930    0.7490 c3        1 3G6     -0.064400
     12 OAD         4.6170   -3.8140    5.8000 o         1 3G6     -0.557100
     13 CAM        -0.0640   -1.2840    2.1510 c3        1 3G6     -0.072400
     14 CAL         1.8150    1.3000   -0.7760 c3        1 3G6     -0.071400
     15 CAH         2.3480   -3.1350    5.4200 c3        1 3G6     -0.181400
     16 CAG         4.2980   -1.9190    4.4080 ce        1 3G6     -0.287200
     17 CAA        -2.9280    0.0870   -1.4520 c3        1 3G6     -0.063100
     18 CAC        -0.7100    1.3950    0.9230 c3        1 3G6     -0.077100
     19 OAE        -1.6940    2.4740   -3.6770 o         1 3G6     -0.844300
     20 OAF        -1.7730    0.2800   -4.0920 o         1 3G6     -0.844300
     21 CAK         0.7270    1.3150   -1.8510 c3        1 3G6     -0.084400
     22 CAJ         3.4750    0.1390    1.5510 c3        1 3G6     -0.073400
     23 CAI         4.0200    0.0470    2.9600 c3        1 3G6     -0.056200
     24 CAN         1.6080   -2.7200    4.1690 c3        1 3G6     -0.070400
     25 CAB         1.3510   -0.2780    4.6140 c3        1 3G6     -0.084100
     26 H1          1.7080   -0.7920   -0.3500 hc        1 3G6      0.043700
     27 H2         -0.3360   -0.5940   -1.8680 hc        1 3G6      0.054700
     28 H3          1.8890   -2.0230    1.6420 hc        1 3G6      0.048700
     29 H4          1.5980    1.0220    2.1410 hc        1 3G6      0.053700
     30 H5         -1.9170    1.9870   -1.2620 hc        1 3G6      0.037700
     31 H6         -1.7420   -1.1130    0.7970 hc        1 3G6      0.044700
     32 H7         -0.2990   -1.9440    0.0940 hc        1 3G6      0.044700
     33 H8         -0.3660   -2.3020    2.5130 hc        1 3G6      0.031700
     34 H9         -0.5380   -0.5320    2.8350 hc        1 3G6      0.031700
     35 H10         2.8260    1.1150   -1.2140 hc        1 3G6      0.024700
     36 H11         1.8550    2.2750   -0.2300 hc        1 3G6      0.024700
     37 H12         2.0580   -2.4740    6.2800 hc        1 3G6      0.065700
     38 H13         2.0700   -4.1870    5.6940 hc        1 3G6      0.065700
     39 H14         5.3890   -1.7650    4.3940 ha        1 3G6      0.142000
     40 H15        -3.0610   -0.0410   -0.3500 hc        1 3G6      0.015367
     41 H16        -3.8690    0.5220   -1.8700 hc        1 3G6      0.015367
     42 H17        -2.7710   -0.9140   -1.9210 hc        1 3G6      0.015367
     43 H18        -0.3940    1.3780    1.9930 hc        1 3G6      0.030033
     44 H19        -1.8270    1.3670    0.8900 hc        1 3G6      0.030033
     45 H20        -0.3660    2.3550    0.4660 hc        1 3G6      0.030033
     46 H22         0.3510    2.3540   -2.0320 hc        1 3G6      0.065700
     47 H23         1.1170    0.9310   -2.8250 hc        1 3G6      0.065700
     48 H24         3.8580   -0.7180    0.9370 hc        1 3G6      0.048700
     49 H25         3.8360    1.0850    1.0690 hc        1 3G6      0.048700
     50 H26         5.1410    0.0000    2.9250 hc        1 3G6      0.050200
     51 H27         3.7410    0.9770    3.5290 hc        1 3G6      0.050200
     52 H28         0.5060   -2.7600    4.3730 hc        1 3G6      0.051700
     53 H29         1.8270   -3.4580    3.3530 hc        1 3G6      0.051700
     54 H30         1.4560    0.7500    4.1920 hc        1 3G6      0.039033
     55 H31         1.8550   -0.3070    5.6110 hc        1 3G6      0.039033
     56 H32         0.2660   -0.4920    4.7640 hc        1 3G6      0.039033
@<TRIPOS>BOND
     1    1    3 1   
     2    1    4 1   
     3    1   11 1   
     4    1   18 1   
     5    2    5 1   
     6    2    8 1   
     7    2   24 1   
     8    2   25 1   
     9    3    6 1   
    10    3   14 1   
    11    3   26 1   
    12    4    7 1   
    13    4   21 1   
    14    4   27 1   
    15    5    6 1   
    16    5   13 1   
    17    5   28 1   
    18    6   22 1   
    19    6   29 1   
    20    7    9 1   
    21    7   17 1   
    22    7   30 1   
    23    8   16 2   
    24    8   23 1   
    25    9   19 1   
    26    9   20 1   
    27   10   12 2   
    28   10   15 1   
    29   10   16 1   
    30   11   13 1   
    31   11   31 1   
    32   11   32 1   
    33   13   33 1   
    34   13   34 1   
    35   14   21 1   
    36   14   35 1   
    37   14   36 1   
    38   15   24 1   
    39   15   37 1   
    40   15   38 1   
    41   16   39 1   
    42   17   40 1   
    43   17   41 1   
    44   17   42 1   
    45   18   43 1   
    46   18   44 1   
    47   18   45 1   
    48   21   46 1   
    49   21   47 1   
    50   22   23 1   
    51   22   48 1   
    52   22   49 1   
    53   23   50 1   
    54   23   51 1   
    55   24   52 1   
    56   24   53 1   
    57   25   54 1   
    58   25   55 1   
    59   25   56 1   
@<TRIPOS>SUBSTRUCTURE
     1 3G6         1 TEMP              0 ****  ****    0 ROOT
