@<TRIPOS>MOLECULE
3G7
   63    61     1     0     0
SMALL
bcc


@<TRIPOS>ATOM
      1 N1          2.5390   -0.3770   -1.3130 ns        1 3G7     -0.317000
      2 C2          2.3560   -0.4170    5.6750 c2        1 3G7     -0.281000
      3 C4          0.0300   -0.6660    4.8740 c3        1 3G7     -0.185000
      4 C5          0.4900   -0.1200    3.5560 c2        1 3G7      0.117000
      5 C6          1.8100    0.2370    3.3840 c2        1 3G7     -0.279000
      6 C7          2.7390    0.0870    4.4490 c2        1 3G7      0.075000
      7 C10         3.1970   -0.6930   -2.5090 c2        1 3G7     -0.063000
      8 C16        -1.2940    3.8770   -5.9630 c1        1 3G7     -0.245000
      9 C17         0.5000    3.5550   -1.3600 c3        1 3G7     -0.175000
     10 C18        -1.9290    4.7110   -4.9810 c2        1 3G7      0.440000
     11 C20        -3.3820    6.6410   -3.2480 c3        1 3G7     -0.180000
     12 C21        -4.1680    7.6210   -2.5380 c1        1 3G7     -0.150000
     13 C23        -5.2220    8.3610   -4.6120 c2        1 3G7      0.028000
     14 C22        -5.0680    8.4540   -3.2400 c2        1 3G7     -0.036000
     15 O3         -5.8100    9.3830   -2.5430 oh        1 3G7     -0.245000
     16 C24        -4.4610    7.4050   -5.3550 c2        1 3G7     -0.251000
     17 C19        -3.5660    6.5600   -4.7340 c2        1 3G7      0.076000
     18 O2         -1.6850    4.6070   -3.7640 o         1 3G7     -0.343000
     19 C15        -0.7360    3.1590   -6.7390 c1        1 3G7     -0.064000
     20 C14         1.1530    2.6030   -3.5310 c1        1 3G7     -0.203000
     21 N2          1.3420    2.7790   -2.2510 n3        1 3G7     -0.135000
     22 C12         2.1030    0.8530   -0.8820 c2        1 3G7      0.300000
     23 O1          1.4320    0.9110    0.1750 o         1 3G7     -0.421000
     24 C9         -2.7000   -0.1880    1.5990 c3        1 3G7     -0.262000
     25 C8         -1.7080   -0.3290    2.6800 c1        1 3G7     -0.112000
     26 C11         3.0340   -0.1310   -3.7140 c2        1 3G7     -0.258000
     27 N          -0.4400    0.0200    2.5090 n7        1 3G7     -0.180000
     28 C3          1.0210   -0.8010    5.9250 c1        1 3G7     -0.106000
     29 O           4.5490   -0.2870    6.5810 o         1 3G7     -0.337000
     30 C           2.8320   -1.0580    8.0650 c3        1 3G7     -0.243000
     31 H2         -0.4490   -1.6810    4.7160 hc        1 3G7      0.185500
     32 H3          2.1730    0.6440    2.4240 ha        1 3G7      0.160000
     33 H4          3.7890    0.3840    4.2720 ha        1 3G7      0.153000
     34 H5          3.9010   -1.5420   -2.3690 h4        1 3G7      0.133000
     35 H6          3.6280   -0.4900   -4.5650 ha        1 3G7      0.151000
     36 H7         -0.4330    3.8720   -1.9020 h1        1 3G7      0.105333
     37 H8          0.2210    2.9380   -0.4640 h1        1 3G7      0.105333
     38 H9          1.0510    4.4690   -1.0130 h1        1 3G7      0.105333
     39 H10        -3.5930    5.6270   -2.7770 hc        1 3G7      0.190000
     40 H11        -2.2910    6.8360   -3.0050 hc        1 3G7      0.190000
     41 H12        -5.5600    9.2890   -1.6080 ho        1 3G7      0.241000
     42 H13        -4.6210    7.3730   -6.4460 ha        1 3G7      0.149000
     43 H14        -2.6390    4.0030   -1.5250 ha        1 3G7      0.002500
     44 H15        -2.9360    3.5480   -1.9290 ha        1 3G7      0.002500
     45 H16         0.2710    3.1140   -3.9750 ha        1 3G7      0.069000
     46 H17        -0.2320    2.5170   -7.4210 ha        1 3G7      0.240000
     47 H21         2.3090   -1.1550   -0.7300 hn        1 3G7      0.240000
     48 H22        -3.1440   -1.2020    1.4200 hc        1 3G7      0.097667
     49 H23        -2.3300    0.2180    0.6230 hc        1 3G7      0.097667
     50 H24        -3.5140    0.4810    1.9790 hc        1 3G7      0.097667
     51 H25        -0.0630    0.3940    1.6510 hn        1 3G7      0.211000
     52 H26         2.3410    0.6990   -3.9370 ha        1 3G7      0.151000
     53 H27        -0.8110   -0.0210    5.2760 hc        1 3G7      0.185500
     54 H28         2.3070   -2.0330    7.9120 hc        1 3G7      0.104667
     55 H29         2.0860   -0.3280    8.4650 hc        1 3G7      0.104667
     56 H30         3.6620   -1.1860    8.8000 hc        1 3G7      0.104667
     57 C1          3.3520   -0.5630    6.7570 c2        1 3G7      0.289000
     58 C13         2.4860    2.1470   -1.6110 c3        1 3G7     -0.051000
     59 N3         -2.8350    5.6420   -5.4880 ns        1 3G7     -0.312000
     60 Cl         -6.2850    9.3360   -5.4950 cl        1 3G7      0.027000
     61 H1         -2.9850    5.6490   -6.4750 hn        1 3G7      0.244000
     62 H19         2.8990    2.8410   -0.8240 h1        1 3G7      0.131500
     63 H20         3.2810    1.9580   -2.3860 h1        1 3G7      0.131500
@<TRIPOS>BOND
     1    1    7 1   
     2    1   22 1   
     3    1   47 1   
     4    2    6 1   
     5    2   28 1   
     6    2   57 1   
     7    3    4 1   
     8    3   28 1   
     9    3   31 1   
    10    3   53 1   
    11    4    5 1   
    12    4   27 1   
    13    5    6 1   
    14    5   32 1   
    15    6   33 1   
    16    7   26 1   
    17    7   34 1   
    18    8   10 1   
    19    8   19 1   
    20    9   21 1   
    21    9   36 1   
    22    9   37 1   
    23    9   38 1   
    24   10   18 1   
    25   10   59 1   
    26   11   12 1   
    27   11   17 1   
    28   11   39 1   
    29   11   40 1   
    30   12   14 1   
    31   13   14 1   
    32   13   16 1   
    33   13   60 1   
    34   14   15 1   
    35   15   41 1   
    36   16   17 1   
    37   16   42 1   
    38   17   59 1   
    39   19   46 1   
    40   20   21 1   
    41   20   45 1   
    42   21   58 1   
    43   22   23 1   
    44   22   58 1   
    45   24   25 1   
    46   24   48 1   
    47   24   49 1   
    48   24   50 1   
    49   25   27 1   
    50   26   35 1   
    51   26   52 1   
    52   27   51 1   
    53   29   57 1   
    54   30   54 1   
    55   30   55 1   
    56   30   56 1   
    57   30   57 1   
    58   43   44 1   
    59   58   62 1   
    60   58   63 1   
    61   59   61 1   
@<TRIPOS>SUBSTRUCTURE
     1 3G7         1 TEMP              0 ****  ****    0 ROOT
