@<TRIPOS>MOLECULE
3G7
   63    62     1     0     0
SMALL
bcc


@<TRIPOS>ATOM
      1 N1          2.1180    0.1710   -0.3000 n         1 3G7     -0.399000
      2 C2          2.6150   -0.6820    4.6040 c2        1 3G7     -0.276000
      3 C4          0.1510   -0.6510    4.3880 c3        1 3G7     -0.189000
      4 C5          0.3170    0.4000    3.3320 c2        1 3G7      0.127000
      5 C6          1.5790    0.8560    3.0120 c2        1 3G7     -0.304000
      6 C7          2.7230    0.3180    3.6610 c2        1 3G7      0.060000
      7 C10         2.9250   -0.6570   -1.1630 c3        1 3G7     -0.119000
      8 C16         0.3750    4.5960   -3.2920 c3        1 3G7     -0.198000
      9 C17        -0.0410    3.5800   -2.2280 c3        1 3G7     -0.095000
     10 C18        -0.5830    5.7820   -3.3080 c2        1 3G7      0.295000
     11 C20        -2.6430    7.8960   -3.4890 c3        1 3G7     -0.180000
     12 C21        -3.7500    8.8120   -3.6370 c1        1 3G7     -0.169000
     13 C23        -5.1500    7.0480   -4.5730 c2        1 3G7      0.044000
     14 C22        -4.9720    8.3640   -4.1750 c2        1 3G7     -0.051000
     15 O3         -6.0200    9.2530   -4.3110 oh        1 3G7     -0.253000
     16 C24        -4.0860    6.1090   -4.4430 c2        1 3G7     -0.274000
     17 C19        -2.8570    6.4760   -3.9240 c2        1 3G7      0.096000
     18 O2         -0.2020    6.8940   -2.8920 o         1 3G7     -0.357000
     19 C15        -2.2690    2.9960   -4.7750 c1        1 3G7     -0.277000
     20 C14        -0.8640    1.5720   -3.4020 c1        1 3G7      0.019000
     21 N2          0.0350    2.1870   -2.6720 n3        1 3G7     -0.176000
     22 C12         1.2530    1.1400   -0.7420 c2        1 3G7      0.295000
     23 O1          0.5610    1.7780    0.0830 o         1 3G7     -0.400000
     24 C9         -3.2430    0.9930    2.3480 c3        1 3G7     -0.265000
     25 C8         -2.0330    0.4800    3.0140 c1        1 3G7     -0.102000
     26 C11         3.9050   -1.5570   -0.5930 c1        1 3G7     -0.038000
     27 N          -0.8200    0.9020    2.6750 n3        1 3G7     -0.183000
     28 C3          1.3540   -1.1790    5.0020 c1        1 3G7     -0.098000
     29 O           4.9550   -1.0450    4.7220 o         1 3G7     -0.335000
     30 C           3.6410   -2.0650    6.4500 c3        1 3G7     -0.249000
     31 H2         -0.4460   -1.5210    3.9730 hc        1 3G7      0.190500
     32 H3          1.7270    1.6510    2.2610 ha        1 3G7      0.154000
     33 H4          3.7170    0.7190    3.3860 ha        1 3G7      0.152000
     34 H5          3.5010    0.0020   -1.8910 h1        1 3G7      0.150500
     35 H6          2.2540   -1.3270   -1.7980 h1        1 3G7      0.150500
     36 H7          1.3990    4.9910   -3.0580 hc        1 3G7      0.121500
     37 H8         -1.1050    3.7660   -1.9000 h1        1 3G7      0.131000
     38 H9          0.6070    3.7060   -1.3130 h1        1 3G7      0.131000
     39 H10        -2.3200    7.9190   -2.4010 hc        1 3G7      0.186000
     40 H11        -1.7570    8.3360   -4.0470 hc        1 3G7      0.186000
     41 H12        -5.6940   10.1070   -3.9840 ho        1 3G7      0.237000
     42 H13        -4.2740    5.0730   -4.7710 ha        1 3G7      0.147000
     43 H14         0.4080    4.1440   -4.3180 hc        1 3G7      0.121500
     44 H15        -3.2750    2.5570   -4.8450 ha        1 3G7      0.059000
     45 H16        -1.7870    2.3100   -3.6660 ha        1 3G7      0.061000
     46 H17        -1.6090    2.7030   -5.6040 ha        1 3G7      0.059000
     47 H21         2.1450   -0.0050    0.6830 hn        1 3G7      0.245000
     48 H22        -3.7940    0.1100    1.9310 hc        1 3G7      0.101667
     49 H23        -3.0910    1.7410    1.5280 hc        1 3G7      0.101667
     50 H24        -3.8880    1.4560    3.1400 hc        1 3G7      0.101667
     51 H25         4.0240   -1.6360    0.4960 ha        1 3G7      0.077000
     52 H26        -0.6320    1.5760    1.9480 hn        1 3G7      0.207000
     53 H27        -0.5030   -0.2420    5.2200 hc        1 3G7      0.190500
     54 H28         2.8030   -2.7900    6.2960 hc        1 3G7      0.109000
     55 H29         4.5770   -2.6130    6.7130 hc        1 3G7      0.109000
     56 H30         3.3610   -1.3880    7.2950 hc        1 3G7      0.109000
     57 C1          3.8360   -1.2480    5.2170 c2        1 3G7      0.289000
     58 C13         1.2090    1.4360   -2.2470 c3        1 3G7     -0.061000
     59 N3         -1.8480    5.5320   -3.8120 n         1 3G7     -0.357000
     60 CL         -6.6040    6.4670   -5.2240 cl        1 3G7      0.009000
     61 H1         -2.0550    4.5460   -4.1580 hn        1 3G7      0.312000
     62 H19         1.2310    0.4660   -2.8260 h1        1 3G7      0.137000
     63 H20         2.1290    2.0380   -2.5010 h1        1 3G7      0.137000
@<TRIPOS>BOND
     1    1    7 1   
     2    1   22 1   
     3    1   47 1   
     4    2    6 1   
     5    2   28 1   
     6    2   57 1   
     7    3    4 1   
     8    3   28 1   
     9    3   31 1   
    10    3   53 1   
    11    4    5 1   
    12    4   27 1   
    13    5    6 1   
    14    5   32 1   
    15    6   33 1   
    16    7   26 1   
    17    7   34 1   
    18    7   35 1   
    19    8    9 1   
    20    8   10 1   
    21    8   36 1   
    22    8   43 1   
    23    9   21 1   
    24    9   37 1   
    25    9   38 1   
    26   10   18 1   
    27   10   59 1   
    28   11   12 1   
    29   11   17 1   
    30   11   39 1   
    31   11   40 1   
    32   12   14 1   
    33   13   14 1   
    34   13   16 1   
    35   13   60 1   
    36   14   15 1   
    37   15   41 1   
    38   16   17 1   
    39   16   42 1   
    40   17   59 1   
    41   19   44 1   
    42   19   46 1   
    43   20   21 1   
    44   20   45 1   
    45   21   58 1   
    46   22   23 1   
    47   22   58 1   
    48   24   25 1   
    49   24   48 1   
    50   24   49 1   
    51   24   50 1   
    52   25   27 1   
    53   26   51 1   
    54   27   52 1   
    55   29   57 1   
    56   30   54 1   
    57   30   55 1   
    58   30   56 1   
    59   30   57 1   
    60   58   62 1   
    61   58   63 1   
    62   59   61 1   
@<TRIPOS>SUBSTRUCTURE
     1 3G7         1 TEMP              0 ****  ****    0 ROOT
