@<TRIPOS>MOLECULE
3G7
   63    63     1     0     0
SMALL
bcc


@<TRIPOS>ATOM
      1 N1          2.1700    0.2160   -0.5350 n         1 3G7     -0.316000
      2 C2          2.5580   -0.3480    4.6840 c2        1 3G7     -0.278000
      3 C4          0.1370    0.0630    4.3880 c3        1 3G7     -0.187000
      4 C5          0.4860    0.9100    3.2010 c2        1 3G7      0.124000
      5 C6          1.8080    1.0810    2.8470 c2        1 3G7     -0.298000
      6 C7          2.8400    0.4540    3.5970 c2        1 3G7      0.068000
      7 C10         2.8410   -0.7610   -1.2810 c2        1 3G7     -0.063000
      8 C16         0.0010    4.2840   -3.7710 c3        1 3G7     -0.199000
      9 C17        -0.2650    3.0390   -2.9260 c3        1 3G7     -0.113000
     10 C18        -0.8960    5.4260   -3.3270 c2        1 3G7      0.309000
     11 C20        -2.9000    7.5020   -2.5950 c3        1 3G7     -0.177000
     12 C21        -3.9820    8.4130   -2.3070 c1        1 3G7     -0.148000
     13 C23        -5.5970    6.9190   -3.3650 c2        1 3G7      0.027000
     14 C22        -5.3010    8.0950   -2.7000 c2        1 3G7     -0.037000
     15 O3         -6.3200    8.9790   -2.4140 oh        1 3G7     -0.246000
     16 C24        -4.5550    5.9870   -3.6690 c2        1 3G7     -0.257000
     17 C19        -3.2460    6.2320   -3.3140 c2        1 3G7      0.077000
     18 O2         -0.4330    6.4180   -2.7400 o         1 3G7     -0.329000
     19 C15        -0.6570    0.8490   -5.0070 c3        1 3G7     -0.242000
     20 C14         0.4800    0.9760   -4.0840 c1        1 3G7     -0.148000
     21 N2          0.6510    1.9360   -3.2030 n3        1 3G7     -0.141000
     22 C12         1.6090    1.3890   -0.9790 c2        1 3G7      0.295000
     23 O1          0.9350    2.0750   -0.1740 o         1 3G7     -0.420000
     24 C9         -2.9110    2.0000    2.0750 c3        1 3G7     -0.263000
     25 C8         -1.8120    1.3710    2.8290 c1        1 3G7     -0.106000
     26 C11         2.6060   -1.1380   -2.5450 c2        1 3G7     -0.255000
     27 N          -0.5440    1.5160    2.4610 n3        1 3G7     -0.183000
     28 C3          1.2290   -0.5620    5.1100 c1        1 3G7     -0.101000
     29 O           4.8240   -0.9810    4.9980 o         1 3G7     -0.335000
     30 C           3.2860   -1.6750    6.7000 c3        1 3G7     -0.246000
     31 H2         -0.5870   -0.7510    4.0740 hc        1 3G7      0.188000
     32 H3          2.0940    1.7170    1.9920 ha        1 3G7      0.154000
     33 H4          3.8890    0.6220    3.2870 ha        1 3G7      0.154000
     34 H5          3.6260   -1.2620   -0.6760 h4        1 3G7      0.139000
     35 H6          3.2190   -1.9280   -2.9990 ha        1 3G7      0.149500
     36 H7          1.0620    4.6270   -3.6420 hc        1 3G7      0.123500
     37 H8         -1.3150    2.6760   -3.1120 h1        1 3G7      0.117500
     38 H9         -0.1840    3.3100   -1.8310 h1        1 3G7      0.117500
     39 H10        -2.3820    7.2630   -1.6130 hc        1 3G7      0.191500
     40 H11        -2.1170    8.0770   -3.1840 hc        1 3G7      0.191500
     41 H12        -5.9110    9.7300   -1.9540 ho        1 3G7      0.241000
     42 H13        -4.8440    5.0650   -4.2000 ha        1 3G7      0.146000
     43 H14        -0.1600    4.0660   -4.8590 hc        1 3G7      0.123500
     44 H15        -1.2160   -0.0820   -4.7270 hc        1 3G7      0.094333
     45 H16        -1.3800    1.7020   -5.0440 hc        1 3G7      0.094333
     46 H17        -0.2340    0.7000   -6.0350 hc        1 3G7      0.094333
     47 H21        -3.6140    1.1830    1.7670 hc        1 3G7      0.099000
     48 H22         2.0300    0.0010    0.4340 hn        1 3G7      0.245000
     49 H23        -2.6280    2.5900    1.1660 hc        1 3G7      0.099000
     50 H24        -3.4570    2.6750    2.7840 hc        1 3G7      0.099000
     51 H25        -0.2400    2.0440    1.6570 hn        1 3G7      0.211000
     52 H26         1.8310   -0.7060   -3.2000 ha        1 3G7      0.149500
     53 H27        -0.4530    0.6850    5.1310 hc        1 3G7      0.188000
     54 H28         2.4110   -2.3500    6.5290 hc        1 3G7      0.106667
     55 H29         2.9810   -0.9010    7.4470 hc        1 3G7      0.106667
     56 H30         4.1460   -2.2600    7.1050 hc        1 3G7      0.106667
     57 C1          3.6590   -1.0010    5.4230 c2        1 3G7      0.289000
     58 C13         1.8610    1.9180   -2.3970 c3        1 3G7     -0.039000
     59 N3         -2.2520    5.3030   -3.6210 n         1 3G7     -0.323000
     60 CL         -7.1600    6.4960   -3.8560 cl        1 3G7      0.024000
     61 H1         -2.5440    4.4810   -4.1050 hn        1 3G7      0.234000
     62 H19         2.6470    1.3100   -2.9270 h1        1 3G7      0.134500
     63 H20         2.2370    2.9760   -2.2760 h1        1 3G7      0.134500
@<TRIPOS>BOND
     1    1    7 1   
     2    1   22 1   
     3    1   48 1   
     4    2    6 1   
     5    2   28 1   
     6    2   57 1   
     7    3    4 1   
     8    3   28 1   
     9    3   31 1   
    10    3   53 1   
    11    4    5 1   
    12    4   27 1   
    13    5    6 1   
    14    5   32 1   
    15    6   33 1   
    16    7   26 1   
    17    7   34 1   
    18    8    9 1   
    19    8   10 1   
    20    8   36 1   
    21    8   43 1   
    22    9   21 1   
    23    9   37 1   
    24    9   38 1   
    25   10   18 1   
    26   10   59 1   
    27   11   12 1   
    28   11   17 1   
    29   11   39 1   
    30   11   40 1   
    31   12   14 1   
    32   13   14 1   
    33   13   16 1   
    34   13   60 1   
    35   14   15 1   
    36   15   41 1   
    37   16   17 1   
    38   16   42 1   
    39   17   59 1   
    40   19   20 1   
    41   19   44 1   
    42   19   45 1   
    43   19   46 1   
    44   20   21 1   
    45   21   58 1   
    46   22   23 1   
    47   22   58 1   
    48   24   25 1   
    49   24   47 1   
    50   24   49 1   
    51   24   50 1   
    52   25   27 1   
    53   26   35 1   
    54   26   52 1   
    55   27   51 1   
    56   29   57 1   
    57   30   54 1   
    58   30   55 1   
    59   30   56 1   
    60   30   57 1   
    61   58   62 1   
    62   58   63 1   
    63   59   61 1   
@<TRIPOS>SUBSTRUCTURE
     1 3G7         1 TEMP              0 ****  ****    0 ROOT
