@<TRIPOS>MOLECULE
3G8
   40    42     1     0     0
SMALL
bcc


@<TRIPOS>ATOM
      1 CAA        -0.0100   -0.0770   -0.1170 c3        1 3G8     -0.121100
      2 CAL         1.5010   -0.0240    0.0610 c3        1 3G8      0.217300
      3 NAW         1.9480   -0.0060    1.4350 nh        1 3G8     -0.687000
      4 CAM         2.2620   -1.2800    2.0390 c3        1 3G8      0.217300
      5 CAB         3.6680   -1.8010    1.7810 c3        1 3G8     -0.121100
      6 CAQ         2.2320    1.1870    2.0800 ca        1 3G8      0.259600
      7 CAJ         3.0190    1.2160    3.2550 ca        1 3G8     -0.251000
      8 CAH         1.7130    2.4270    1.5880 ca        1 3G8     -0.231000
      9 CAI         1.9710    3.6160    2.2350 ca        1 3G8     -0.023000
     10 CAU         2.7480    3.6550    3.4070 ca        1 3G8     -0.226800
     11 CAK         3.0480    4.8630    4.1150 cc        1 3G8      0.053800
     12 CAV         3.2590    2.4350    3.8970 ca        1 3G8      0.209100
     13 OAN         4.0330    2.3710    5.0340 os        1 3G8     -0.326200
     14 CAT         4.3300    3.5480    5.7270 c         1 3G8      0.740800
     15 OAD         5.0450    3.3020    6.6960 o         1 3G8     -0.558500
     16 CAS         3.7940    4.8160    5.2490 cd        1 3G8     -0.316400
     17 CAP         4.1470    6.0530    5.9960 c         1 3G8      0.643900
     18 OAC         5.0390    6.8070    5.5930 o         1 3G8     -0.510100
     19 CAR         3.3620    6.3330    7.1900 cc        1 3G8     -0.223700
     20 SAO         2.0510    5.4340    7.7330 ss        1 3G8      0.094200
     21 CAF         1.7870    6.4010    9.0530 cc        1 3G8     -0.162100
     22 CAE         2.6960    7.4410    9.1270 cd        1 3G8     -0.173000
     23 CAG         3.6150    7.4040    8.0410 cd        1 3G8     -0.081000
     24 H1         -0.2410   -0.1040   -1.2090 hc        1 3G8      0.044867
     25 H2         -0.5010    0.8200    0.3310 hc        1 3G8      0.044867
     26 H3         -0.4380   -0.9890    0.3630 hc        1 3G8      0.044867
     27 H4          1.9520   -0.9310   -0.4390 h1        1 3G8      0.052700
     28 H5          1.9030    0.8820   -0.4780 h1        1 3G8      0.052700
     29 H6          1.5200   -2.0310    1.6390 h1        1 3G8      0.052700
     30 H7          2.0940   -1.2060    3.1520 h1        1 3G8      0.052700
     31 H8          4.4400   -1.1010    2.1810 hc        1 3G8      0.044867
     32 H9          3.7840   -2.7880    2.2900 hc        1 3G8      0.044867
     33 H10         3.8520   -1.9400    0.6890 hc        1 3G8      0.044867
     34 H11         3.4680    0.3070    3.6810 ha        1 3G8      0.162000
     35 H12         1.0810    2.4390    0.6860 ha        1 3G8      0.142000
     36 H13         1.5620    4.5580    1.8360 ha        1 3G8      0.138000
     37 H14         2.6610    5.8160    3.7190 ha        1 3G8      0.152000
     38 H15         0.9860    6.2200    9.7700 h4        1 3G8      0.174000
     39 H16         2.7200    8.2010    9.9110 ha        1 3G8      0.158000
     40 H17         4.4240    8.1250    7.8920 ha        1 3G8      0.172000
@<TRIPOS>BOND
     1    1    2 1   
     2    1   24 1   
     3    1   25 1   
     4    1   26 1   
     5    2    3 1   
     6    2   27 1   
     7    2   28 1   
     8    3    4 1   
     9    3    6 1   
    10    4    5 1   
    11    4   29 1   
    12    4   30 1   
    13    5   31 1   
    14    5   32 1   
    15    5   33 1   
    16    6    7 ar  
    17    6    8 ar  
    18    7   12 ar  
    19    7   34 1   
    20    8    9 ar  
    21    8   35 1   
    22    9   10 ar  
    23    9   36 1   
    24   10   11 1   
    25   10   12 ar  
    26   11   16 2   
    27   11   37 1   
    28   12   13 1   
    29   13   14 1   
    30   14   15 2   
    31   14   16 1   
    32   16   17 1   
    33   17   18 2   
    34   17   19 1   
    35   19   20 1   
    36   19   23 2   
    37   20   21 1   
    38   21   22 2   
    39   21   38 1   
    40   22   23 1   
    41   22   39 1   
    42   23   40 1   
@<TRIPOS>SUBSTRUCTURE
     1 3G8         1 TEMP              0 ****  ****    0 ROOT
