@<TRIPOS>MOLECULE
3G8
   40    42     1     0     0
SMALL
bcc


@<TRIPOS>ATOM
      1 CAA        -0.0200   -0.0710   -0.1140 c3        1 3G8     -0.121100
      2 CAL         1.4920   -0.0160    0.0580 c3        1 3G8      0.217300
      3 NAW         1.9430   -0.0010    1.4310 nh        1 3G8     -0.687000
      4 CAM         2.2640   -1.2760    2.0290 c3        1 3G8      0.217300
      5 CAB         3.6700   -1.7930    1.7630 c3        1 3G8     -0.121100
      6 CAQ         2.2280    1.1900    2.0780 ca        1 3G8      0.259600
      7 CAJ         3.0200    1.2170    3.2500 ca        1 3G8     -0.251000
      8 CAH         1.7040    2.4310    1.5920 ca        1 3G8     -0.231000
      9 CAI         1.9630    3.6180    2.2410 ca        1 3G8     -0.023000
     10 CAU         2.7440    3.6550    3.4100 ca        1 3G8     -0.226800
     11 CAK         3.0450    4.8620    4.1200 cc        1 3G8      0.053800
     12 CAV         3.2590    2.4350    3.8940 ca        1 3G8      0.209100
     13 OAN         4.0380    2.3690    5.0280 os        1 3G8     -0.326200
     14 CAT         4.3360    3.5450    5.7230 c         1 3G8      0.740800
     15 OAD         5.0550    3.2970    6.6890 o         1 3G8     -0.558500
     16 CAS         3.7960    4.8140    5.2500 cd        1 3G8     -0.316400
     17 CAP         4.1500    6.0490    5.9990 c         1 3G8      0.643900
     18 OAC         5.0400    6.8050    5.5960 o         1 3G8     -0.510100
     19 CAR         3.3690    6.3250    7.1970 cc        1 3G8     -0.223700
     20 SAO         2.0620    5.4230    7.7430 ss        1 3G8      0.094200
     21 CAF         1.8010    6.3860    9.0660 cc        1 3G8     -0.162100
     22 CAE         2.7080    7.4280    9.1390 cd        1 3G8     -0.173000
     23 CAG         3.6240    7.3940    8.0500 cd        1 3G8     -0.081000
     24 H1         -0.4450   -0.9860    0.3640 hc        1 3G8      0.044867
     25 H2         -0.5120    0.8220    0.3390 hc        1 3G8      0.044867
     26 H3         -0.2560   -0.0960   -1.2050 hc        1 3G8      0.044867
     27 H4          1.8900    0.8930   -0.4790 h1        1 3G8      0.052700
     28 H5          1.9430   -0.9210   -0.4460 h1        1 3G8      0.052700
     29 H6          2.1000   -1.2060    3.1430 h1        1 3G8      0.052700
     30 H7          1.5210   -2.0280    1.6290 h1        1 3G8      0.052700
     31 H8          3.8490   -1.9280    0.6700 hc        1 3G8      0.044867
     32 H9          3.7900   -2.7820    2.2690 hc        1 3G8      0.044867
     33 H10         4.4410   -1.0920    2.1630 hc        1 3G8      0.044867
     34 H11         3.4720    0.3080    3.6710 ha        1 3G8      0.162000
     35 H12         1.0690    2.4450    0.6930 ha        1 3G8      0.142000
     36 H13         1.5500    4.5600    1.8460 ha        1 3G8      0.138000
     37 H14         2.6550    5.8160    3.7290 ha        1 3G8      0.151000
     38 H15         1.0040    6.2020    9.7860 h4        1 3G8      0.174000
     39 H16         2.7350    8.1860    9.9240 ha        1 3G8      0.158000
     40 H17         4.4310    8.1170    7.8990 ha        1 3G8      0.172000
@<TRIPOS>BOND
     1    1    2 1   
     2    1   24 1   
     3    1   25 1   
     4    1   26 1   
     5    2    3 1   
     6    2   27 1   
     7    2   28 1   
     8    3    4 1   
     9    3    6 1   
    10    4    5 1   
    11    4   29 1   
    12    4   30 1   
    13    5   31 1   
    14    5   32 1   
    15    5   33 1   
    16    6    7 ar  
    17    6    8 ar  
    18    7   12 ar  
    19    7   34 1   
    20    8    9 ar  
    21    8   35 1   
    22    9   10 ar  
    23    9   36 1   
    24   10   11 1   
    25   10   12 ar  
    26   11   16 2   
    27   11   37 1   
    28   12   13 1   
    29   13   14 1   
    30   14   15 2   
    31   14   16 1   
    32   16   17 1   
    33   17   18 2   
    34   17   19 1   
    35   19   20 1   
    36   19   23 2   
    37   20   21 1   
    38   21   22 2   
    39   21   38 1   
    40   22   23 1   
    41   22   39 1   
    42   23   40 1   
@<TRIPOS>SUBSTRUCTURE
     1 3G8         1 TEMP              0 ****  ****    0 ROOT
