@<TRIPOS>MOLECULE
3G9
   43    45     1     0     0
SMALL
bcc


@<TRIPOS>ATOM
      1 CAA         0.0530    0.0360    0.1710 c3        1 3G9     -0.198100
      2 CAQ         1.5500    0.0480    0.1850 c         1 3G9      0.581700
      3 OAB         2.1770    0.0250    1.2540 o         1 3G9     -0.543100
      4 CAT         2.2420    0.0870   -1.1170 ca        1 3G9     -0.210600
      5 CAI         3.6430    0.0900   -1.1460 ca        1 3G9     -0.053500
      6 CAK         4.3360    0.1310   -2.3490 ca        1 3G9     -0.191500
      7 CAH         1.5490    0.1200   -2.3320 ca        1 3G9     -0.053500
      8 CAJ         2.2270    0.1560   -3.5420 ca        1 3G9     -0.191500
      9 CAV         3.6440    0.1590   -3.5820 ca        1 3G9      0.173600
     10 NAX         4.3130    0.1050   -4.8250 nh        1 3G9     -0.642000
     11 CAP         5.7530   -0.0860   -4.7850 c3        1 3G9      0.163300
     12 CAN         6.3560   -0.3520   -6.1830 c3        1 3G9      0.075500
     13 CAO         3.8810    1.0650   -5.8280 c3        1 3G9      0.163300
     14 CAM         4.4950    0.7880   -7.2210 c3        1 3G9      0.075500
     15 NAW         5.9240    0.5850   -7.1990 n         1 3G9     -0.454800
     16 CAR         6.8200    1.5480   -7.6700 c         1 3G9      0.663700
     17 OAC         8.0130    1.5320   -7.3120 o         1 3G9     -0.583100
     18 CAU         6.3430    2.5420   -8.6770 ca        1 3G9     -0.127600
     19 CAL         6.5800    3.8990   -8.4360 ca        1 3G9     -0.084000
     20 CAS         6.1840    4.8400   -9.3910 ca        1 3G9      0.009400
     21 Cl1         6.4530    6.4920   -9.1010 cl        1 3G9     -0.082400
     22 CAF         5.5750    4.4350  -10.5830 ca        1 3G9     -0.107000
     23 CAE         5.3600    3.0780  -10.8170 ca        1 3G9     -0.128000
     24 CAG         5.7380    2.1290   -9.8680 ca        1 3G9     -0.102000
     25 H1         -0.3150   -0.8610   -0.3840 hc        1 3G9      0.063367
     26 H2         -0.3310    0.9570   -0.3310 hc        1 3G9      0.063367
     27 H3         -0.3440    0.0020    1.2150 hc        1 3G9      0.063367
     28 H4          4.1960    0.0670   -0.1910 ha        1 3G9      0.145000
     29 H5          5.4360    0.1430   -2.3170 ha        1 3G9      0.138500
     30 H6          0.4470    0.1140   -2.3410 ha        1 3G9      0.145000
     31 H7          1.6410    0.1620   -4.4740 ha        1 3G9      0.138500
     32 H8          5.9710   -0.9890   -4.1490 h1        1 3G9      0.049950
     33 H9          6.2750    0.8050   -4.3290 h1        1 3G9      0.049950
     34 H10         7.4780   -0.3260   -6.0860 h1        1 3G9      0.070950
     35 H11         6.0470   -1.3810   -6.5260 h1        1 3G9      0.070950
     36 H12         2.7640    1.0050   -5.9390 h1        1 3G9      0.049950
     37 H13         4.1440    2.1180   -5.5160 h1        1 3G9      0.049950
     38 H14         4.2240    1.6510   -7.8890 h1        1 3G9      0.070950
     39 H15         4.0290   -0.1490   -7.6420 h1        1 3G9      0.070950
     40 H16         7.0860    4.2120   -7.5090 ha        1 3G9      0.164000
     41 H17         5.2720    5.1810  -11.3340 ha        1 3G9      0.152000
     42 H18         4.8900    2.7540  -11.7580 ha        1 3G9      0.143000
     43 H19         5.5700    1.0580  -10.0590 ha        1 3G9      0.148000
@<TRIPOS>BOND
     1    1    2 1   
     2    1   25 1   
     3    1   26 1   
     4    1   27 1   
     5    2    3 2   
     6    2    4 1   
     7    4    5 ar  
     8    4    7 ar  
     9    5    6 ar  
    10    5   28 1   
    11    6    9 ar  
    12    6   29 1   
    13    7    8 ar  
    14    7   30 1   
    15    8    9 ar  
    16    8   31 1   
    17    9   10 1   
    18   10   11 1   
    19   10   13 1   
    20   11   12 1   
    21   11   32 1   
    22   11   33 1   
    23   12   15 1   
    24   12   34 1   
    25   12   35 1   
    26   13   14 1   
    27   13   36 1   
    28   13   37 1   
    29   14   15 1   
    30   14   38 1   
    31   14   39 1   
    32   15   16 1   
    33   16   17 2   
    34   16   18 1   
    35   18   19 ar  
    36   18   24 ar  
    37   19   20 ar  
    38   19   40 1   
    39   20   21 1   
    40   20   22 ar  
    41   22   23 ar  
    42   22   41 1   
    43   23   24 ar  
    44   23   42 1   
    45   24   43 1   
@<TRIPOS>SUBSTRUCTURE
     1 3G9         1 TEMP              0 ****  ****    0 ROOT
