@<TRIPOS>MOLECULE
3G9
   43    45     1     0     0
SMALL
bcc


@<TRIPOS>ATOM
      1 CAA         0.0490    0.0520    0.1700 c3        1 3G9     -0.198100
      2 CAQ         1.5460    0.0610    0.1850 c         1 3G9      0.581700
      3 OAB         2.1730    0.0390    1.2530 o         1 3G9     -0.543100
      4 CAT         2.2390    0.0960   -1.1170 ca        1 3G9     -0.210600
      5 CAI         3.6400    0.0970   -1.1460 ca        1 3G9     -0.053500
      6 CAK         4.3330    0.1340   -2.3490 ca        1 3G9     -0.191500
      7 CAH         1.5460    0.1290   -2.3330 ca        1 3G9     -0.053500
      8 CAJ         2.2240    0.1610   -3.5430 ca        1 3G9     -0.191500
      9 CAV         3.6410    0.1610   -3.5830 ca        1 3G9      0.173600
     10 NAX         4.3100    0.1040   -4.8250 nh        1 3G9     -0.642000
     11 CAP         5.7500   -0.0910   -4.7850 c3        1 3G9      0.163300
     12 CAN         6.3530   -0.3600   -6.1820 c3        1 3G9      0.075500
     13 CAO         3.8810    1.0640   -5.8290 c3        1 3G9      0.163300
     14 CAM         4.4950    0.7840   -7.2210 c3        1 3G9      0.075500
     15 NAW         5.9230    0.5780   -7.1990 n         1 3G9     -0.453800
     16 CAR         6.8210    1.5390   -7.6700 c         1 3G9      0.663700
     17 OAC         8.0140    1.5200   -7.3110 o         1 3G9     -0.583100
     18 CAU         6.3470    2.5340   -8.6760 ca        1 3G9     -0.127600
     19 CAL         6.5850    3.8900   -8.4340 ca        1 3G9     -0.084000
     20 CAS         6.1920    4.8330   -9.3890 ca        1 3G9      0.010400
     21 CL1         6.4630    6.4850   -9.0970 cl        1 3G9     -0.082400
     22 CAF         5.5840    4.4300  -10.5820 ca        1 3G9     -0.107000
     23 CAE         5.3670    3.0730  -10.8170 ca        1 3G9     -0.128000
     24 CAG         5.7430    2.1230   -9.8680 ca        1 3G9     -0.102000
     25 H1         -0.3480    0.0210    1.2140 hc        1 3G9      0.063367
     26 H2         -0.3330    0.9730   -0.3340 hc        1 3G9      0.063367
     27 H3         -0.3210   -0.8450   -0.3830 hc        1 3G9      0.063367
     28 H4          4.1930    0.0740   -0.1920 ha        1 3G9      0.145000
     29 H5          5.4330    0.1440   -2.3170 ha        1 3G9      0.138500
     30 H6          0.4440    0.1250   -2.3420 ha        1 3G9      0.145000
     31 H7          1.6390    0.1660   -4.4750 ha        1 3G9      0.138500
     32 H8          6.2740    0.7990   -4.3290 h1        1 3G9      0.049950
     33 H9          5.9660   -0.9940   -4.1470 h1        1 3G9      0.049950
     34 H10         7.4750   -0.3360   -6.0850 h1        1 3G9      0.070950
     35 H11         6.0410   -1.3880   -6.5240 h1        1 3G9      0.070950
     36 H12         2.7630    1.0060   -5.9410 h1        1 3G9      0.049950
     37 H13         4.1460    2.1170   -5.5190 h1        1 3G9      0.049950
     38 H14         4.2250    1.6470   -7.8910 h1        1 3G9      0.070950
     39 H15         4.0270   -0.1520   -7.6420 h1        1 3G9      0.070950
     40 H16         7.0910    4.2030   -7.5060 ha        1 3G9      0.164000
     41 H17         5.2830    5.1760  -11.3330 ha        1 3G9      0.152000
     42 H18         4.8980    2.7500  -11.7590 ha        1 3G9      0.143000
     43 H19         5.5740    1.0520  -10.0600 ha        1 3G9      0.148000
@<TRIPOS>BOND
     1    1    2 1   
     2    1   25 1   
     3    1   26 1   
     4    1   27 1   
     5    2    3 2   
     6    2    4 1   
     7    4    5 ar  
     8    4    7 ar  
     9    5    6 ar  
    10    5   28 1   
    11    6    9 ar  
    12    6   29 1   
    13    7    8 ar  
    14    7   30 1   
    15    8    9 ar  
    16    8   31 1   
    17    9   10 1   
    18   10   11 1   
    19   10   13 1   
    20   11   12 1   
    21   11   32 1   
    22   11   33 1   
    23   12   15 1   
    24   12   34 1   
    25   12   35 1   
    26   13   14 1   
    27   13   36 1   
    28   13   37 1   
    29   14   15 1   
    30   14   38 1   
    31   14   39 1   
    32   15   16 1   
    33   16   17 2   
    34   16   18 1   
    35   18   19 ar  
    36   18   24 ar  
    37   19   20 ar  
    38   19   40 1   
    39   20   21 1   
    40   20   22 ar  
    41   22   23 ar  
    42   22   41 1   
    43   23   24 ar  
    44   23   42 1   
    45   24   43 1   
@<TRIPOS>SUBSTRUCTURE
     1 3G9         1 TEMP              0 ****  ****    0 ROOT
