@<TRIPOS>MOLECULE
3GA
   32    30     1     0     0
SMALL
bcc


@<TRIPOS>ATOM
      1 C2         -0.5100    0.9900   -2.1340 c3        1 3GA     -0.078400
      2 C3          1.0130    0.9900   -2.1340 c3        1 3GA      0.176800
      3 N          -1.5080   -0.8460    3.1140 n3        1 3GA     -0.888800
      4 CA         -2.0700   -0.9390    1.8110 c3        1 3GA      0.051500
      5 C          -3.1610   -1.9850    1.8060 c         1 3GA      0.523900
      6 O          -4.3290   -1.6460    1.7810 o         1 3GA     -0.527100
      7 CB         -0.9930   -1.3300    0.8250 c3        1 3GA     -0.068400
      8 CZ          2.8970    1.4560   -0.5570 c1        1 3GA      0.527600
      9 NE          1.5760    0.9900   -0.7770 n2        1 3GA     -0.589400
     10 C1         -1.0710   -0.0780   -1.2920 c3        1 3GA     -0.075400
     11 CG         -0.5010   -0.0720    0.0740 c3        1 3GA     -0.066700
     12 CD          1.0250   -0.0680    0.0650 c3        1 3GA      0.182800
     13 NH1         3.0950    2.6040    0.0350 n1        1 3GA     -0.632800
     14 NH2         4.0040    0.6760   -0.9790 n3        1 3GA     -0.798400
     15 H21        -0.8260    0.8680   -3.0500 hc        1 3GA      0.052200
     16 H22        -0.8260    1.8520   -1.8030 hc        1 3GA      0.052200
     17 H31         1.3280    0.1960   -2.6060 h1        1 3GA      0.034200
     18 H32         1.3280    1.7840   -2.6060 h1        1 3GA      0.034200
     19 H          -1.8020   -0.0830    3.5180 hn        1 3GA      0.357300
     20 HA         -2.4460   -0.0760    1.5560 h1        1 3GA      0.082700
     21 HB1        -0.2450   -1.7360    1.3040 hc        1 3GA      0.046700
     22 HB2        -1.3550   -1.9710    0.1840 hc        1 3GA      0.046700
     23 H11        -0.8840   -0.9400   -1.7090 hc        1 3GA      0.041700
     24 H12        -2.0380    0.0420   -1.2310 hc        1 3GA      0.041700
     25 HG         -0.8170    0.7220    0.5450 hc        1 3GA      0.085700
     26 HD1         1.3450    0.0560    0.9790 h1        1 3GA      0.040200
     27 HD2         1.3410   -0.9310   -0.2650 h1        1 3GA      0.040200
     28 HN11        2.3840    3.1060    0.3070 DU        1 3GA      0.161000
     29 H2         -1.7640   -1.5690    3.6080 hn        1 3GA      0.357300
     30 HN21        4.3630    0.8050   -1.8080 hn        1 3GA      0.391800
     31 HN22        4.3750    0.0650   -0.4120 hn        1 3GA      0.391800
     32 H3         -2.9290   -2.9320    1.8500 h4        1 3GA      0.000200
@<TRIPOS>BOND
     1    1    2 1   
     2    1   10 1   
     3    1   15 1   
     4    1   16 1   
     5    2    9 1   
     6    2   17 1   
     7    2   18 1   
     8    3    4 1   
     9    3   19 1   
    10    3   29 1   
    11    4    5 1   
    12    4    7 1   
    13    4   20 1   
    14    5    6 2   
    15    5   32 1   
    16    7   11 1   
    17    7   21 1   
    18    7   22 1   
    19    8   13 3   
    20    8   14 1   
    21    9   12 1   
    22   10   11 1   
    23   10   23 1   
    24   10   24 1   
    25   11   12 1   
    26   11   25 1   
    27   12   26 1   
    28   12   27 1   
    29   14   30 1   
    30   14   31 1   
@<TRIPOS>SUBSTRUCTURE
     1 3GA         1 TEMP              0 ****  ****    0 ROOT
