@<TRIPOS>MOLECULE
3GA
   32    32     1     0     0
SMALL
bcc


@<TRIPOS>ATOM
      1 C2         -1.8570    2.2210   -0.4130 c3        1 3GA     -0.107400
      2 C3         -2.5630    1.2540    0.5360 c3        1 3GA      0.171800
      3 N           2.4620   -1.3080    1.0720 n3        1 3GA     -0.887800
      4 CA          2.4100   -0.4460   -0.0920 c3        1 3GA      0.047500
      5 C           3.7580   -0.1400   -0.7360 c         1 3GA      0.524900
      6 O           4.8250   -0.5900   -0.3170 o         1 3GA     -0.533100
      7 CB          1.6900    0.8880    0.1750 c3        1 3GA     -0.061400
      8 NE         -2.0070   -0.0920    0.5840 nh        1 3GA     -0.697600
      9 C1         -0.3690    2.2470   -0.1400 c3        1 3GA     -0.075400
     10 CG          0.2200    0.8440   -0.2090 c3        1 3GA     -0.093700
     11 CD         -0.5580   -0.1040    0.7150 c3        1 3GA      0.187800
     12 NH1        -1.9020   -1.2110   -1.5600 n2        1 3GA     -0.861100
     13 NH2        -3.8560   -1.4730   -0.1460 nh        1 3GA     -0.928800
     14 H21        -2.0420    1.9130   -1.4750 hc        1 3GA      0.051700
     15 H22        -2.2900    3.2440   -0.2720 hc        1 3GA      0.051700
     16 H31        -2.4820    1.6550    1.5870 h1        1 3GA      0.055700
     17 H32        -3.6540    1.2030    0.2670 h1        1 3GA      0.055700
     18 H           3.0370   -2.1060    0.8740 hn        1 3GA      0.354800
     19 HA          1.8240   -1.0160   -0.8810 h1        1 3GA      0.091700
     20 HB1         1.7880    1.1820    1.2530 hc        1 3GA      0.046700
     21 HB2         2.1830    1.6960   -0.4310 hc        1 3GA      0.046700
     22 H11         0.1400    2.9070   -0.8890 hc        1 3GA      0.038700
     23 H12        -0.1810    2.6820    0.8770 hc        1 3GA      0.038700
     24 HG          0.1320    0.4740   -1.2690 hc        1 3GA      0.077700
     25 HD1        -0.3540    0.1930    1.7840 h1        1 3GA      0.066700
     26 HD2        -0.1820   -1.1540    0.5660 h1        1 3GA      0.066700
     27 HN11       -2.3250   -1.8670   -2.1800 hn        1 3GA      0.389400
     28 H2          2.8560   -0.8210    1.8540 hn        1 3GA      0.354800
     29 HN21       -4.1550   -1.3280    0.7940 hn        1 3GA      0.392800
     30 HN22       -4.0020   -2.4120   -0.4470 hn        1 3GA      0.392800
     31 H3          3.7120    0.5130   -1.6360 h4        1 3GA      0.001200
     32 CZ         -2.5520   -0.9700   -0.4530 c2        1 3GA      0.740100
@<TRIPOS>BOND
     1    1    2 1   
     2    1    9 1   
     3    1   14 1   
     4    1   15 1   
     5    2    8 1   
     6    2   16 1   
     7    2   17 1   
     8    3    4 1   
     9    3   18 1   
    10    3   28 1   
    11    4    5 1   
    12    4    7 1   
    13    4   19 1   
    14    5    6 2   
    15    5   31 1   
    16    7   10 1   
    17    7   20 1   
    18    7   21 1   
    19    8   11 1   
    20    8   32 1   
    21    9   10 1   
    22    9   22 1   
    23    9   23 1   
    24   10   11 1   
    25   10   24 1   
    26   11   25 1   
    27   11   26 1   
    28   12   27 1   
    29   12   32 2   
    30   13   29 1   
    31   13   30 1   
    32   13   32 1   
@<TRIPOS>SUBSTRUCTURE
     1 3GA         1 TEMP              0 ****  ****    0 ROOT
