@<TRIPOS>MOLECULE
3GC
   28    27     1     0     0
SMALL
bcc


@<TRIPOS>ATOM
      1 N1          0.3730    0.7320    0.9850 n3        1 3GC     -0.898800
      2 CA1         1.1720    0.0310   -0.0140 c3        1 3GC      0.025500
      3 C1          2.2140   -0.9670    0.5900 c         1 3GC      0.889600
      4 O11         2.3540   -1.0040    1.8490 o         1 3GC     -0.853300
      5 O12         2.8400   -1.7200   -0.2060 o         1 3GC     -0.853300
      6 CB1         1.8880    0.9650   -0.9950 c3        1 3GC     -0.061400
      7 CG1         0.9070    1.7130   -1.8740 c3        1 3GC     -0.144400
      8 CD1         1.5900    2.7910   -2.7050 c         1 3GC      0.649100
      9 OE1         2.2360    3.7080   -2.1490 o         1 3GC     -0.649100
     10 N2          1.4820    2.7010   -4.0810 n         1 3GC     -0.524900
     11 CA2         1.8000    3.7980   -4.9660 c3        1 3GC     -0.034300
     12 C2          0.5720    4.2330   -5.8610 c         1 3GC      0.905600
     13 O2          0.6660    5.3530   -6.4330 o         1 3GC     -0.836800
     14 CB2         2.9210    3.4720   -5.9530 c3        1 3GC      0.037700
     15 SG2         4.5220    3.5490   -5.1770 sh        1 3GC     -0.398900
     16 O3         -0.4070    3.4460   -5.9750 o         1 3GC     -0.836800
     17 H11         0.3390    0.1510    1.8080 hn        1 3GC      0.329800
     18 H22         0.8510    1.5750    1.2510 hn        1 3GC      0.329800
     19 HA1         0.4440   -0.6010   -0.6040 h1        1 3GC      0.038700
     20 HB11        2.5650    0.3310   -1.6270 hc        1 3GC      0.058700
     21 HB12        2.5300    1.6990   -0.4430 hc        1 3GC      0.058700
     22 HG11        0.3530    0.9800   -2.5160 hc        1 3GC      0.052700
     23 HG12        0.1490    2.2450   -1.2400 hc        1 3GC      0.052700
     24 H2          0.7610    2.1080   -4.4400 hn        1 3GC      0.311500
     25 HA2         2.1080    4.6940   -4.3520 h1        1 3GC      0.086700
     26 HB21        2.8790    4.2360   -6.7690 h1        1 3GC      0.059700
     27 HB22        2.7760    2.4610   -6.4020 h1        1 3GC      0.059700
     28 HG2         5.2570    3.4010   -6.2600 hs        1 3GC      0.147800
@<TRIPOS>BOND
     1    1    2 1   
     2    1   17 1   
     3    1   18 1   
     4    2    3 1   
     5    2    6 1   
     6    2   19 1   
     7    3    4 1   
     8    3    5 1   
     9    6    7 1   
    10    6   20 1   
    11    6   21 1   
    12    7    8 1   
    13    7   22 1   
    14    7   23 1   
    15    8    9 2   
    16    8   10 1   
    17   10   11 1   
    18   10   24 1   
    19   11   12 1   
    20   11   14 1   
    21   11   25 1   
    22   12   13 1   
    23   12   16 1   
    24   14   15 1   
    25   14   26 1   
    26   14   27 1   
    27   15   28 1   
@<TRIPOS>SUBSTRUCTURE
     1 3GC         1 TEMP              0 ****  ****    0 ROOT
