@<TRIPOS>MOLECULE
3GC
   28    27     1     0     0
SMALL
bcc


@<TRIPOS>ATOM
      1 N1         -3.3330   -0.9020    2.5430 n3        1 3GC     -0.897800
      2 CA1        -1.9860   -1.3470    2.4320 c3        1 3GC      0.024500
      3 C1         -1.4540   -1.6870    3.8050 c         1 3GC      0.889600
      4 O11        -1.4810   -0.8250    4.7220 o         1 3GC     -0.852800
      5 O12        -0.9870   -2.8340    4.0330 o         1 3GC     -0.852800
      6 CB1        -1.1420   -0.2520    1.8210 c3        1 3GC     -0.061400
      7 CG1        -0.7550   -0.6410    0.4110 c3        1 3GC     -0.143400
      8 CD1         0.2900    0.3230   -0.1090 c         1 3GC      0.649100
      9 OE1         0.7980    1.1310    0.6420 o         1 3GC     -0.658100
     10 N2          0.6890    0.2690   -1.4690 n         1 3GC     -0.544900
     11 CA2         1.7140    1.1310   -1.9420 c3        1 3GC     -0.031300
     12 C2          1.0960    2.4000   -2.4840 c         1 3GC      0.902600
     13 O2          1.5920    3.5180   -2.1880 o         1 3GC     -0.838300
     14 CB2         2.4880    0.4370   -3.0410 c3        1 3GC      0.057700
     15 SG2         3.8610    1.4490   -3.5260 sh        1 3GC     -0.551900
     16 O3          0.0910    2.3380   -3.2400 o         1 3GC     -0.838300
     17 H11        -3.6270   -1.0290    3.4010 hn        1 3GC      0.329800
     18 H22        -3.8600   -1.3790    1.9650 hn        1 3GC      0.329800
     19 HA1        -1.9510   -2.1410    1.8630 h1        1 3GC      0.038700
     20 HB11       -1.6540    0.5810    1.8010 hc        1 3GC      0.059200
     21 HB12       -0.3340   -0.1250    2.3580 hc        1 3GC      0.059200
     22 HG11       -0.3900   -1.5480    0.4120 hc        1 3GC      0.053700
     23 HG12       -1.5450   -0.6070   -0.1650 hc        1 3GC      0.053700
     24 H2          0.2990   -0.3290   -2.0360 hn        1 3GC      0.324500
     25 HA2         2.3190    1.3510   -1.2070 h1        1 3GC      0.072700
     26 HB21        2.8170   -0.4240   -2.7150 h1        1 3GC      0.060200
     27 HB22        1.9020    0.2920   -3.8110 h1        1 3GC      0.060200
     28 HG2         4.5430    0.8510   -4.2780 hs        1 3GC      0.306800
@<TRIPOS>BOND
     1    1    2 1   
     2    1   17 1   
     3    1   18 1   
     4    2    3 1   
     5    2    6 1   
     6    2   19 1   
     7    3    4 1   
     8    3    5 1   
     9    6    7 1   
    10    6   20 1   
    11    6   21 1   
    12    7    8 1   
    13    7   22 1   
    14    7   23 1   
    15    8    9 2   
    16    8   10 1   
    17   10   11 1   
    18   10   24 1   
    19   11   12 1   
    20   11   14 1   
    21   11   25 1   
    22   12   13 1   
    23   12   16 1   
    24   14   15 1   
    25   14   26 1   
    26   14   27 1   
    27   15   28 1   
@<TRIPOS>SUBSTRUCTURE
     1 3GC         1 TEMP              0 ****  ****    0 ROOT
