@<TRIPOS>MOLECULE
3GC
   28    27     1     0     0
SMALL
bcc


@<TRIPOS>ATOM
      1 N1          1.3200    0.6520    3.9220 n3        1 3GC     -0.898800
      2 CA1        -0.0340    0.7890    3.3970 c3        1 3GC      0.025500
      3 C1         -1.1520    0.3310    4.3890 c         1 3GC      0.889600
      4 O11        -0.8050   -0.2070    5.4830 o         1 3GC     -0.853300
      5 O12        -2.3530    0.5550    4.0700 o         1 3GC     -0.853300
      6 CB1        -0.2450    0.0890    2.0500 c3        1 3GC     -0.061400
      7 CG1         0.5670    0.7380    0.9480 c3        1 3GC     -0.144400
      8 CD1         0.5270   -0.0700   -0.3420 c         1 3GC      0.649100
      9 OE1         0.9160   -1.2600   -0.3590 o         1 3GC     -0.649100
     10 N2          0.0320    0.5550   -1.4720 n         1 3GC     -0.524900
     11 CA2         0.2230    0.0320   -2.8060 c3        1 3GC     -0.034300
     12 C2          0.9830    1.0430   -3.7520 c         1 3GC      0.905600
     13 O2          1.4520    0.5650   -4.8210 o         1 3GC     -0.836800
     14 CB2        -1.0880   -0.2830   -3.5250 c3        1 3GC      0.037700
     15 SG2        -1.7970   -1.8160   -2.9570 sh        1 3GC     -0.398900
     16 O3          1.0610    2.2560   -3.4110 o         1 3GC     -0.836800
     17 H11         1.2610    0.6990    4.9270 hn        1 3GC      0.329800
     18 H22         1.6630   -0.2660    3.7010 hn        1 3GC      0.329800
     19 HA1        -0.1940    1.8980    3.2410 h1        1 3GC      0.038700
     20 HB11        0.0250   -0.9960    2.1240 hc        1 3GC      0.058700
     21 HB12       -1.3400    0.1510    1.8090 hc        1 3GC      0.058700
     22 HG11        0.2080    1.7880    0.7940 hc        1 3GC      0.052700
     23 HG12        1.6470    0.7920    1.2470 hc        1 3GC      0.052700
     24 H2         -0.0220    1.5530   -1.4500 hn        1 3GC      0.311500
     25 HA2         0.8410   -0.9120   -2.7490 h1        1 3GC      0.086700
     26 HB21       -1.8280    0.5400   -3.3860 h1        1 3GC      0.059700
     27 HB22       -0.8560   -0.3770   -4.6150 h1        1 3GC      0.059700
     28 HG2        -2.7750   -1.9010   -3.8360 hs        1 3GC      0.147800
@<TRIPOS>BOND
     1    1    2 1   
     2    1   17 1   
     3    1   18 1   
     4    2    3 1   
     5    2    6 1   
     6    2   19 1   
     7    3    4 1   
     8    3    5 1   
     9    6    7 1   
    10    6   20 1   
    11    6   21 1   
    12    7    8 1   
    13    7   22 1   
    14    7   23 1   
    15    8    9 2   
    16    8   10 1   
    17   10   11 1   
    18   10   24 1   
    19   11   12 1   
    20   11   14 1   
    21   11   25 1   
    22   12   13 1   
    23   12   16 1   
    24   14   15 1   
    25   14   26 1   
    26   14   27 1   
    27   15   28 1   
@<TRIPOS>SUBSTRUCTURE
     1 3GC         1 TEMP              0 ****  ****    0 ROOT
