@<TRIPOS>MOLECULE
3GF
   52    56     1     0     0
SMALL
bcc


@<TRIPOS>ATOM
      1 C29        -0.1570   -0.4090    0.2170 c3        1 3GF      0.157100
      2 N26         1.2670   -0.1930    0.1090 n3        1 3GF     -0.732600
      3 C27         1.9160   -0.0780    1.4070 c3        1 3GF      0.163300
      4 C28         3.4380    0.1510    1.3040 c3        1 3GF      0.186300
      5 N18         4.0860   -0.8260    0.4380 nh        1 3GF     -0.726300
      6 C24         3.4390   -0.9510   -0.8620 c3        1 3GF      0.186300
      7 C25         1.9190   -1.1770   -0.7410 c3        1 3GF      0.163300
      8 C14         5.5000   -0.8200    0.4100 ca        1 3GF      0.562200
      9 C15         6.2070   -1.8420   -0.2820 ca        1 3GF     -0.234300
     10 C16         7.6070   -1.8630   -0.2070 cp        1 3GF     -0.077300
     11 C17         8.3340   -2.8920   -0.9470 cp        1 3GF     -0.012000
     12 C19         9.3440   -2.5570   -1.8590 ca        1 3GF     -0.226800
     13 C20         9.9780   -3.5920   -2.5710 ca        1 3GF      0.391700
     14 N21         9.6700   -4.8950   -2.4260 nb        1 3GF     -0.657000
     15 C22         8.6980   -5.2030   -1.5460 ca        1 3GF      0.391700
     16 C23         8.0010   -4.2460   -0.7890 ca        1 3GF     -0.226800
     17 C11         8.2410   -0.8660    0.5750 cq        1 3GF      0.365800
     18 N12         7.4810    0.0970    1.2090 nb        1 3GF     -0.273000
     19 N13         6.2260    0.1350    1.1350 nb        1 3GF     -0.345000
     20 C8          9.6970   -0.8140    0.7640 cq        1 3GF     -0.139500
     21 C7         10.3980    0.3500    0.5240 ca        1 3GF     -0.082000
     22 C6         11.8040    0.3990    0.7230 ca        1 3GF     -0.044000
     23 C5         12.5480    1.5850    0.4720 ca        1 3GF     -0.113000
     24 C4         13.9060    1.6110    0.6730 ca        1 3GF     -0.129000
     25 C3         14.5830    0.4560    1.1330 ca        1 3GF     -0.123000
     26 C2         13.8890   -0.7020    1.3850 ca        1 3GF     -0.120000
     27 C1         12.4820   -0.7570    1.1860 ca        1 3GF     -0.030000
     28 C10        11.7350   -1.9390    1.4430 ca        1 3GF     -0.120000
     29 C9         10.3790   -1.9690    1.2380 ca        1 3GF     -0.108000
     30 H1         -0.6030   -0.4000   -0.8120 h1        1 3GF      0.034700
     31 H2         -0.6040    0.4300    0.8120 h1        1 3GF      0.034700
     32 H3         -0.4250   -1.3820    0.7140 h1        1 3GF      0.034700
     33 H5          1.4770    0.8150    1.9330 h1        1 3GF      0.041200
     34 H6          1.7280   -0.9870    2.0490 h1        1 3GF      0.041200
     35 H7          3.8650    0.0490    2.3400 h1        1 3GF      0.054700
     36 H8          3.6250    1.2030    0.9440 h1        1 3GF      0.054700
     37 H9          3.6210   -0.0310   -1.4900 h1        1 3GF      0.054700
     38 H10         3.8680   -1.8370   -1.4060 h1        1 3GF      0.054700
     39 H11         1.4810   -1.0860   -1.7740 h1        1 3GF      0.041200
     40 H12         1.7370   -2.2310   -0.3790 h1        1 3GF      0.041200
     41 H13         5.6830   -2.6140   -0.8620 ha        1 3GF      0.156000
     42 H14         9.6420   -1.5110   -2.0110 ha        1 3GF      0.151500
     43 H15        10.7780   -3.3650   -3.2980 h4        1 3GF      0.025600
     44 H16         8.4660   -6.2790   -1.4430 h4        1 3GF      0.025600
     45 H17         7.2140   -4.5540   -0.0870 ha        1 3GF      0.151500
     46 H18         9.8800    1.2600    0.1820 ha        1 3GF      0.145000
     47 H19        12.0120    2.4790    0.1170 ha        1 3GF      0.135000
     48 H20        14.4830    2.5270    0.4810 ha        1 3GF      0.133000
     49 H21        15.6710    0.5010    1.2870 ha        1 3GF      0.133000
     50 H22        14.4060   -1.6040    1.7450 ha        1 3GF      0.134000
     51 H23        12.2660   -2.8290    1.8120 ha        1 3GF      0.136000
     52 H24         9.7990   -2.8820    1.4380 ha        1 3GF      0.138000
@<TRIPOS>BOND
     1    1    2 1   
     2    1   30 1   
     3    1   31 1   
     4    1   32 1   
     5    2    3 1   
     6    2    7 1   
     7    3    4 1   
     8    3   33 1   
     9    3   34 1   
    10    4    5 1   
    11    4   35 1   
    12    4   36 1   
    13    5    6 1   
    14    5    8 1   
    15    6    7 1   
    16    6   37 1   
    17    6   38 1   
    18    7   39 1   
    19    7   40 1   
    20    8    9 ar  
    21    8   19 ar  
    22    9   10 ar  
    23    9   41 1   
    24   10   11 1   
    25   10   17 1   
    26   11   12 ar  
    27   11   16 ar  
    28   12   13 ar  
    29   12   42 1   
    30   13   14 ar  
    31   13   43 1   
    32   14   15 ar  
    33   15   16 ar  
    34   15   44 1   
    35   16   45 1   
    36   17   18 2   
    37   17   20 1   
    38   18   19 ar  
    39   20   21 1   
    40   20   29 2   
    41   21   22 ar  
    42   21   46 1   
    43   22   23 ar  
    44   22   27 ar  
    45   23   24 ar  
    46   23   47 1   
    47   24   25 ar  
    48   24   48 1   
    49   25   26 ar  
    50   25   49 1   
    51   26   27 ar  
    52   26   50 1   
    53   27   28 ar  
    54   28   29 ar  
    55   28   51 1   
    56   29   52 1   
@<TRIPOS>SUBSTRUCTURE
     1 3GF         1 TEMP              0 ****  ****    0 ROOT
