@<TRIPOS>MOLECULE
3GF
   52    56     1     0     0
SMALL
bcc


@<TRIPOS>ATOM
      1 C29        -0.1570   -0.4060    0.2100 c3        1 3GF      0.157100
      2 N26         1.2680   -0.1910    0.1020 n3        1 3GF     -0.732600
      3 C27         1.9160   -0.0700    1.3990 c3        1 3GF      0.163300
      4 C28         3.4380    0.1570    1.2960 c3        1 3GF      0.186300
      5 N18         4.0860   -0.8240    0.4350 nh        1 3GF     -0.726300
      6 C24         3.4400   -0.9550   -0.8650 c3        1 3GF      0.186300
      7 C25         1.9190   -1.1800   -0.7430 c3        1 3GF      0.163300
      8 C14         5.5000   -0.8180    0.4080 ca        1 3GF      0.562200
      9 C15         6.2070   -1.8440   -0.2790 ca        1 3GF     -0.234300
     10 C16         7.6070   -1.8650   -0.2030 cp        1 3GF     -0.077300
     11 C17         8.3340   -2.8980   -0.9380 cp        1 3GF     -0.012000
     12 C19         9.3450   -2.5680   -1.8510 ca        1 3GF     -0.226800
     13 C20         9.9780   -3.6070   -2.5570 ca        1 3GF      0.391700
     14 N21         9.6700   -4.9090   -2.4060 nb        1 3GF     -0.657000
     15 C22         8.6980   -5.2120   -1.5240 ca        1 3GF      0.391700
     16 C23         8.0000   -4.2510   -0.7730 ca        1 3GF     -0.226800
     17 C11         8.2400   -0.8640    0.5740 cq        1 3GF      0.365800
     18 N12         7.4810    0.1020    1.2030 nb        1 3GF     -0.273000
     19 N13         6.2260    0.1400    1.1280 nb        1 3GF     -0.345000
     20 C8          9.6970   -0.8110    0.7630 cq        1 3GF     -0.139500
     21 C7         10.3970    0.3510    0.5190 ca        1 3GF     -0.082000
     22 C6         11.8040    0.4020    0.7180 ca        1 3GF     -0.044000
     23 C5         12.5470    1.5870    0.4620 ca        1 3GF     -0.113000
     24 C4         13.9060    1.6130    0.6630 ca        1 3GF     -0.129000
     25 C3         14.5830    0.4600    1.1290 ca        1 3GF     -0.123000
     26 C2         13.8880   -0.6970    1.3850 ca        1 3GF     -0.120000
     27 C1         12.4820   -0.7520    1.1860 ca        1 3GF     -0.030000
     28 C10        11.7350   -1.9330    1.4470 ca        1 3GF     -0.120000
     29 C9         10.3790   -1.9640    1.2420 ca        1 3GF     -0.108000
     30 H1         -0.4250   -1.3770    0.7120 h1        1 3GF      0.034700
     31 H2         -0.6040    0.4360    0.8010 h1        1 3GF      0.034700
     32 H3         -0.6020   -0.4020   -0.8190 h1        1 3GF      0.034700
     33 H5          1.7270   -0.9760    2.0460 h1        1 3GF      0.041200
     34 H6          1.4770    0.8260    1.9210 h1        1 3GF      0.041200
     35 H7          3.8650    0.0610    2.3330 h1        1 3GF      0.054700
     36 H8          3.6260    1.2080    0.9310 h1        1 3GF      0.054700
     37 H9          3.8690   -1.8440   -1.4040 h1        1 3GF      0.054700
     38 H10         3.6220   -0.0380   -1.4970 h1        1 3GF      0.054700
     39 H11         1.7370   -2.2320   -0.3750 h1        1 3GF      0.041200
     40 H12         1.4820   -1.0940   -1.7770 h1        1 3GF      0.041200
     41 H13         5.6830   -2.6180   -0.8550 ha        1 3GF      0.156000
     42 H14         9.6430   -1.5220   -2.0080 ha        1 3GF      0.151500
     43 H15        10.7790   -3.3830   -3.2850 h4        1 3GF      0.025600
     44 H16         8.4660   -6.2870   -1.4170 h4        1 3GF      0.025600
     45 H17         7.2130   -4.5550   -0.0700 ha        1 3GF      0.151500
     46 H18         9.8800    1.2600    0.1730 ha        1 3GF      0.145000
     47 H19        12.0110    2.4790    0.1040 ha        1 3GF      0.135000
     48 H20        14.4830    2.5290    0.4680 ha        1 3GF      0.133000
     49 H21        15.6710    0.5060    1.2820 ha        1 3GF      0.133000
     50 H22        14.4050   -1.5980    1.7480 ha        1 3GF      0.134000
     51 H23        12.2660   -2.8220    1.8200 ha        1 3GF      0.136000
     52 H24         9.7990   -2.8770    1.4450 ha        1 3GF      0.138000
@<TRIPOS>BOND
     1    1    2 1   
     2    1   30 1   
     3    1   31 1   
     4    1   32 1   
     5    2    3 1   
     6    2    7 1   
     7    3    4 1   
     8    3   33 1   
     9    3   34 1   
    10    4    5 1   
    11    4   35 1   
    12    4   36 1   
    13    5    6 1   
    14    5    8 1   
    15    6    7 1   
    16    6   37 1   
    17    6   38 1   
    18    7   39 1   
    19    7   40 1   
    20    8    9 ar  
    21    8   19 ar  
    22    9   10 ar  
    23    9   41 1   
    24   10   11 1   
    25   10   17 1   
    26   11   12 ar  
    27   11   16 ar  
    28   12   13 ar  
    29   12   42 1   
    30   13   14 ar  
    31   13   43 1   
    32   14   15 ar  
    33   15   16 ar  
    34   15   44 1   
    35   16   45 1   
    36   17   18 2   
    37   17   20 1   
    38   18   19 ar  
    39   20   21 1   
    40   20   29 2   
    41   21   22 ar  
    42   21   46 1   
    43   22   23 ar  
    44   22   27 ar  
    45   23   24 ar  
    46   23   47 1   
    47   24   25 ar  
    48   24   48 1   
    49   25   26 ar  
    50   25   49 1   
    51   26   27 ar  
    52   26   50 1   
    53   27   28 ar  
    54   28   29 ar  
    55   28   51 1   
    56   29   52 1   
@<TRIPOS>SUBSTRUCTURE
     1 3GF         1 TEMP              0 ****  ****    0 ROOT
