@<TRIPOS>MOLECULE
3GG
   33    35     1     0     0
SMALL
bcc


@<TRIPOS>ATOM
      1 O21        -0.3990    0.2290    0.1120 o         1 3GG     -0.605100
      2 C8          0.8490    0.2410    0.0750 c         1 3GG      0.775100
      3 N7          1.6330    0.3630    1.2420 n         1 3GG     -0.460100
      4 C3          1.0960    0.2350    2.5410 ca        1 3GG      0.055600
      5 C4          1.9090   -0.3150    3.5600 ca        1 3GG     -0.154000
      6 C5          1.4400   -0.3880    4.8670 ca        1 3GG     -0.108000
      7 C6          0.1620    0.0700    5.1880 ca        1 3GG     -0.146000
      8 C1         -0.6460    0.6070    4.1890 ca        1 3GG     -0.108000
      9 C2         -0.1940    0.6970    2.8740 ca        1 3GG     -0.154000
     10 N9          1.5560    0.1520   -1.1480 n         1 3GG     -0.472100
     11 C10         0.9460    0.1800   -2.4110 ca        1 3GG      0.099600
     12 C11         1.7090    0.6190   -3.5220 ca        1 3GG     -0.170500
     13 C12         1.1710    0.6080   -4.8010 ca        1 3GG     -0.067500
     14 C13        -0.1440    0.1680   -5.0140 ca        1 3GG     -0.173500
     15 C14        -0.9040   -0.2700   -3.9220 ca        1 3GG     -0.067500
     16 C15        -0.3740   -0.2690   -2.6380 ca        1 3GG     -0.170500
     17 C16        -0.6880    0.1700   -6.3600 cc        1 3GG      0.462000
     18 N17        -2.0570    0.1240   -6.7030 na        1 3GG     -0.184400
     19 N18        -2.1520    0.1500   -8.0400 nc        1 3GG     -0.196800
     20 N19        -0.9610    0.2070   -8.5140 nd        1 3GG     -0.047000
     21 N20        -0.0290    0.2230   -7.5650 nd        1 3GG     -0.378000
     22 H1          2.6030    0.1430    1.1760 hn        1 3GG      0.309500
     23 H2          2.9200   -0.6850    3.3320 ha        1 3GG      0.148000
     24 H3          2.0840   -0.8140    5.6500 ha        1 3GG      0.135500
     25 H4         -0.2040    0.0050    6.2220 ha        1 3GG      0.135000
     26 H5         -1.6570    0.9680    4.4340 ha        1 3GG      0.135500
     27 H6         -0.8550    1.1190    2.0990 ha        1 3GG      0.148000
     28 H7          2.5240    0.3890   -1.1480 hn        1 3GG      0.315500
     29 H8          2.7440    0.9720   -3.3860 ha        1 3GG      0.159000
     30 H9          1.7840    0.9490   -5.6510 ha        1 3GG      0.147000
     31 H10        -1.9320   -0.6370   -4.0630 ha        1 3GG      0.147000
     32 H11        -0.9990   -0.6180   -1.7980 ha        1 3GG      0.159000
     33 H12        -2.8490    0.0880   -6.1070 hn        1 3GG      0.333700
@<TRIPOS>BOND
     1    1    2 2   
     2    2    3 1   
     3    2   10 1   
     4    3    4 1   
     5    3   22 1   
     6    4    5 ar  
     7    4    9 ar  
     8    5    6 ar  
     9    5   23 1   
    10    6    7 ar  
    11    6   24 1   
    12    7    8 ar  
    13    7   25 1   
    14    8    9 ar  
    15    8   26 1   
    16    9   27 1   
    17   10   11 1   
    18   10   28 1   
    19   11   12 ar  
    20   11   16 ar  
    21   12   13 ar  
    22   12   29 1   
    23   13   14 ar  
    24   13   30 1   
    25   14   15 ar  
    26   14   17 1   
    27   15   16 ar  
    28   15   31 1   
    29   16   32 1   
    30   17   18 1   
    31   17   21 2   
    32   18   19 1   
    33   18   33 1   
    34   19   20 2   
    35   20   21 1   
@<TRIPOS>SUBSTRUCTURE
     1 3GG         1 TEMP              0 ****  ****    0 ROOT
