@<TRIPOS>MOLECULE
3GG
   33    35     1     0     0
SMALL
bcc


@<TRIPOS>ATOM
      1 O21        -0.3990    0.2080    0.1120 o         1 3GG     -0.605100
      2 C8          0.8500    0.2440    0.0750 c         1 3GG      0.775100
      3 N7          1.6310    0.3750    1.2420 n         1 3GG     -0.460100
      4 C3          1.0980    0.2290    2.5410 ca        1 3GG      0.055600
      5 C4          1.9230   -0.3120    3.5560 ca        1 3GG     -0.154000
      6 C5          1.4550   -0.4020    4.8620 ca        1 3GG     -0.108000
      7 C6          0.1700    0.0300    5.1870 ca        1 3GG     -0.146000
      8 C1         -0.6490    0.5580    4.1920 ca        1 3GG     -0.108000
      9 C2         -0.2000    0.6640    2.8780 ca        1 3GG     -0.154000
     10 N9          1.5560    0.1770   -1.1490 n         1 3GG     -0.472100
     11 C10         0.9440    0.2010   -2.4120 ca        1 3GG      0.099600
     12 C11         1.6980    0.6620   -3.5200 ca        1 3GG     -0.170500
     13 C12         1.1580    0.6480   -4.7990 ca        1 3GG     -0.067500
     14 C13        -0.1480    0.1840   -5.0130 ca        1 3GG     -0.173500
     15 C14        -0.8970   -0.2780   -3.9240 ca        1 3GG     -0.067500
     16 C15        -0.3660   -0.2740   -2.6400 ca        1 3GG     -0.170500
     17 C16        -0.6930    0.1830   -6.3590 cc        1 3GG      0.462000
     18 N17        -2.0610    0.1110   -6.7010 na        1 3GG     -0.184400
     19 N18        -2.1590    0.1420   -8.0370 nc        1 3GG     -0.196800
     20 N19        -0.9690    0.2280   -8.5120 nd        1 3GG     -0.047000
     21 N20        -0.0370    0.2580   -7.5640 nd        1 3GG     -0.378000
     22 H1          2.6060    0.1740    1.1740 hn        1 3GG      0.309500
     23 H2          2.9400   -0.6620    3.3250 ha        1 3GG      0.148000
     24 H3          2.1080   -0.8210    5.6420 ha        1 3GG      0.135500
     25 H4         -0.1940   -0.0480    6.2210 ha        1 3GG      0.135000
     26 H5         -1.6660    0.8990    4.4400 ha        1 3GG      0.135500
     27 H6         -0.8690    1.0790    2.1060 ha        1 3GG      0.148000
     28 H7          2.5200    0.4340   -1.1490 hn        1 3GG      0.315500
     29 H8          2.7250    1.0360   -3.3830 ha        1 3GG      0.159000
     30 H9          1.7630    1.0080   -5.6470 ha        1 3GG      0.147000
     31 H10        -1.9180   -0.6640   -4.0660 ha        1 3GG      0.147000
     32 H11        -0.9830   -0.6400   -1.8020 ha        1 3GG      0.159000
     33 H12        -2.8520    0.0530   -6.1040 hn        1 3GG      0.333700
@<TRIPOS>BOND
     1    1    2 2   
     2    2    3 1   
     3    2   10 1   
     4    3    4 1   
     5    3   22 1   
     6    4    5 ar  
     7    4    9 ar  
     8    5    6 ar  
     9    5   23 1   
    10    6    7 ar  
    11    6   24 1   
    12    7    8 ar  
    13    7   25 1   
    14    8    9 ar  
    15    8   26 1   
    16    9   27 1   
    17   10   11 1   
    18   10   28 1   
    19   11   12 ar  
    20   11   16 ar  
    21   12   13 ar  
    22   12   29 1   
    23   13   14 ar  
    24   13   30 1   
    25   14   15 ar  
    26   14   17 1   
    27   15   16 ar  
    28   15   31 1   
    29   16   32 1   
    30   17   18 1   
    31   17   21 2   
    32   18   19 1   
    33   18   33 1   
    34   19   20 2   
    35   20   21 1   
@<TRIPOS>SUBSTRUCTURE
     1 3GG         1 TEMP              0 ****  ****    0 ROOT
