@<TRIPOS>MOLECULE
3GG
   33    35     1     0     0
SMALL
bcc


@<TRIPOS>ATOM
      1 O21        -0.4020    0.2090    0.1110 o         1 3GG     -0.605100
      2 C8          0.8460    0.2420    0.0770 c         1 3GG      0.775100
      3 N7          1.6250    0.3700    1.2450 ns        1 3GG     -0.460100
      4 C3          1.0890    0.2230    2.5430 ca        1 3GG      0.055600
      5 C4          1.9110   -0.3200    3.5590 ca        1 3GG     -0.154000
      6 C5          1.4410   -0.4100    4.8640 ca        1 3GG     -0.108000
      7 C6          0.1550    0.0230    5.1870 ca        1 3GG     -0.146000
      8 C1         -0.6610    0.5530    4.1900 ca        1 3GG     -0.108000
      9 C2         -0.2090    0.6600    2.8780 ca        1 3GG     -0.154000
     10 N9          1.5560    0.1750   -1.1460 ns        1 3GG     -0.472100
     11 C10         0.9470    0.2010   -2.4100 ca        1 3GG      0.099600
     12 C11         1.7050    0.6600   -3.5170 ca        1 3GG     -0.170500
     13 C12         1.1690    0.6480   -4.7960 ca        1 3GG     -0.067500
     14 C13        -0.1380    0.1890   -5.0150 ca        1 3GG     -0.173500
     15 C14        -0.8920   -0.2700   -3.9270 ca        1 3GG     -0.067500
     16 C15        -0.3650   -0.2690   -2.6420 ca        1 3GG     -0.170500
     17 C16        -0.6790    0.1910   -6.3620 cc        1 3GG      0.462000
     18 N17        -2.0470    0.1240   -6.7080 na        1 3GG     -0.184400
     19 N18        -2.1410    0.1570   -8.0440 nc        1 3GG     -0.196800
     20 N19        -0.9490    0.2370   -8.5150 nd        1 3GG     -0.047000
     21 N20        -0.0200    0.2620   -7.5650 nd        1 3GG     -0.378000
     22 H1          2.6000    0.1670    1.1790 hn        1 3GG      0.309500
     23 H2          2.9290   -0.6700    3.3300 ha        1 3GG      0.148000
     24 H3          2.0920   -0.8310    5.6460 ha        1 3GG      0.135500
     25 H4         -0.2110   -0.0560    6.2210 ha        1 3GG      0.135000
     26 H5         -1.6780    0.8940    4.4370 ha        1 3GG      0.135500
     27 H6         -0.8760    1.0760    2.1050 ha        1 3GG      0.148000
     28 H7          2.5200    0.4280   -1.1430 hn        1 3GG      0.315500
     29 H8          2.7330    1.0290   -3.3770 ha        1 3GG      0.159000
     30 H9          1.7780    1.0050   -5.6430 ha        1 3GG      0.147000
     31 H10        -1.9140   -0.6530   -4.0720 ha        1 3GG      0.147000
     32 H11        -0.9860   -0.6330   -1.8060 ha        1 3GG      0.159000
     33 H12        -2.8400    0.0710   -6.1130 hn        1 3GG      0.333700
@<TRIPOS>BOND
     1    1    2 2   
     2    2    3 1   
     3    2   10 1   
     4    3    4 1   
     5    3   22 1   
     6    4    5 ar  
     7    4    9 ar  
     8    5    6 ar  
     9    5   23 1   
    10    6    7 ar  
    11    6   24 1   
    12    7    8 ar  
    13    7   25 1   
    14    8    9 ar  
    15    8   26 1   
    16    9   27 1   
    17   10   11 1   
    18   10   28 1   
    19   11   12 ar  
    20   11   16 ar  
    21   12   13 ar  
    22   12   29 1   
    23   13   14 ar  
    24   13   30 1   
    25   14   15 ar  
    26   14   17 1   
    27   15   16 ar  
    28   15   31 1   
    29   16   32 1   
    30   17   18 1   
    31   17   21 2   
    32   18   19 1   
    33   18   33 1   
    34   19   20 2   
    35   20   21 1   
@<TRIPOS>SUBSTRUCTURE
     1 3GG         1 TEMP              0 ****  ****    0 ROOT
