@<TRIPOS>MOLECULE
3GH
  158   158     1     0     0
SMALL
bcc


@<TRIPOS>ATOM
      1 C1         -0.3570   -0.3160   -0.4610 c3        1 3GH      0.112400
      2 C2          1.1470   -0.1820   -0.1480 c3        1 3GH      0.055500
      3 N2          1.4130   -0.2020    1.3270 n4        1 3GH     -0.688800
      4 C3          1.7260    1.1100   -0.8040 c3        1 3GH      0.148100
      5 O3          1.2000    1.2160   -2.1090 oh        1 3GH     -0.565800
      6 C4          3.2430    1.0190   -0.9430 c3        1 3GH     -0.089400
      7 C5          3.8380    2.3780   -1.2490 c3        1 3GH     -0.080400
      8 C6          5.3360    2.2850   -1.4410 c3        1 3GH     -0.079400
      9 C7          5.9320    3.6460   -1.7350 c3        1 3GH     -0.079400
     10 C8          7.4310    3.5560   -1.9310 c3        1 3GH     -0.079400
     11 C9          8.0270    4.9160   -2.2250 c3        1 3GH     -0.079400
     12 C10         9.5240    4.8270   -2.4230 c3        1 3GH     -0.079400
     13 C11        10.1200    6.1870   -2.7190 c3        1 3GH     -0.079400
     14 C12        11.6180    6.0980   -2.9180 c3        1 3GH     -0.079400
     15 C13        12.2140    7.4570   -3.2150 c3        1 3GH     -0.079400
     16 C14        13.7110    7.3690   -3.4160 c3        1 3GH     -0.079400
     17 C15        14.3070    8.7280   -3.7130 c3        1 3GH     -0.079400
     18 C16        15.8040    8.6400   -3.9150 c3        1 3GH     -0.079400
     19 C17        16.4010    9.9990   -4.2130 c3        1 3GH     -0.080400
     20 C18        17.8920    9.9160   -4.4140 c3        1 3GH     -0.093100
     21 C1A        -1.9700    0.8080    0.9180 c3        1 3GH      0.336900
     22 O1A        -1.0210    0.8950   -0.1310 os        1 3GH     -0.445600
     23 C2A        -3.0980    1.8350    0.6990 c3        1 3GH      0.138100
     24 O2A        -3.5990    1.5880   -0.6010 oh        1 3GH     -0.581800
     25 C3A        -2.6110    3.2690    0.8610 c3        1 3GH     -0.154400
     26 C4A        -1.8550    3.4300    2.1750 c3        1 3GH      0.126100
     27 O4A        -2.6920    3.2180    3.3010 oh        1 3GH     -0.593800
     28 C5M        -0.7270    2.3940    2.2360 c3        1 3GH      0.108100
     29 C6A         0.0200    2.3960    3.5750 c3        1 3GH      0.129400
     30 O6A        -1.2100    1.0510    2.0870 os        1 3GH     -0.468600
     31 CAA         1.5890   -1.5840    1.9130 c         1 3GH      0.550100
     32 OAA         1.0830   -2.5140    1.3040 o         1 3GH     -0.422100
     33 CAB         2.3700   -1.6240    3.1960 c3        1 3GH     -0.159400
     34 CAC         2.2050   -2.9660    3.8820 c3        1 3GH     -0.081400
     35 CAD         3.0360   -3.0140    5.1480 c3        1 3GH     -0.080400
     36 CAE         2.8650   -4.3450    5.8510 c3        1 3GH     -0.079400
     37 CAF         3.6900   -4.3990    7.1200 c3        1 3GH     -0.079400
     38 CAG         3.5150   -5.7260    7.8270 c3        1 3GH     -0.079400
     39 CAH         4.3360   -5.7810    9.0980 c3        1 3GH     -0.079400
     40 CAI         4.1560   -7.1060    9.8090 c3        1 3GH     -0.079400
     41 CAJ         4.9730   -7.1600   11.0820 c3        1 3GH     -0.079400
     42 CAK         4.7900   -8.4830   11.7940 c3        1 3GH     -0.079400
     43 CAL         5.6030   -8.5370   13.0700 c3        1 3GH     -0.079400
     44 CAM         5.4170   -9.8590   13.7840 c3        1 3GH     -0.079400
     45 CAN         6.2270   -9.9120   15.0610 c3        1 3GH     -0.079400
     46 CAO         6.0390  -11.2330   15.7760 c3        1 3GH     -0.079400
     47 CAP         6.8480  -11.2860   17.0550 c3        1 3GH     -0.079400
     48 CAQ         6.6580  -12.6060   17.7700 c3        1 3GH     -0.079400
     49 CAR         7.4650  -12.6590   19.0490 c3        1 3GH     -0.079400
     50 CAS         7.2740  -13.9780   19.7660 c3        1 3GH     -0.079400
     51 CAT         8.0810  -14.0300   21.0460 c3        1 3GH     -0.079400
     52 CAU         7.8890  -15.3500   21.7630 c3        1 3GH     -0.079400
     53 CAV         8.6950  -15.4020   23.0430 c3        1 3GH     -0.079400
     54 CAW         8.5020  -16.7200   23.7600 c3        1 3GH     -0.079400
     55 CAX         9.3080  -16.7730   25.0410 c3        1 3GH     -0.079400
     56 CAY         9.1160  -18.0910   25.7590 c3        1 3GH     -0.080400
     57 CAZ         9.9160  -18.1480   27.0350 c3        1 3GH     -0.093100
     58 H1         -0.7950   -1.2090    0.0580 h1        1 3GH      0.096700
     59 H1A        -0.4680   -0.4380   -1.5760 h1        1 3GH      0.096700
     60 H2          1.6660   -1.0770   -0.6060 hx        1 3GH      0.124700
     61 HN2         0.6200    0.2550    1.8260 hn        1 3GH      0.475300
     62 H3          1.4290    2.0050   -0.1870 h1        1 3GH      0.048700
     63 HO3         0.3260    1.6280   -2.0410 ho        1 3GH      0.431000
     64 H4          3.6940    0.6130   -0.0020 hc        1 3GH      0.052700
     65 H4A         3.4900    0.3080   -1.7770 hc        1 3GH      0.052700
     66 H5          3.3590    2.7850   -2.1800 hc        1 3GH      0.052700
     67 H5A         3.6080    3.0920   -0.4150 hc        1 3GH      0.052700
     68 H6          5.5650    1.5850   -2.2880 hc        1 3GH      0.043200
     69 H6A         5.8110    1.8580   -0.5190 hc        1 3GH      0.043200
     70 H7          5.7050    4.3480   -0.8890 hc        1 3GH      0.043200
     71 H7A         5.4570    4.0730   -2.6570 hc        1 3GH      0.043200
     72 H8          7.6580    2.8550   -2.7770 hc        1 3GH      0.041700
     73 H8A         7.9070    3.1280   -1.0100 hc        1 3GH      0.041700
     74 H9          7.8000    5.6180   -1.3790 hc        1 3GH      0.041200
     75 H9A         7.5500    5.3440   -3.1460 hc        1 3GH      0.041200
     76 H10         9.7510    4.1250   -3.2690 hc        1 3GH      0.040700
     77 H10A       10.0020    4.3990   -1.5020 hc        1 3GH      0.040700
     78 H11         9.6430    6.6140   -3.6400 hc        1 3GH      0.040700
     79 H11A        9.8950    6.8880   -1.8730 hc        1 3GH      0.040700
     80 H12        11.8440    5.3960   -3.7640 hc        1 3GH      0.040200
     81 H12A       12.0960    5.6710   -1.9980 hc        1 3GH      0.040200
     82 H13        11.7360    7.8850   -4.1360 hc        1 3GH      0.040200
     83 H13A       11.9890    8.1600   -2.3700 hc        1 3GH      0.040200
     84 H14        13.9370    6.6670   -4.2610 hc        1 3GH      0.040200
     85 H14A       14.1900    6.9420   -2.4950 hc        1 3GH      0.040200
     86 H15        13.8280    9.1550   -4.6340 hc        1 3GH      0.039700
     87 H15A       14.0820    9.4310   -2.8680 hc        1 3GH      0.039700
     88 H16        16.0300    7.9380   -4.7600 hc        1 3GH      0.039700
     89 H16A       16.2840    8.2130   -2.9940 hc        1 3GH      0.039700
     90 H17        15.9200   10.4250   -5.1330 hc        1 3GH      0.038700
     91 H17A       16.1740   10.7010   -3.3670 hc        1 3GH      0.038700
     92 H18        18.3110   10.9280   -4.6330 hc        1 3GH      0.033700
     93 H18A       18.3930    9.5170   -3.4990 hc        1 3GH      0.033700
     94 H18B       18.1380    9.2400   -5.2690 hc        1 3GH      0.033700
     95 H1AA       -2.3940   -0.2280    1.0480 h2        1 3GH      0.104700
     96 H2A        -3.8890    1.6200    1.4740 h1        1 3GH      0.072700
     97 HO2A       -4.3310    2.2040   -0.7410 ho        1 3GH      0.423000
     98 H3A        -1.9380    3.5340    0.0050 hc        1 3GH      0.074700
     99 H3AA       -3.4890    3.9650    0.8380 hc        1 3GH      0.074700
    100 H4AA       -1.4030    4.4610    2.2310 h1        1 3GH      0.061700
    101 HO4A       -3.3840    3.8920    3.2690 ho        1 3GH      0.421000
    102 HO5A       -0.0480    0.5590    4.1740 ho        1 3GH      0.429000
    103 H5M        -0.0190    2.6060    1.3850 h1        1 3GH      0.046700
    104 H6AA        0.8650    3.1330    3.5460 h1        1 3GH      0.084700
    105 H6AB       -0.6800    2.6430    4.4150 h1        1 3GH      0.084700
    106 HAB         3.4560   -1.4500    2.9530 hc        1 3GH      0.104700
    107 HABA        2.0320   -0.7950    3.8800 hc        1 3GH      0.104700
    108 HAC         2.5190   -3.7890    3.1870 hc        1 3GH      0.068200
    109 HACA        1.1240   -3.1350    4.1290 hc        1 3GH      0.068200
    110 HAD         4.1190   -2.8590    4.8970 hc        1 3GH      0.047700
    111 HADA        2.7290   -2.1830    5.8360 hc        1 3GH      0.047700
    112 HAE         3.1740   -5.1770    5.1650 hc        1 3GH      0.047700
    113 HAEA        1.7830   -4.5040    6.1000 hc        1 3GH      0.047700
    114 HAF         4.7740   -4.2450    6.8720 hc        1 3GH      0.042700
    115 HAFA        3.3850   -3.5650    7.8040 hc        1 3GH      0.042700
    116 HAG         3.8240   -6.5610    7.1440 hc        1 3GH      0.042700
    117 HAGA        2.4320   -5.8820    8.0720 hc        1 3GH      0.042700
    118 HAH         4.0300   -4.9440    9.7800 hc        1 3GH      0.041200
    119 HAHA        5.4200   -5.6290    8.8540 hc        1 3GH      0.041200
    120 HAI         3.0720   -7.2590   10.0500 hc        1 3GH      0.041200
    121 HAIA        4.4650   -7.9420    9.1280 hc        1 3GH      0.041200
    122 HAJ         6.0580   -7.0100   10.8410 hc        1 3GH      0.040200
    123 HAJA        4.6660   -6.3220   11.7620 hc        1 3GH      0.040200
    124 HAK         5.0990   -9.3220   11.1160 hc        1 3GH      0.040200
    125 HAKA        3.7040   -8.6350   12.0330 hc        1 3GH      0.040200
    126 HAL         6.6890   -8.3880   12.8310 hc        1 3GH      0.039700
    127 HALA        5.2950   -7.6970   13.7480 hc        1 3GH      0.039700
    128 HAM         4.3310  -10.0090   14.0210 hc        1 3GH      0.039700
    129 HAMA        5.7260  -10.6980   13.1070 hc        1 3GH      0.039700
    130 HAN         7.3140   -9.7640   14.8240 hc        1 3GH      0.039700
    131 HANA        5.9190   -9.0720   15.7380 hc        1 3GH      0.039700
    132 HAO         4.9530  -11.3820   16.0120 hc        1 3GH      0.039700
    133 HAOA        6.3490  -12.0740   15.1000 hc        1 3GH      0.039700
    134 HAP         6.5390  -10.4440   17.7300 hc        1 3GH      0.039700
    135 HAPA        7.9350  -11.1390   16.8190 hc        1 3GH      0.039700
    136 HAQ         6.9680  -13.4470   17.0960 hc        1 3GH      0.039700
    137 HAQA        5.5710  -12.7540   18.0050 hc        1 3GH      0.039700
    138 HAR         8.5530  -12.5120   18.8140 hc        1 3GH      0.039700
    139 HARA        7.1570  -11.8170   19.7240 hc        1 3GH      0.039700
    140 HAS         6.1870  -14.1250   20.0000 hc        1 3GH      0.039700
    141 HASA        7.5830  -14.8200   19.0920 hc        1 3GH      0.039700
    142 HAT         9.1680  -13.8850   20.8110 hc        1 3GH      0.039700
    143 HATA        7.7730  -13.1880   21.7190 hc        1 3GH      0.039700
    144 HAU         6.8010  -15.4950   21.9970 hc        1 3GH      0.039700
    145 HAUA        8.1970  -16.1920   21.0890 hc        1 3GH      0.039700
    146 HAV         9.7820  -15.2570   22.8090 hc        1 3GH      0.039700
    147 HAVA        8.3870  -14.5590   23.7160 hc        1 3GH      0.039700
    148 HAW         7.4140  -16.8660   23.9950 hc        1 3GH      0.039700
    149 HAWA        8.8100  -17.5640   23.0870 hc        1 3GH      0.039700
    150 HAX        10.3960  -16.6280   24.8070 hc        1 3GH      0.039700
    151 HAXA        9.0000  -15.9300   25.7140 hc        1 3GH      0.039700
    152 HAY         8.0270  -18.2350   25.9910 hc        1 3GH      0.038700
    153 HAYA        9.4230  -18.9330   25.0840 hc        1 3GH      0.038700
    154 HAZ        11.0070  -18.0310   26.8220 hc        1 3GH      0.033033
    155 HAZA        9.6070  -17.3310   27.7310 hc        1 3GH      0.033033
    156 HAZB        9.7600  -19.1270   27.5480 hc        1 3GH      0.033033
    157 O5A         0.6230    1.1250    3.7680 oh        1 3GH     -0.647800
    158 H22         2.2540    0.3480    1.5320 hn        1 3GH      0.475300
@<TRIPOS>BOND
     1    1    2 1   
     2    1   22 1   
     3    1   58 1   
     4    1   59 1   
     5    2    3 1   
     6    2    4 1   
     7    2   60 1   
     8    3   31 1   
     9    3   61 1   
    10    3  158 1   
    11    4    5 1   
    12    4    6 1   
    13    4   62 1   
    14    5   63 1   
    15    6    7 1   
    16    6   64 1   
    17    6   65 1   
    18    7    8 1   
    19    7   66 1   
    20    7   67 1   
    21    8    9 1   
    22    8   68 1   
    23    8   69 1   
    24    9   10 1   
    25    9   70 1   
    26    9   71 1   
    27   10   11 1   
    28   10   72 1   
    29   10   73 1   
    30   11   12 1   
    31   11   74 1   
    32   11   75 1   
    33   12   13 1   
    34   12   76 1   
    35   12   77 1   
    36   13   14 1   
    37   13   78 1   
    38   13   79 1   
    39   14   15 1   
    40   14   80 1   
    41   14   81 1   
    42   15   16 1   
    43   15   82 1   
    44   15   83 1   
    45   16   17 1   
    46   16   84 1   
    47   16   85 1   
    48   17   18 1   
    49   17   86 1   
    50   17   87 1   
    51   18   19 1   
    52   18   88 1   
    53   18   89 1   
    54   19   20 1   
    55   19   90 1   
    56   19   91 1   
    57   20   92 1   
    58   20   93 1   
    59   20   94 1   
    60   21   22 1   
    61   21   23 1   
    62   21   30 1   
    63   21   95 1   
    64   23   24 1   
    65   23   25 1   
    66   23   96 1   
    67   24   97 1   
    68   25   26 1   
    69   25   98 1   
    70   25   99 1   
    71   26   27 1   
    72   26   28 1   
    73   26  100 1   
    74   27  101 1   
    75   28   29 1   
    76   28   30 1   
    77   28  103 1   
    78   29  104 1   
    79   29  105 1   
    80   29  157 1   
    81   31   32 2   
    82   31   33 1   
    83   33   34 1   
    84   33  106 1   
    85   33  107 1   
    86   34   35 1   
    87   34  108 1   
    88   34  109 1   
    89   35   36 1   
    90   35  110 1   
    91   35  111 1   
    92   36   37 1   
    93   36  112 1   
    94   36  113 1   
    95   37   38 1   
    96   37  114 1   
    97   37  115 1   
    98   38   39 1   
    99   38  116 1   
   100   38  117 1   
   101   39   40 1   
   102   39  118 1   
   103   39  119 1   
   104   40   41 1   
   105   40  120 1   
   106   40  121 1   
   107   41   42 1   
   108   41  122 1   
   109   41  123 1   
   110   42   43 1   
   111   42  124 1   
   112   42  125 1   
   113   43   44 1   
   114   43  126 1   
   115   43  127 1   
   116   44   45 1   
   117   44  128 1   
   118   44  129 1   
   119   45   46 1   
   120   45  130 1   
   121   45  131 1   
   122   46   47 1   
   123   46  132 1   
   124   46  133 1   
   125   47   48 1   
   126   47  134 1   
   127   47  135 1   
   128   48   49 1   
   129   48  136 1   
   130   48  137 1   
   131   49   50 1   
   132   49  138 1   
   133   49  139 1   
   134   50   51 1   
   135   50  140 1   
   136   50  141 1   
   137   51   52 1   
   138   51  142 1   
   139   51  143 1   
   140   52   53 1   
   141   52  144 1   
   142   52  145 1   
   143   53   54 1   
   144   53  146 1   
   145   53  147 1   
   146   54   55 1   
   147   54  148 1   
   148   54  149 1   
   149   55   56 1   
   150   55  150 1   
   151   55  151 1   
   152   56   57 1   
   153   56  152 1   
   154   56  153 1   
   155   57  154 1   
   156   57  155 1   
   157   57  156 1   
   158  102  157 1   
@<TRIPOS>SUBSTRUCTURE
     1 3GH         1 TEMP              0 ****  ****    0 ROOT
