@<TRIPOS>MOLECULE
3GH
  157   157     1     0     0
SMALL
bcc


@<TRIPOS>ATOM
      1 C1         -6.7090    5.5630    1.4650 c3        1 3GH      0.109400
      2 C2         -6.4490    4.0410    1.5410 c3        1 3GH      0.061700
      3 N2         -5.2890    3.6340    0.7910 n         1 3GH     -0.559900
      4 C3         -7.7470    3.3030    1.1020 c3        1 3GH      0.135100
      5 O3         -8.8030    3.7120    1.9580 oh        1 3GH     -0.597800
      6 C4         -7.5770    1.7900    1.1080 c3        1 3GH     -0.108400
      7 C5         -8.8740    1.0900    0.7610 c3        1 3GH     -0.080400
      8 C6         -8.7220   -0.4130    0.8360 c3        1 3GH     -0.078400
      9 C7        -10.0160   -1.1130    0.4800 c3        1 3GH     -0.078400
     10 C8         -9.8660   -2.6170    0.5570 c3        1 3GH     -0.079400
     11 C9        -11.1600   -3.3170    0.2020 c3        1 3GH     -0.079400
     12 C10       -11.0110   -4.8220    0.2790 c3        1 3GH     -0.079400
     13 C11       -12.3050   -5.5220   -0.0760 c3        1 3GH     -0.079400
     14 C12       -12.1550   -7.0260    0.0010 c3        1 3GH     -0.079400
     15 C13       -13.4490   -7.7260   -0.3540 c3        1 3GH     -0.079400
     16 C14       -13.2990   -9.2300   -0.2770 c3        1 3GH     -0.079400
     17 C15       -14.5930   -9.9310   -0.6320 c3        1 3GH     -0.079400
     18 C16       -14.4440  -11.4350   -0.5540 c3        1 3GH     -0.079400
     19 C17       -15.7380  -12.1360   -0.9100 c3        1 3GH     -0.080400
     20 C18       -15.5930  -13.6340   -0.8340 c3        1 3GH     -0.092100
     21 C1A        -6.6330    7.2670   -0.2040 c3        1 3GH      0.300900
     22 O1A        -6.9250    5.9120    0.0950 os        1 3GH     -0.466600
     23 C2A        -7.5570    7.7090   -1.3570 c3        1 3GH      0.133100
     24 O2A        -8.9090    7.5170   -1.0050 oh        1 3GH     -0.587800
     25 C3A        -7.2050    6.9850   -2.6490 c3        1 3GH     -0.148400
     26 C4A        -5.7160    7.1180   -2.9460 c3        1 3GH      0.120100
     27 O4A        -5.3390    8.4600   -3.2150 oh        1 3GH     -0.591800
     28 C5M        -4.9030    6.6310   -1.7400 c3        1 3GH      0.113100
     29 C6A        -3.4050    6.8900   -1.9210 c3        1 3GH      0.140400
     30 O6A        -5.2610    7.3030   -0.5290 os        1 3GH     -0.432600
     31 CAA        -4.0910    3.3080    1.4130 c         1 3GH      0.655100
     32 OAA        -4.0390    3.1340    2.6470 o         1 3GH     -0.610100
     33 CAB        -2.8840    3.1420    0.5110 c3        1 3GH     -0.158400
     34 CAC        -1.6900    2.6320    1.2890 c3        1 3GH     -0.071400
     35 CAD        -0.4800    2.4940    0.3900 c3        1 3GH     -0.080400
     36 CAE         0.7180    1.9870    1.1640 c3        1 3GH     -0.078400
     37 CAF         1.9300    1.8460    0.2690 c3        1 3GH     -0.079400
     38 CAG         3.1280    1.3390    1.0430 c3        1 3GH     -0.079400
     39 CAH         4.3410    1.1990    0.1490 c3        1 3GH     -0.078400
     40 CAI         5.5390    0.6920    0.9230 c3        1 3GH     -0.079400
     41 CAJ         6.7520    0.5510    0.0280 c3        1 3GH     -0.079400
     42 CAK         7.9500    0.0440    0.8020 c3        1 3GH     -0.079400
     43 CAL         9.1630   -0.0970   -0.0920 c3        1 3GH     -0.079400
     44 CAM        10.3600   -0.6040    0.6820 c3        1 3GH     -0.079400
     45 CAN        11.5730   -0.7450   -0.2120 c3        1 3GH     -0.079400
     46 CAO        12.7710   -1.2520    0.5620 c3        1 3GH     -0.079400
     47 CAP        13.9840   -1.3930   -0.3320 c3        1 3GH     -0.079400
     48 CAQ        15.1820   -1.9000    0.4420 c3        1 3GH     -0.079400
     49 CAR        16.3950   -2.0410   -0.4520 c3        1 3GH     -0.079400
     50 CAS        17.5930   -2.5480    0.3230 c3        1 3GH     -0.079400
     51 CAT        18.8060   -2.6890   -0.5720 c3        1 3GH     -0.079400
     52 CAU        20.0030   -3.1960    0.2030 c3        1 3GH     -0.079400
     53 CAV        21.2170   -3.3370   -0.6910 c3        1 3GH     -0.079400
     54 CAW        22.4140   -3.8440    0.0830 c3        1 3GH     -0.079400
     55 CAX        23.6280   -3.9840   -0.8110 c3        1 3GH     -0.079400
     56 CAY        24.8260   -4.4910   -0.0380 c3        1 3GH     -0.080400
     57 CAZ        26.0370   -4.6330   -0.9240 c3        1 3GH     -0.092100
     58 H1         -7.6430    5.8060    2.0370 h1        1 3GH      0.056200
     59 H1A        -5.8370    6.1300    1.8810 h1        1 3GH      0.056200
     60 H2         -6.2690    3.8000    2.6340 h1        1 3GH      0.092700
     61 HN2        -5.2640    3.9300   -0.1570 hn        1 3GH      0.309500
     62 H3         -8.0640    3.6680    0.0850 h1        1 3GH      0.082700
     63 HO3        -8.6580    3.2940    2.8160 ho        1 3GH      0.400000
     64 H4         -6.7890    1.4990    0.3650 hc        1 3GH      0.054200
     65 H4A        -7.2230    1.4590    2.1200 hc        1 3GH      0.054200
     66 H5         -9.6800    1.4280    1.4650 hc        1 3GH      0.045700
     67 H5A        -9.1960    1.3880   -0.2720 hc        1 3GH      0.045700
     68 H6         -7.9100   -0.7450    0.1360 hc        1 3GH      0.039700
     69 H6A        -8.4060   -0.7100    1.8710 hc        1 3GH      0.039700
     70 H7        -10.8280   -0.7800    1.1790 hc        1 3GH      0.040200
     71 H7A       -10.3310   -0.8190   -0.5550 hc        1 3GH      0.040200
     72 H8         -9.0540   -2.9510   -0.1410 hc        1 3GH      0.040200
     73 H8A        -9.5520   -2.9120    1.5940 hc        1 3GH      0.040200
     74 H9        -11.9730   -2.9840    0.9010 hc        1 3GH      0.039700
     75 H9A       -11.4750   -3.0230   -0.8340 hc        1 3GH      0.039700
     76 H10       -10.1980   -5.1550   -0.4190 hc        1 3GH      0.039700
     77 H10A      -10.6960   -5.1160    1.3150 hc        1 3GH      0.039700
     78 H11       -13.1170   -5.1880    0.6220 hc        1 3GH      0.039700
     79 H11A      -12.6190   -5.2280   -1.1120 hc        1 3GH      0.039700
     80 H12       -11.3430   -7.3600   -0.6970 hc        1 3GH      0.039700
     81 H12A      -11.8410   -7.3200    1.0370 hc        1 3GH      0.039700
     82 H13       -14.2610   -7.3930    0.3440 hc        1 3GH      0.039700
     83 H13A      -13.7630   -7.4320   -1.3910 hc        1 3GH      0.039700
     84 H14       -12.4870   -9.5640   -0.9750 hc        1 3GH      0.039700
     85 H14A      -12.9850   -9.5240    0.7590 hc        1 3GH      0.039700
     86 H15       -15.4060   -9.5970    0.0660 hc        1 3GH      0.039700
     87 H15A      -14.9080   -9.6370   -1.6680 hc        1 3GH      0.039700
     88 H16       -13.6320  -11.7690   -1.2530 hc        1 3GH      0.039700
     89 H16A      -14.1300  -11.7290    0.4820 hc        1 3GH      0.039700
     90 H17       -16.5490  -11.8000   -0.2110 hc        1 3GH      0.038700
     91 H17A      -16.0510  -11.8400   -1.9460 hc        1 3GH      0.038700
     92 H18       -14.8060  -13.9910   -1.5410 hc        1 3GH      0.032700
     93 H18A      -15.3050  -13.9510    0.1980 hc        1 3GH      0.032700
     94 H18B      -16.5580  -14.1310   -1.0990 hc        1 3GH      0.032700
     95 H1AA       -6.7400    7.9440    0.6890 h2        1 3GH      0.092700
     96 H2A        -7.4430    8.8220   -1.4930 h1        1 3GH      0.095700
     97 HO2A       -9.0190    6.5830   -0.7770 ho        1 3GH      0.419000
     98 H3A        -7.4630    5.8980   -2.5480 hc        1 3GH      0.064200
     99 H3AA       -7.8110    7.4090   -3.4890 hc        1 3GH      0.064200
    100 H4AA       -5.4520    6.4830   -3.8400 h1        1 3GH      0.044700
    101 HO4A       -5.9550    8.7980   -3.8770 ho        1 3GH      0.405000
    102 HO5A       -2.9210    6.7290   -0.0610 ho        1 3GH      0.415000
    103 H5M        -5.1000    5.5310   -1.6080 h1        1 3GH      0.052700
    104 H6AA       -3.2130    7.9940   -1.9640 h1        1 3GH      0.066200
    105 H6AB       -3.0490    6.3980   -2.8640 h1        1 3GH      0.066200
    106 HAB        -3.1300    2.4260   -0.3180 hc        1 3GH      0.074700
    107 HABA       -2.6430    4.1380    0.0440 hc        1 3GH      0.074700
    108 HAC        -1.4650    3.3390    2.1310 hc        1 3GH      0.056700
    109 HACA       -1.9400    1.6430    1.7540 hc        1 3GH      0.056700
    110 HAD        -0.7120    1.7860   -0.4490 hc        1 3GH      0.040200
    111 HADA       -0.2370    3.4870   -0.0720 hc        1 3GH      0.040200
    112 HAE         0.9490    2.6940    2.0040 hc        1 3GH      0.041700
    113 HAEA        0.4740    0.9940    1.6270 hc        1 3GH      0.041700
    114 HAF         1.6980    1.1390   -0.5710 hc        1 3GH      0.039200
    115 HAFA        2.1740    2.8390   -0.1930 hc        1 3GH      0.039200
    116 HAG         3.3600    2.0460    1.8830 hc        1 3GH      0.040200
    117 HAGA        2.8850    0.3460    1.5050 hc        1 3GH      0.040200
    118 HAH         4.1090    0.4920   -0.6910 hc        1 3GH      0.039200
    119 HAHA        4.5850    2.1920   -0.3130 hc        1 3GH      0.039200
    120 HAI         5.7710    1.3990    1.7620 hc        1 3GH      0.039700
    121 HAIA        5.2950   -0.3010    1.3850 hc        1 3GH      0.039700
    122 HAJ         6.5200   -0.1560   -0.8120 hc        1 3GH      0.039200
    123 HAJA        6.9960    1.5440   -0.4330 hc        1 3GH      0.039200
    124 HAK         8.1810    0.7510    1.6420 hc        1 3GH      0.039700
    125 HAKA        7.7060   -0.9490    1.2640 hc        1 3GH      0.039700
    126 HAL         8.9310   -0.8040   -0.9320 hc        1 3GH      0.039700
    127 HALA        9.4070    0.8960   -0.5540 hc        1 3GH      0.039700
    128 HAM        10.5920    0.1030    1.5220 hc        1 3GH      0.039700
    129 HAMA       10.1160   -1.5970    1.1440 hc        1 3GH      0.039700
    130 HAN        11.3420   -1.4520   -1.0520 hc        1 3GH      0.039700
    131 HANA       11.8170    0.2480   -0.6740 hc        1 3GH      0.039700
    132 HAO        13.0030   -0.5450    1.4020 hc        1 3GH      0.039700
    133 HAOA       12.5270   -2.2450    1.0240 hc        1 3GH      0.039700
    134 HAP        13.7520   -2.1000   -1.1720 hc        1 3GH      0.039700
    135 HAPA       14.2280   -0.4000   -0.7940 hc        1 3GH      0.039700
    136 HAQ        15.4140   -1.1930    1.2820 hc        1 3GH      0.039700
    137 HAQA       14.9380   -2.8930    0.9050 hc        1 3GH      0.039700
    138 HAR        16.1630   -2.7480   -1.2910 hc        1 3GH      0.039700
    139 HARA       16.6390   -1.0480   -0.9140 hc        1 3GH      0.039700
    140 HAS        17.8240   -1.8410    1.1620 hc        1 3GH      0.039700
    141 HASA       17.3490   -3.5410    0.7850 hc        1 3GH      0.039700
    142 HAT        18.5740   -3.3960   -1.4110 hc        1 3GH      0.039700
    143 HATA       19.0500   -1.6960   -1.0340 hc        1 3GH      0.039700
    144 HAU        20.2350   -2.4890    1.0420 hc        1 3GH      0.039700
    145 HAUA       19.7600   -4.1890    0.6650 hc        1 3GH      0.039700
    146 HAV        20.9850   -4.0440   -1.5310 hc        1 3GH      0.039700
    147 HAVA       21.4600   -2.3440   -1.1530 hc        1 3GH      0.039700
    148 HAW        22.6460   -3.1360    0.9230 hc        1 3GH      0.039700
    149 HAWA       22.1710   -4.8360    0.5450 hc        1 3GH      0.039700
    150 HAX        23.3960   -4.6910   -1.6510 hc        1 3GH      0.039700
    151 HAXA       23.8720   -2.9920   -1.2730 hc        1 3GH      0.039700
    152 HAY        25.0550   -3.7840    0.8030 hc        1 3GH      0.038700
    153 HAYA       24.5800   -5.4840    0.4250 hc        1 3GH      0.038700
    154 HAZ        26.9080   -5.0080   -0.3340 hc        1 3GH      0.032700
    155 HAZA       25.8360   -5.3540   -1.7530 hc        1 3GH      0.032700
    156 HAZB       26.3130   -3.6490   -1.3750 hc        1 3GH      0.032700
    157 O5A        -2.6650    6.2860   -0.8810 oh        1 3GH     -0.608800
@<TRIPOS>BOND
     1    1    2 1   
     2    1   22 1   
     3    1   58 1   
     4    1   59 1   
     5    2    3 1   
     6    2    4 1   
     7    2   60 1   
     8    3   31 1   
     9    3   61 1   
    10    4    5 1   
    11    4    6 1   
    12    4   62 1   
    13    5   63 1   
    14    6    7 1   
    15    6   64 1   
    16    6   65 1   
    17    7    8 1   
    18    7   66 1   
    19    7   67 1   
    20    8    9 1   
    21    8   68 1   
    22    8   69 1   
    23    9   10 1   
    24    9   70 1   
    25    9   71 1   
    26   10   11 1   
    27   10   72 1   
    28   10   73 1   
    29   11   12 1   
    30   11   74 1   
    31   11   75 1   
    32   12   13 1   
    33   12   76 1   
    34   12   77 1   
    35   13   14 1   
    36   13   78 1   
    37   13   79 1   
    38   14   15 1   
    39   14   80 1   
    40   14   81 1   
    41   15   16 1   
    42   15   82 1   
    43   15   83 1   
    44   16   17 1   
    45   16   84 1   
    46   16   85 1   
    47   17   18 1   
    48   17   86 1   
    49   17   87 1   
    50   18   19 1   
    51   18   88 1   
    52   18   89 1   
    53   19   20 1   
    54   19   90 1   
    55   19   91 1   
    56   20   92 1   
    57   20   93 1   
    58   20   94 1   
    59   21   22 1   
    60   21   23 1   
    61   21   30 1   
    62   21   95 1   
    63   23   24 1   
    64   23   25 1   
    65   23   96 1   
    66   24   97 1   
    67   25   26 1   
    68   25   98 1   
    69   25   99 1   
    70   26   27 1   
    71   26   28 1   
    72   26  100 1   
    73   27  101 1   
    74   28   29 1   
    75   28   30 1   
    76   28  103 1   
    77   29  104 1   
    78   29  105 1   
    79   29  157 1   
    80   31   32 2   
    81   31   33 1   
    82   33   34 1   
    83   33  106 1   
    84   33  107 1   
    85   34   35 1   
    86   34  108 1   
    87   34  109 1   
    88   35   36 1   
    89   35  110 1   
    90   35  111 1   
    91   36   37 1   
    92   36  112 1   
    93   36  113 1   
    94   37   38 1   
    95   37  114 1   
    96   37  115 1   
    97   38   39 1   
    98   38  116 1   
    99   38  117 1   
   100   39   40 1   
   101   39  118 1   
   102   39  119 1   
   103   40   41 1   
   104   40  120 1   
   105   40  121 1   
   106   41   42 1   
   107   41  122 1   
   108   41  123 1   
   109   42   43 1   
   110   42  124 1   
   111   42  125 1   
   112   43   44 1   
   113   43  126 1   
   114   43  127 1   
   115   44   45 1   
   116   44  128 1   
   117   44  129 1   
   118   45   46 1   
   119   45  130 1   
   120   45  131 1   
   121   46   47 1   
   122   46  132 1   
   123   46  133 1   
   124   47   48 1   
   125   47  134 1   
   126   47  135 1   
   127   48   49 1   
   128   48  136 1   
   129   48  137 1   
   130   49   50 1   
   131   49  138 1   
   132   49  139 1   
   133   50   51 1   
   134   50  140 1   
   135   50  141 1   
   136   51   52 1   
   137   51  142 1   
   138   51  143 1   
   139   52   53 1   
   140   52  144 1   
   141   52  145 1   
   142   53   54 1   
   143   53  146 1   
   144   53  147 1   
   145   54   55 1   
   146   54  148 1   
   147   54  149 1   
   148   55   56 1   
   149   55  150 1   
   150   55  151 1   
   151   56   57 1   
   152   56  152 1   
   153   56  153 1   
   154   57  154 1   
   155   57  155 1   
   156   57  156 1   
   157  102  157 1   
@<TRIPOS>SUBSTRUCTURE
     1 3GH         1 TEMP              0 ****  ****    0 ROOT
