@<TRIPOS>MOLECULE
3GH
  157   157     1     0     0
SMALL
bcc


@<TRIPOS>ATOM
      1 C1         -5.1820    4.4910   -3.1170 c3        1 3GH      0.128400
      2 C2         -3.6930    4.5490   -3.4100 c3        1 3GH      0.089700
      3 N2         -2.9660    4.6280   -2.1790 n         1 3GH     -0.562900
      4 C3         -3.3910    5.7760   -4.2580 c3        1 3GH      0.124100
      5 O3         -4.2370    6.8220   -3.8810 oh        1 3GH     -0.610800
      6 C4         -3.6160    5.4460   -5.7370 c3        1 3GH     -0.121400
      7 C5         -3.5740    6.7650   -6.5810 c3        1 3GH     -0.079400
      8 C6         -3.5300    6.4050   -8.1090 c3        1 3GH     -0.079400
      9 C7         -4.3470    7.4610   -8.9170 c3        1 3GH     -0.079400
     10 C8         -4.6760    6.8960  -10.3230 c3        1 3GH     -0.079400
     11 C9         -5.9660    7.5870  -10.8710 c3        1 3GH     -0.078400
     12 C10        -6.6510    6.6550  -11.9100 c3        1 3GH     -0.079400
     13 C11        -8.1240    7.1200  -12.1410 c3        1 3GH     -0.079400
     14 C12        -8.9340    5.9660  -12.8220 c3        1 3GH     -0.079400
     15 C13       -10.4300    6.2890  -12.7640 c3        1 3GH     -0.079400
     16 C14       -11.2430    5.0610  -13.2390 c3        1 3GH     -0.079400
     17 C15       -12.7360    5.3190  -13.0150 c3        1 3GH     -0.079400
     18 C16       -13.5140    4.0000  -13.1660 c3        1 3GH     -0.079400
     19 C17       -14.9910    4.2200  -12.7490 c3        1 3GH     -0.080400
     20 C18       -15.7420    2.8870  -12.8080 c3        1 3GH     -0.092100
     21 C1A        -6.9830    2.9340   -2.8390 c3        1 3GH      0.302900
     22 O1A        -5.6440    3.1050   -3.1970 os        1 3GH     -0.457600
     23 C2A        -7.1030    1.7150   -1.9450 c3        1 3GH      0.136100
     24 O2A        -6.1460    1.8290   -0.8680 oh        1 3GH     -0.589800
     25 C3A        -6.8510    0.4580   -2.6740 c3        1 3GH     -0.107400
     26 C4A        -7.6720    0.3480   -3.9060 c3        1 3GH      0.130100
     27 O4A        -9.0530    0.1800   -3.5320 oh        1 3GH     -0.606800
     28 O5A        -9.8380    1.7180   -5.4390 oh        1 3GH     -0.612800
     29 C5M        -7.5500    1.5720   -4.7930 c3        1 3GH      0.055100
     30 C6A        -8.5460    1.4590   -5.9230 c3        1 3GH      0.135400
     31 O6A        -7.7960    2.8160   -4.0660 os        1 3GH     -0.449600
     32 CAA        -1.8730    3.6930   -1.9140 c         1 3GH      0.666100
     33 OAA        -1.5370    2.8950   -2.7670 o         1 3GH     -0.631100
     34 CAB        -1.0700    3.7840   -0.5640 c3        1 3GH     -0.149400
     35 CAC        -0.6450    2.3510   -0.1130 c3        1 3GH     -0.073400
     36 CAD         0.1060    2.4340    1.2390 c3        1 3GH     -0.080400
     37 CAE         0.4210    0.9860    1.7520 c3        1 3GH     -0.078400
     38 CAF         1.4080    1.0620    2.9590 c3        1 3GH     -0.079400
     39 CAG         1.8200   -0.4050    3.3970 c3        1 3GH     -0.079400
     40 CAH         2.8540   -0.3300    4.5570 c3        1 3GH     -0.078400
     41 CAI         3.3800   -1.7670    4.8820 c3        1 3GH     -0.079400
     42 CAJ         4.4730   -1.6820    5.9880 c3        1 3GH     -0.079400
     43 CAK         5.0390   -3.1060    6.2680 c3        1 3GH     -0.079400
     44 CAL         6.1460   -3.0190    7.3130 c3        1 3GH     -0.079400
     45 CAM         6.7280   -4.4270    7.5670 c3        1 3GH     -0.079400
     46 CAN         7.8830   -4.3320    8.5820 c3        1 3GH     -0.079400
     47 CAO         8.4870   -5.7460    8.8160 c3        1 3GH     -0.079400
     48 CAP         9.5710   -5.6690    9.9230 c3        1 3GH     -0.079400
     49 CAQ        10.1440   -7.0650   10.1730 c3        1 3GH     -0.079400
     50 CAR        11.3050   -6.9730   11.1840 c3        1 3GH     -0.079400
     51 CAS        11.9000   -8.4040   11.4290 c3        1 3GH     -0.079400
     52 CAT        13.0580   -8.3130   12.4310 c3        1 3GH     -0.079400
     53 CAU        13.6110   -9.7360   12.7140 c3        1 3GH     -0.079400
     54 CAV        14.8040   -9.6420   13.7040 c3        1 3GH     -0.079400
     55 CAW        15.4150  -11.0570   13.9190 c3        1 3GH     -0.079400
     56 CAX        16.5670  -10.9700   14.9380 c3        1 3GH     -0.079400
     57 CAY        17.1100  -12.3930   15.2250 c3        1 3GH     -0.080400
     58 CAZ        18.3150  -12.3020   16.1890 c3        1 3GH     -0.092100
     59 H1         -5.6630    5.0330   -3.7710 h1        1 3GH      0.059700
     60 H1A        -5.3500    4.8380   -2.2200 h1        1 3GH      0.059700
     61 H2         -3.4270    3.7470   -3.8940 h1        1 3GH      0.101700
     62 HN2        -3.1480    5.2980   -1.5820 hn        1 3GH      0.317500
     63 H3         -2.4590    6.0450   -4.1220 h1        1 3GH      0.047700
     64 HO3        -3.7470    7.5150   -3.5910 ho        1 3GH      0.406000
     65 H4         -4.4830    5.0180   -5.8450 hc        1 3GH      0.059700
     66 H4A        -2.9170    4.8430   -6.0430 hc        1 3GH      0.059700
     67 H5         -4.3770    7.2990   -6.3930 hc        1 3GH      0.039200
     68 H5A        -2.7710    7.2820   -6.3420 hc        1 3GH      0.039200
     69 H6         -3.9190    5.5170   -8.2460 hc        1 3GH      0.044200
     70 H6A        -2.6010    6.4060   -8.4170 hc        1 3GH      0.044200
     71 H7         -3.8170    8.2840   -9.0100 hc        1 3GH      0.039200
     72 H7A        -5.1760    7.6600   -8.4450 hc        1 3GH      0.039200
     73 H8         -3.9260    7.0720  -10.9300 hc        1 3GH      0.041200
     74 H8A        -4.8250    5.9320  -10.2610 hc        1 3GH      0.041200
     75 H9         -5.7240    8.4390  -11.3030 hc        1 3GH      0.039700
     76 H9A        -6.5790    7.7600  -10.1360 hc        1 3GH      0.039700
     77 H10        -6.6490    5.7360  -11.5750 hc        1 3GH      0.040200
     78 H10A       -6.1590    6.6940  -12.7610 hc        1 3GH      0.040200
     79 H11        -8.1310    7.9130  -12.7220 hc        1 3GH      0.039700
     80 H11A       -8.5340    7.3430  -11.2810 hc        1 3GH      0.039700
     81 H12        -8.6560    5.8800  -13.7550 hc        1 3GH      0.039700
     82 H12A       -8.7640    5.1280  -12.3530 hc        1 3GH      0.039700
     83 H13       -10.6800    6.5090  -11.8430 hc        1 3GH      0.039700
     84 H13A      -10.6210    7.0500  -13.3440 hc        1 3GH      0.039700
     85 H14       -10.9680    4.2670  -12.7290 hc        1 3GH      0.039700
     86 H14A      -11.0780    4.9090  -14.1930 hc        1 3GH      0.039700
     87 H15       -12.8730    5.6760  -12.1170 hc        1 3GH      0.039200
     88 H15A      -13.0560    5.9600  -13.6700 hc        1 3GH      0.039200
     89 H16       -13.1090    3.3120  -12.5900 hc        1 3GH      0.039700
     90 H16A      -13.4790    3.7050  -14.1030 hc        1 3GH      0.039700
     91 H17       -15.0230    4.5720  -11.8370 hc        1 3GH      0.038700
     92 H17A      -15.4110    4.8580  -13.3600 hc        1 3GH      0.038700
     93 H18       -16.7000    3.0380  -12.6090 hc        1 3GH      0.032700
     94 H18A      -15.3650    2.2710  -12.1480 hc        1 3GH      0.032700
     95 H18B      -15.6530    2.5010  -13.7030 hc        1 3GH      0.032700
     96 H1AA       -7.2770    3.7160   -2.3430 h2        1 3GH      0.080700
     97 H2A        -8.0050    1.6870   -1.5660 h1        1 3GH      0.103700
     98 HO2A       -6.5190    1.5560   -0.1110 ho        1 3GH      0.412000
     99 H3A        -5.9090    0.4170   -2.9170 hc        1 3GH      0.066200
    100 H3AA       -7.0610   -0.3020   -2.0820 hc        1 3GH      0.066200
    101 H4AA       -7.3840   -0.4370   -4.4100 h1        1 3GH      0.045700
    102 HO4A       -9.3040   -0.6550   -3.6950 ho        1 3GH      0.424000
    103 HO5A      -10.4040    1.8020   -6.1290 ho        1 3GH      0.420000
    104 H5M        -6.6520    1.6000   -5.1680 h1        1 3GH      0.096700
    105 H6AA       -8.5130    0.5510   -6.2980 h1        1 3GH      0.058200
    106 H6AB       -8.3210    2.1110   -6.6250 h1        1 3GH      0.058200
    107 HAB        -1.6370    4.1900    0.1270 hc        1 3GH      0.063700
    108 HABA       -0.2690    4.3370   -0.6960 hc        1 3GH      0.063700
    109 HAC        -0.0590    1.9590   -0.7860 hc        1 3GH      0.058700
    110 HACA       -1.4390    1.7950   -0.0090 hc        1 3GH      0.058700
    111 HAD        -0.4550    2.8990    1.8960 hc        1 3GH      0.038200
    112 HADA        0.9430    2.9260    1.1170 hc        1 3GH      0.038200
    113 HAE        -0.4070    0.5540    2.0360 hc        1 3GH      0.042700
    114 HAEA        0.8280    0.4670    1.0310 hc        1 3GH      0.042700
    115 HAF         0.9700    1.5170    3.7100 hc        1 3GH      0.039200
    116 HAFA        2.2090    1.5620    2.6950 hc        1 3GH      0.039200
    117 HAG         2.2190   -0.8730    2.6350 hc        1 3GH      0.040700
    118 HAGA        1.0250   -0.8910    3.7000 hc        1 3GH      0.040700
    119 HAH         2.4260    0.0480    5.3510 hc        1 3GH      0.039700
    120 HAHA        3.6000    0.2360    4.2900 hc        1 3GH      0.039700
    121 HAI         3.7640   -2.1640    4.0750 hc        1 3GH      0.039700
    122 HAIA        2.6390   -2.3220    5.1970 hc        1 3GH      0.039700
    123 HAJ         4.0800   -1.3200    6.8090 hc        1 3GH      0.039700
    124 HAJA        5.2000   -1.0950    5.6860 hc        1 3GH      0.039700
    125 HAK         4.3230   -3.6800    6.6000 hc        1 3GH      0.039700
    126 HAKA        5.4010   -3.4820    5.4390 hc        1 3GH      0.039700
    127 HAL         5.7810   -2.6640    8.1430 hc        1 3GH      0.039700
    128 HALA        6.8530   -2.4280    6.9900 hc        1 3GH      0.039700
    129 HAM         6.0260   -5.0110    7.9240 hc        1 3GH      0.039700
    130 HAMA        7.0630   -4.7980    6.7240 hc        1 3GH      0.039700
    131 HAN         7.5440   -3.9780    9.4310 hc        1 3GH      0.039700
    132 HANA        8.5750   -3.7350    8.2340 hc        1 3GH      0.039700
    133 HAO         8.8930   -6.0710    7.9820 hc        1 3GH      0.039700
    134 HAOA        7.7750   -6.3650    9.0970 hc        1 3GH      0.039700
    135 HAP        10.2870   -5.0700    9.6370 hc        1 3GH      0.039700
    136 HAPA        9.1720   -5.3290   10.7460 hc        1 3GH      0.039700
    137 HAQ         9.4480   -7.6410   10.5320 hc        1 3GH      0.039700
    138 HAQA       10.4730   -7.4360    9.3340 hc        1 3GH      0.039700
    139 HAR        10.9720   -6.6060   12.0330 hc        1 3GH      0.039700
    140 HARA       12.0080   -6.3830   10.8240 hc        1 3GH      0.039700
    141 HAS        12.2290   -8.7700   10.5820 hc        1 3GH      0.039700
    142 HASA       11.2040   -8.9890   11.7870 hc        1 3GH      0.039700
    143 HAT        12.7380   -7.9200   13.2600 hc        1 3GH      0.039700
    144 HATA       13.7660   -7.7570   12.0590 hc        1 3GH      0.039700
    145 HAU        13.9140  -10.1410   11.8740 hc        1 3GH      0.039700
    146 HAUA       12.9060  -10.2870   13.1050 hc        1 3GH      0.039700
    147 HAV        15.4900   -9.0430   13.3340 hc        1 3GH      0.039700
    148 HAVA       14.4890   -9.2880   14.5620 hc        1 3GH      0.039700
    149 HAW        15.7560  -11.3960   13.0720 hc        1 3GH      0.039700
    150 HAWA       14.7270  -11.6610   14.2570 hc        1 3GH      0.039700
    151 HAX        17.2810  -10.4170   14.5740 hc        1 3GH      0.039700
    152 HAXA       16.2380  -10.5730   15.7680 hc        1 3GH      0.039700
    153 HAY        16.4000  -12.9380   15.6380 hc        1 3GH      0.038700
    154 HAYA       17.3960  -12.8110   14.3840 hc        1 3GH      0.038700
    155 HAZ        18.0180  -11.9320   17.0500 hc        1 3GH      0.032700
    156 HAZA       19.0000  -11.7170   15.8010 hc        1 3GH      0.032700
    157 HAZB       18.6920  -13.2030   16.3310 hc        1 3GH      0.032700
@<TRIPOS>BOND
     1    1    2 1   
     2    1   22 1   
     3    1   59 1   
     4    1   60 1   
     5    2    3 1   
     6    2    4 1   
     7    2   61 1   
     8    3   32 1   
     9    3   62 1   
    10    4    5 1   
    11    4    6 1   
    12    4   63 1   
    13    5   64 1   
    14    6    7 1   
    15    6   65 1   
    16    6   66 1   
    17    7    8 1   
    18    7   67 1   
    19    7   68 1   
    20    8    9 1   
    21    8   69 1   
    22    8   70 1   
    23    9   10 1   
    24    9   71 1   
    25    9   72 1   
    26   10   11 1   
    27   10   73 1   
    28   10   74 1   
    29   11   12 1   
    30   11   75 1   
    31   11   76 1   
    32   12   13 1   
    33   12   77 1   
    34   12   78 1   
    35   13   14 1   
    36   13   79 1   
    37   13   80 1   
    38   14   15 1   
    39   14   81 1   
    40   14   82 1   
    41   15   16 1   
    42   15   83 1   
    43   15   84 1   
    44   16   17 1   
    45   16   85 1   
    46   16   86 1   
    47   17   18 1   
    48   17   87 1   
    49   17   88 1   
    50   18   19 1   
    51   18   89 1   
    52   18   90 1   
    53   19   20 1   
    54   19   91 1   
    55   19   92 1   
    56   20   93 1   
    57   20   94 1   
    58   20   95 1   
    59   21   22 1   
    60   21   23 1   
    61   21   31 1   
    62   21   96 1   
    63   23   24 1   
    64   23   25 1   
    65   23   97 1   
    66   24   98 1   
    67   25   26 1   
    68   25   99 1   
    69   25  100 1   
    70   26   27 1   
    71   26   29 1   
    72   26  101 1   
    73   27  102 1   
    74   28   30 1   
    75   28  103 1   
    76   29   30 1   
    77   29   31 1   
    78   29  104 1   
    79   30  105 1   
    80   30  106 1   
    81   32   33 2   
    82   32   34 1   
    83   34   35 1   
    84   34  107 1   
    85   34  108 1   
    86   35   36 1   
    87   35  109 1   
    88   35  110 1   
    89   36   37 1   
    90   36  111 1   
    91   36  112 1   
    92   37   38 1   
    93   37  113 1   
    94   37  114 1   
    95   38   39 1   
    96   38  115 1   
    97   38  116 1   
    98   39   40 1   
    99   39  117 1   
   100   39  118 1   
   101   40   41 1   
   102   40  119 1   
   103   40  120 1   
   104   41   42 1   
   105   41  121 1   
   106   41  122 1   
   107   42   43 1   
   108   42  123 1   
   109   42  124 1   
   110   43   44 1   
   111   43  125 1   
   112   43  126 1   
   113   44   45 1   
   114   44  127 1   
   115   44  128 1   
   116   45   46 1   
   117   45  129 1   
   118   45  130 1   
   119   46   47 1   
   120   46  131 1   
   121   46  132 1   
   122   47   48 1   
   123   47  133 1   
   124   47  134 1   
   125   48   49 1   
   126   48  135 1   
   127   48  136 1   
   128   49   50 1   
   129   49  137 1   
   130   49  138 1   
   131   50   51 1   
   132   50  139 1   
   133   50  140 1   
   134   51   52 1   
   135   51  141 1   
   136   51  142 1   
   137   52   53 1   
   138   52  143 1   
   139   52  144 1   
   140   53   54 1   
   141   53  145 1   
   142   53  146 1   
   143   54   55 1   
   144   54  147 1   
   145   54  148 1   
   146   55   56 1   
   147   55  149 1   
   148   55  150 1   
   149   56   57 1   
   150   56  151 1   
   151   56  152 1   
   152   57   58 1   
   153   57  153 1   
   154   57  154 1   
   155   58  155 1   
   156   58  156 1   
   157   58  157 1   
@<TRIPOS>SUBSTRUCTURE
     1 3GH         1 TEMP              0 ****  ****    0 ROOT
