@<TRIPOS>MOLECULE
3GJ
   45    47     1     0     0
SMALL
bcc


@<TRIPOS>ATOM
      1 O11        -0.3640    0.3780    0.1490 o         1 3GJ     -0.558100
      2 C10         0.8420    0.1640   -0.0550 c         1 3GJ      0.684700
      3 N9          1.8070    0.3390    0.9450 n         1 3GJ     -0.481100
      4 C1          1.5000    0.7280    2.2590 ca        1 3GJ      0.100600
      5 C6          0.9590    2.0020    2.5600 ca        1 3GJ     -0.113400
      6 CL7         0.6430    3.1470    1.3600 cl        1 3GJ     -0.057400
      7 C5          0.6900    2.3310    3.9060 ca        1 3GJ      0.414700
      8 N4          0.9470    1.5130    4.9390 nb        1 3GJ     -0.649000
      9 C3          1.4890    0.3140    4.6660 ca        1 3GJ      0.414700
     10 C2          1.7780   -0.1230    3.3600 ca        1 3GJ     -0.113400
     11 CL8         2.4580   -1.6580    3.1280 cl        1 3GJ     -0.057400
     12 C12         1.3490   -0.2980   -1.3770 ca        1 3GJ     -0.166600
     13 C17         0.5290   -1.1570   -2.1200 ca        1 3GJ     -0.077000
     14 C16         0.9480   -1.6060   -3.3720 ca        1 3GJ      0.058100
     15 C15         2.1980   -1.1870   -3.8940 ca        1 3GJ      0.148100
     16 O18         2.5240   -1.6700   -5.1400 os        1 3GJ     -0.307900
     17 C19         3.8440   -1.3900   -5.5980 c3        1 3GJ      0.106700
     18 C14         3.0060   -0.3250   -3.1420 ca        1 3GJ     -0.205000
     19 C13         2.5780    0.1190   -1.8920 ca        1 3GJ     -0.068000
     20 O20         0.2280   -2.5580   -4.0780 os        1 3GJ     -0.307900
     21 C21        -1.1000   -2.1720   -4.4410 c3        1 3GJ      0.095100
     22 C22        -1.1250   -1.3660   -5.6760 cc        1 3GJ      0.218000
     23 C26        -0.2390   -1.0480   -6.6810 cd        1 3GJ     -0.333600
     24 C25        -1.0170   -0.2110   -7.6010 cd        1 3GJ      0.315600
     25 N24        -2.2700   -0.0850   -7.1160 nc        1 3GJ     -0.354300
     26 O23        -2.3670   -0.7510   -5.9830 os        1 3GJ     -0.123100
     27 C27        -0.4680    0.3690   -8.8460 c3        1 3GJ     -0.110700
     28 C28        -1.4470    1.2180   -9.6160 c3        1 3GJ     -0.092100
     29 H1          2.6700   -0.1470    0.8320 hn        1 3GJ      0.326500
     30 H2          0.2480    3.3130    4.1630 h4        1 3GJ      0.042600
     31 H3          1.6960   -0.3360    5.5370 h4        1 3GJ      0.042600
     32 H4         -0.4460   -1.4700   -1.7120 ha        1 3GJ      0.167000
     33 H5          3.9760   -0.2930   -5.7620 h1        1 3GJ      0.050033
     34 H6          3.9000   -1.9450   -6.5690 h1        1 3GJ      0.050033
     35 H7          4.6050   -1.7760   -4.8780 h1        1 3GJ      0.050033
     36 H8          3.9750    0.0160   -3.5330 ha        1 3GJ      0.147000
     37 H9          3.2170    0.8170   -1.3280 ha        1 3GJ      0.146000
     38 H10        -1.6110   -1.6210   -3.6060 h1        1 3GJ      0.084200
     39 H11        -1.6120   -3.1610   -4.6200 h1        1 3GJ      0.084200
     40 H12         0.8040   -1.3340   -6.7810 ha        1 3GJ      0.188000
     41 H13         0.4330    0.9850   -8.5720 hc        1 3GJ      0.056700
     42 H14        -0.1100   -0.4780   -9.4940 hc        1 3GJ      0.056700
     43 H15        -2.3380    0.6190   -9.9220 hc        1 3GJ      0.043367
     44 H16        -0.9570    1.6210  -10.5350 hc        1 3GJ      0.043367
     45 H17        -1.8000    2.0780   -8.9970 hc        1 3GJ      0.043367
@<TRIPOS>BOND
     1    1    2 2   
     2    2    3 1   
     3    2   12 1   
     4    3    4 1   
     5    3   29 1   
     6    4    5 ar  
     7    4   10 ar  
     8    5    6 1   
     9    5    7 ar  
    10    7    8 ar  
    11    7   30 1   
    12    8    9 ar  
    13    9   10 ar  
    14    9   31 1   
    15   10   11 1   
    16   12   13 ar  
    17   12   19 ar  
    18   13   14 ar  
    19   13   32 1   
    20   14   15 ar  
    21   14   20 1   
    22   15   16 1   
    23   15   18 ar  
    24   16   17 1   
    25   17   33 1   
    26   17   34 1   
    27   17   35 1   
    28   18   19 ar  
    29   18   36 1   
    30   19   37 1   
    31   20   21 1   
    32   21   22 1   
    33   21   38 1   
    34   21   39 1   
    35   22   23 2   
    36   22   26 1   
    37   23   24 1   
    38   23   40 1   
    39   24   25 2   
    40   24   27 1   
    41   25   26 1   
    42   27   28 1   
    43   27   41 1   
    44   27   42 1   
    45   28   43 1   
    46   28   44 1   
    47   28   45 1   
@<TRIPOS>SUBSTRUCTURE
     1 3GJ         1 TEMP              0 ****  ****    0 ROOT
