@<TRIPOS>MOLECULE
3GJ
   45    47     1     0     0
SMALL
bcc


@<TRIPOS>ATOM
      1 O11        -0.3600    0.4210    0.1430 o         1 3GJ     -0.558100
      2 C10         0.8400    0.1700   -0.0550 c         1 3GJ      0.684700
      3 N9          1.8060    0.3160    0.9490 ns        1 3GJ     -0.481100
      4 C1          1.5060    0.7160    2.2600 ca        1 3GJ      0.100600
      5 C6          1.0040    2.0060    2.5580 ca        1 3GJ     -0.113400
      6 Cl7         0.7290    3.1590    1.3540 cl        1 3GJ     -0.057400
      7 C5          0.7390    2.3470    3.9020 ca        1 3GJ      0.414700
      8 N4          0.9660    1.5230    4.9380 nb        1 3GJ     -0.649000
      9 C3          1.4700    0.3060    4.6680 ca        1 3GJ      0.414700
     10 C2          1.7520   -0.1420    3.3640 ca        1 3GJ     -0.113400
     11 Cl8         2.3840   -1.6980    3.1380 cl        1 3GJ     -0.057400
     12 C12         1.3380   -0.3100   -1.3740 ca        1 3GJ     -0.166600
     13 C17         0.4950   -1.1450   -2.1190 ca        1 3GJ     -0.077000
     14 C16         0.9050   -1.6090   -3.3690 ca        1 3GJ      0.058100
     15 C15         2.1700   -1.2300   -3.8850 ca        1 3GJ      0.148100
     16 O18         2.4860   -1.7260   -5.1290 os        1 3GJ     -0.307900
     17 C19         3.8170   -1.4890   -5.5820 c3        1 3GJ      0.106700
     18 C14         3.0010   -0.3930   -3.1310 ca        1 3GJ     -0.205000
     19 C13         2.5820    0.0660   -1.8840 ca        1 3GJ     -0.068000
     20 O20         0.1580   -2.5390   -4.0760 os        1 3GJ     -0.307900
     21 C21        -1.1550   -2.1130   -4.4460 c3        1 3GJ      0.095100
     22 C22        -1.1500   -1.3090   -5.6820 cc        1 3GJ      0.218000
     23 C26        -0.2490   -1.0200   -6.6840 cd        1 3GJ     -0.333600
     24 C25        -0.9970   -0.1610   -7.6090 cd        1 3GJ      0.315600
     25 N24        -2.2470    0.0040   -7.1300 nc        1 3GJ     -0.354300
     26 O23        -2.3700   -0.6560   -5.9960 os        1 3GJ     -0.123100
     27 C27        -0.4240    0.4000   -8.8520 c3        1 3GJ     -0.110700
     28 C28        -1.3770    1.2690   -9.6330 c3        1 3GJ     -0.092100
     29 H1          2.6540   -0.1980    0.8400 hn        1 3GJ      0.326500
     30 H2          0.3270    3.3420    4.1550 h4        1 3GJ      0.042600
     31 H3          1.6530   -0.3480    5.5410 h4        1 3GJ      0.042600
     32 H4         -0.4910   -1.4270   -1.7150 ha        1 3GJ      0.167000
     33 H5          3.9840   -0.3970   -5.7480 h1        1 3GJ      0.050033
     34 H6          3.8590   -2.0470   -6.5520 h1        1 3GJ      0.050033
     35 H7          4.5620   -1.8970   -4.8580 h1        1 3GJ      0.050033
     36 H8          3.9820   -0.0840   -3.5190 ha        1 3GJ      0.147000
     37 H9          3.2400    0.7450   -1.3190 ha        1 3GJ      0.146000
     38 H10        -1.6520   -1.5450   -3.6140 h1        1 3GJ      0.084200
     39 H11        -1.6970   -3.0860   -4.6250 h1        1 3GJ      0.084200
     40 H12         0.7850   -1.3390   -6.7790 ha        1 3GJ      0.188000
     41 H13         0.4890    0.9940   -8.5740 hc        1 3GJ      0.056700
     42 H14        -0.0820   -0.4590   -9.4940 hc        1 3GJ      0.056700
     43 H15        -2.2800    0.6910   -9.9430 hc        1 3GJ      0.043033
     44 H16        -0.8700    1.6540  -10.5510 hc        1 3GJ      0.043033
     45 H17        -1.7120    2.1410   -9.0210 hc        1 3GJ      0.043033
@<TRIPOS>BOND
     1    1    2 2   
     2    2    3 1   
     3    2   12 1   
     4    3    4 1   
     5    3   29 1   
     6    4    5 ar  
     7    4   10 ar  
     8    5    6 1   
     9    5    7 ar  
    10    7    8 ar  
    11    7   30 1   
    12    8    9 ar  
    13    9   10 ar  
    14    9   31 1   
    15   10   11 1   
    16   12   13 ar  
    17   12   19 ar  
    18   13   14 ar  
    19   13   32 1   
    20   14   15 ar  
    21   14   20 1   
    22   15   16 1   
    23   15   18 ar  
    24   16   17 1   
    25   17   33 1   
    26   17   34 1   
    27   17   35 1   
    28   18   19 ar  
    29   18   36 1   
    30   19   37 1   
    31   20   21 1   
    32   21   22 1   
    33   21   38 1   
    34   21   39 1   
    35   22   23 2   
    36   22   26 1   
    37   23   24 1   
    38   23   40 1   
    39   24   25 2   
    40   24   27 1   
    41   25   26 1   
    42   27   28 1   
    43   27   41 1   
    44   27   42 1   
    45   28   43 1   
    46   28   44 1   
    47   28   45 1   
@<TRIPOS>SUBSTRUCTURE
     1 3GJ         1 TEMP              0 ****  ****    0 ROOT
