@<TRIPOS>MOLECULE
3GK
   37    38     1     0     0
SMALL
bcc


@<TRIPOS>ATOM
      1 N1          0.0300   -0.5380    0.1140 na        1 3GK     -0.191000
      2 C6          3.1460   -0.0960    1.7610 c2        1 3GK      0.043000
      3 C7          3.2780   -0.0940    3.2070 c2        1 3GK     -0.183000
      4 C8          4.3980   -0.5200    3.8330 c2        1 3GK     -0.010000
      5 C9          6.5930    0.8100    1.4150 c1        1 3GK     -0.190000
      6 C13         3.7740   -0.1340    6.2070 c2        1 3GK      0.339000
      7 C17         3.9530   -1.5860    9.7800 c2        1 3GK      0.010000
      8 C18         4.8970   -0.6050   10.3210 c1        1 3GK      0.123000
      9 C22         0.9110   -1.2850    8.0790 c1        1 3GK     -0.094000
     10 F27         7.2600    0.9870   11.1360 f         1 3GK     -0.161667
     11 F25         5.7980    2.2200   10.0960 f         1 3GK     -0.161667
     12 F26         7.6230    1.6090    9.0960 f         1 3GK     -0.161667
     13 C19         5.9500   -0.1580    9.3970 c3        1 3GK     -0.173000
     14 N23         3.6860   -2.6950   10.3760 n2        1 3GK     -0.213000
     15 N21         2.0520   -1.1730    8.2960 n2        1 3GK      0.147000
     16 C16         3.3540   -1.0490    8.5270 c2        1 3GK     -0.317000
     17 C20         5.4790    0.0290    7.9990 c2        1 3GK     -0.223000
     18 C15         4.2490   -0.3710    7.6110 c2        1 3GK      0.006000
     19 O14         2.6800    0.4090    5.9700 o         1 3GK     -0.344000
     20 N12         4.6290   -0.5720    5.2040 n         1 3GK     -0.313000
     21 C10         5.4540    0.5040    1.1950 c1        1 3GK     -0.138000
     22 C11         4.1340    0.1680    0.8710 c2        1 3GK     -0.043000
     23 C3          1.8020   -0.3920    1.2640 c2        1 3GK     -0.101000
     24 N2          1.2560   -0.0110    0.0640 n2        1 3GK     -0.051000
     25 N4          0.8170   -1.1550    1.9840 n2        1 3GK     -0.092000
     26 N5         -0.2190   -1.2120    1.2570 n2        1 3GK      0.018000
     27 H1         -0.6340   -0.4230   -0.6270 hn        1 3GK      0.304000
     28 H2          2.3960    0.2600    3.7700 ha        1 3GK      0.178000
     29 H3          5.2660   -0.8910    3.2470 h4        1 3GK      0.145000
     30 H4          6.7660   -0.9500    9.4170 hc        1 3GK      0.174000
     31 H5          2.9800   -3.2580    9.9500 hn        1 3GK      0.139000
     32 H6         -0.1390   -1.3470    7.8940 ha        1 3GK      0.315000
     33 H8          6.1850    0.5260    7.3160 ha        1 3GK      0.156000
     34 H9          5.4930   -0.9790    5.4880 hn        1 3GK      0.239000
     35 H10         7.5980    1.0850    1.6090 ha        1 3GK      0.227000
     36 H11         3.9290    0.1440   -0.2180 ha        1 3GK      0.155000
     37 C24         6.6310    1.1490    9.9300 c3        1 3GK      0.442000
@<TRIPOS>BOND
     1    1   24 1   
     2    1   26 1   
     3    1   27 1   
     4    2    3 1   
     5    2   22 1   
     6    2   23 1   
     7    3    4 1   
     8    3   28 1   
     9    4   20 1   
    10    4   29 1   
    11    5   21 1   
    12    5   35 1   
    13    6   18 1   
    14    6   19 1   
    15    6   20 1   
    16    7    8 1   
    17    7   14 1   
    18    7   16 1   
    19    8   13 1   
    20    9   15 1   
    21    9   32 1   
    22   10   37 1   
    23   11   37 1   
    24   12   37 1   
    25   13   17 1   
    26   13   30 1   
    27   13   37 1   
    28   14   31 1   
    29   15   16 1   
    30   16   18 1   
    31   17   18 1   
    32   17   33 1   
    33   20   34 1   
    34   21   22 1   
    35   22   36 1   
    36   23   24 1   
    37   23   25 1   
    38   25   26 1   
@<TRIPOS>SUBSTRUCTURE
     1 3GK         1 TEMP              0 ****  ****    0 ROOT
