@<TRIPOS>MOLECULE
3GL
   18    17     1     0     0
SMALL
bcc


@<TRIPOS>ATOM
      1 N           1.3440    1.0400    1.6290 n3        1 3GL     -0.911800
      2 CA          1.2760   -0.0220    0.6310 c3        1 3GL      0.038500
      3 C           2.5230   -0.0470   -0.3060 c         1 3GL      0.902600
      4 CB          0.0130   -0.0040   -0.2420 c3        1 3GL     -0.092400
      5 CG         -1.2690   -0.3090    0.5280 c3        1 3GL      0.024100
      6 OH         -1.3980   -1.7100    0.7480 oh        1 3GL     -0.641800
      7 CD         -2.5160    0.2280   -0.2150 c         1 3GL      0.887600
      8 OE1        -2.8050    1.4560   -0.1330 o         1 3GL     -0.863300
      9 OE2        -3.2200   -0.6130   -0.8550 o         1 3GL     -0.863300
     10 O           3.1570    1.0310   -0.5210 o         1 3GL     -0.867300
     11 OXT         2.8700   -1.1560   -0.8080 o         1 3GL     -0.867300
     12 HN1         2.0750    1.6800    1.3650 hn        1 3GL      0.329300
     13 HN2         0.4840    1.5580    1.6270 hn        1 3GL      0.329300
     14 HA          1.2720   -0.9940    1.2060 h1        1 3GL      0.048700
     15 HB1C       -0.0980    0.9970   -0.7330 hc        1 3GL      0.047200
     16 HB2C        0.1470   -0.7740   -1.0450 hc        1 3GL      0.047200
     17 HG         -1.2370    0.1390    1.5570 h1        1 3GL      0.043700
     18 HH         -1.8930   -2.0570   -0.0090 ho        1 3GL      0.407000
@<TRIPOS>BOND
     1    1    2 1   
     2    1   12 1   
     3    1   13 1   
     4    2    3 1   
     5    2    4 1   
     6    2   14 1   
     7    3   10 1   
     8    3   11 1   
     9    4    5 1   
    10    4   15 1   
    11    4   16 1   
    12    5    6 1   
    13    5    7 1   
    14    5   17 1   
    15    6   18 1   
    16    7    8 1   
    17    7    9 1   
@<TRIPOS>SUBSTRUCTURE
     1 3GL         1 TEMP              0 ****  ****    0 ROOT
