@<TRIPOS>MOLECULE
3GM
   63    59     1     0     0
SMALL
bcc


@<TRIPOS>ATOM
      1 C1       -336.7660 -109.0020  111.0460 c1        1 3GM     -0.050000
      2 C2       -331.4470 -104.0910  108.1940 c2        1 3GM     -0.208000
      3 C3       -336.1770 -108.9390  109.9230 c1        1 3GM     -0.429000
      4 C4       -332.3770 -104.9940  108.1350 c1        1 3GM     -0.187000
      5 C5        326.8310  105.4450  -96.3460 ca        1 3GM     -0.150000
      6 C6        327.1710  105.6650  -97.6310 ca        1 3GM     -0.082000
      7 C7        328.4450  107.1660  -95.6000 ca        1 3GM     -0.210000
      8 C8       -335.5800 -108.8800  108.7850 c1        1 3GM     -0.138000
      9 C9       -333.3170 -105.8940  108.0680 c2        1 3GM     -0.087000
     10 C10       327.4450  106.1650  -95.2420 ca        1 3GM      0.040000
     11 C11       328.1840  106.6430  -97.9780 ca        1 3GM      0.024000
     12 C12       328.7970  107.3720  -96.9980 ca        1 3GM      0.067000
     13 C15       332.7430  111.2900  -98.8680 c2        1 3GM      0.348000
     14 C16      -335.0440 -108.8080  107.5630 c2        1 3GM      0.010000
     15 C17       331.0540  108.1860  -97.2640 c2        1 3GM      0.229000
     16 C18      -333.0950 -107.3630  108.1950 c3        1 3GM     -0.034000
     17 C19      -333.8770 -108.1440  107.1970 c2        1 3GM     -0.363000
     18 C20       329.5940  107.2790  -99.8010 c3        1 3GM     -0.090000
     19 C21       327.0960  105.9120  -93.9640 c2        1 3GM     -0.297000
     20 C22      -332.0670 -114.0070  108.5660 c3        1 3GM     -0.142000
     21 C24       330.3970  110.8090  -99.6160 c2        1 3GM     -0.260000
     22 C25      -332.2930 -112.5530  108.5210 c2        1 3GM     -0.330000
     23 C26      -332.9750 -111.8910  109.4830 c2        1 3GM     -0.014000
     24 N27      -333.4070 -108.2030  105.8680 n         1 3GM     -0.270000
     25 N28      -333.1230 -110.5210  109.5850 n3        1 3GM     -0.336000
     26 O29       329.4970  108.5370  -93.7630 o         1 3GM     -0.118000
     27 O30       333.7420  112.0100  -99.1430 o         1 3GM     -0.573500
     28 O31       331.4500  107.0580  -96.9960 o         1 3GM     -0.365000
     29 O32      -333.3540 -107.3550  103.7400 o         1 3GM     -0.452000
     30 O33       332.6470  110.6450  -97.7740 o         1 3GM     -0.573500
     31 O34       329.6830  108.4000  -97.2780 os        1 3GM     -0.268000
     32 O35       328.3500  106.7560  -99.3440 os        1 3GM     -0.219000
     33 H1       -331.1380 -103.6260  109.1400 ha        1 3GM      0.109000
     34 H2        324.8580  103.5910  -94.3620 ha        1 3GM      0.001000
     35 H3        324.5560  103.2760  -94.8800 ha        1 3GM      0.001000
     36 H4       -330.9110 -103.7400  107.3010 ha        1 3GM      0.109000
     37 H5        326.0670  104.6980  -96.0780 ha        1 3GM      0.128000
     38 H6        326.7040  105.1200  -98.4650 ha        1 3GM      0.140000
     39 H161     -333.4200 -107.6670  109.2310 hc        1 3GM      0.080000
     40 H162     -335.5980 -109.3790  106.7870 ha        1 3GM      0.135000
     41 H18      -334.3690 -105.5940  107.9120 ha        1 3GM      0.140000
     42 H211      326.3410  105.1600  -93.7110 ha        1 3GM      0.109500
     43 H212     -331.9980 -107.5940  108.1100 hc        1 3GM      0.080000
     44 H221     -334.6420 -106.6460  105.2070 h5        1 3GM      0.115000
     45 H222     -330.9710 -114.2310  108.5980 hc        1 3GM      0.056333
     46 H27      -332.6420 -108.8100  105.6850 hn        1 3GM      0.201000
     47 H231      331.9320  111.5350 -100.8950 ha        1 3GM      0.102000
     48 H232      329.5820  107.0560 -100.8980 h1        1 3GM      0.093667
     49 H19       327.5450  106.4370  -93.1140 ha        1 3GM      0.109500
     50 H171      329.6390  108.3840  -99.6200 h1        1 3GM      0.093667
     51 H172      331.5880  109.1510  -97.5280 h5        1 3GM      0.307000
     52 H20       330.4520  106.7680  -99.2990 h1        1 3GM      0.093667
     53 H241      329.6010  110.7820 -100.3710 ha        1 3GM      0.096000
     54 H242      330.0950  110.4880  -98.6090 ha        1 3GM      0.096000
     55 H251     -332.4890 -114.4950  107.6500 hc        1 3GM      0.056333
     56 H252     -332.5440 -114.4780  109.4610 hc        1 3GM      0.056333
     57 H261     -333.4100 -112.4520  110.3370 h4        1 3GM      0.117000
     58 H262     -331.8650 -112.0300  107.6540 ha        1 3GM      0.120000
     59 H281     -333.9610 -110.2260  110.0470 hn        1 3GM      0.205000
     60 H282     -332.9650 -110.0010  108.7440 hn        1 3GM      0.205000
     61 C23       331.6360  111.2070  -99.8860 c2        1 3GM     -0.190000
     62 C14      -333.8270 -107.3420  104.9000 c2        1 3GM      0.247000
     63 C13       329.0160  107.8990  -94.6380 c1        1 3GM      0.316000
@<TRIPOS>BOND
     1    1    3 1   
     2    2    4 1   
     3    2   33 1   
     4    2   36 1   
     5    3    8 1   
     6    4    9 1   
     7    5    6 1   
     8    5   10 1   
     9    5   37 1   
    10    6   11 1   
    11    6   38 1   
    12    7   10 1   
    13    7   12 1   
    14    7   63 1   
    15    8   14 1   
    16    9   16 1   
    17    9   41 1   
    18   10   19 1   
    19   11   12 1   
    20   11   32 1   
    21   12   31 1   
    22   13   27 1   
    23   13   30 1   
    24   13   61 1   
    25   14   17 1   
    26   14   40 1   
    27   15   28 1   
    28   15   31 1   
    29   15   51 1   
    30   16   17 1   
    31   16   39 1   
    32   16   43 1   
    33   17   24 1   
    34   18   32 1   
    35   18   48 1   
    36   18   50 1   
    37   18   52 1   
    38   19   42 1   
    39   19   49 1   
    40   20   22 1   
    41   20   45 1   
    42   20   55 1   
    43   20   56 1   
    44   21   53 1   
    45   21   54 1   
    46   21   61 1   
    47   22   23 1   
    48   22   58 1   
    49   23   25 1   
    50   23   57 1   
    51   24   46 1   
    52   24   62 1   
    53   25   59 1   
    54   25   60 1   
    55   26   63 1   
    56   29   62 1   
    57   34   35 1   
    58   44   62 1   
    59   47   61 1   
@<TRIPOS>SUBSTRUCTURE
     1 3GM         1 TEMP              0 ****  ****    0 ROOT
