@<TRIPOS>MOLECULE
3GM
   63    66     1     0     0
SMALL
bcc


@<TRIPOS>ATOM
      1 C1          2.6070   -6.1790    0.1450 ca        1 3GM     -0.152000
      2 C2          1.3200   -5.7130    0.3980 ca        1 3GM     -0.145000
      3 C3          3.6020   -5.3100   -0.3200 ca        1 3GM     -0.135000
      4 C4          0.9940   -4.3660    0.1910 ca        1 3GM     -0.117000
      5 C5         -0.7140   -1.4240    1.6330 ca        1 3GM     -0.150000
      6 C6         -2.0360   -1.0040    1.7370 ca        1 3GM     -0.160000
      7 C7         -0.2280    0.3380    0.0240 ca        1 3GM     -0.084600
      8 C8          3.2840   -3.9780   -0.5280 ca        1 3GM     -0.079300
      9 C9          1.9740   -3.5020   -0.2730 ca        1 3GM     -0.059300
     10 C10         0.1850   -0.7690    0.7860 ca        1 3GM     -0.092300
     11 C11        -2.4630    0.0920    0.9790 ca        1 3GM      0.055100
     12 C12        -1.5590    0.7640    0.1280 ca        1 3GM      0.075100
     13 C15        -7.7090    3.1340    0.0290 c         1 3GM      0.908600
     14 C16         4.1680   -2.8770   -1.0040 c3        1 3GM     -0.056100
     15 C17        -3.1890    2.4340   -0.1810 c3        1 3GM      0.094400
     16 C18         1.8570   -2.0380   -0.5670 c3        1 3GM     -0.049400
     17 C19         3.1870   -1.7260   -1.3530 c3        1 3GM      0.117700
     18 C20        -4.2520    1.3810    0.1120 c3        1 3GM      0.104100
     19 C21         1.6030   -1.2330    0.7040 c3        1 3GM     -0.017100
     20 C22         4.6620    1.6540   -0.3280 c3        1 3GM     -0.177400
     21 C24        -5.5490    1.9860    0.6330 c3        1 3GM     -0.062400
     22 C25         5.5800    2.1070    0.7810 c3        1 3GM     -0.102400
     23 C26         5.7430    3.6260    0.7540 c3        1 3GM      0.137800
     24 N27         3.6760   -0.3780   -1.2950 n         1 3GM     -0.535900
     25 N28         6.5470    4.1940    1.8110 n3        1 3GM     -0.905800
     26 O29         0.9590    0.5780   -2.0460 o         1 3GM     -0.843800
     27 O30        -8.8290    2.7870   -0.4480 o         1 3GM     -0.856300
     28 O31         1.5170    1.9310   -0.3790 o         1 3GM     -0.843800
     29 O32         5.3530   -0.5720    0.3050 o         1 3GM     -0.675100
     30 O33        -7.5720    4.0510    0.8900 o         1 3GM     -0.856300
     31 O34        -1.9770    1.8330   -0.6500 os        1 3GM     -0.301900
     32 O35        -3.7800    0.4830    1.1410 os        1 3GM     -0.333900
     33 H1          2.8490   -7.2380    0.3120 ha        1 3GM      0.108000
     34 H2          0.5480   -6.4050    0.7630 ha        1 3GM      0.114000
     35 H3          4.6170   -5.6810   -0.5150 ha        1 3GM      0.117000
     36 H4         -0.0210   -3.9940    0.3990 ha        1 3GM      0.147000
     37 H5         -0.3730   -2.2840    2.2270 ha        1 3GM      0.109000
     38 H6         -2.7470   -1.5110    2.4010 ha        1 3GM      0.126000
     39 H161        4.8900   -2.5880   -0.1980 hc        1 3GM      0.070200
     40 H162        4.7540   -3.1730   -1.9080 hc        1 3GM      0.070200
     41 H18         1.0090   -1.8310   -1.2820 hc        1 3GM      0.108700
     42 H211        2.2640   -0.3240    0.7410 hc        1 3GM      0.054200
     43 H212        1.8530   -1.8550    1.6030 hc        1 3GM      0.054200
     44 H221        5.0350    2.0290   -1.3170 hc        1 3GM      0.099200
     45 H222        3.6230    2.0740   -0.1750 hc        1 3GM      0.099200
     46 H27         2.9870    0.2830   -1.6420 hn        1 3GM      0.369500
     47 H231       -6.7660    1.5300   -1.1040 hc        1 3GM      0.023200
     48 H232       -5.9110    3.1240   -1.1720 hc        1 3GM      0.023200
     49 H19         2.9070   -1.8680   -2.4460 h1        1 3GM      0.052700
     50 H171       -3.5060    3.1010   -1.0240 h1        1 3GM      0.064700
     51 H172       -2.9680    3.0380    0.7360 h1        1 3GM      0.064700
     52 H20        -4.4360    0.7630   -0.8110 h1        1 3GM      0.052700
     53 H241       -6.0720    1.2220    1.2670 hc        1 3GM      0.058700
     54 H242       -5.3300    2.8680    1.2900 hc        1 3GM      0.058700
     55 H251        5.1550    1.7790    1.7660 hc        1 3GM      0.043200
     56 H252        6.5800    1.6080    0.6740 hc        1 3GM      0.043200
     57 H261        6.2140    3.9220   -0.2260 h1        1 3GM      0.054700
     58 H262        4.7210    4.1020    0.7950 h1        1 3GM      0.054700
     59 H281        6.0900    4.0740    2.6960 hn        1 3GM      0.332800
     60 H282        7.4340    3.7300    1.8590 hn        1 3GM      0.332800
     61 C23        -6.4540    2.4160   -0.4960 c3        1 3GM     -0.193400
     62 C14         4.5770    0.1340   -0.3830 c         1 3GM      0.660100
     63 C13         0.7920    1.0160   -0.8690 c         1 3GM      0.924200
@<TRIPOS>BOND
     1    1    2 ar  
     2    1    3 ar  
     3    1   33 1   
     4    2    4 ar  
     5    2   34 1   
     6    3    8 ar  
     7    3   35 1   
     8    4    9 ar  
     9    4   36 1   
    10    5    6 ar  
    11    5   10 ar  
    12    5   37 1   
    13    6   11 ar  
    14    6   38 1   
    15    7   10 ar  
    16    7   12 ar  
    17    7   63 1   
    18    8    9 ar  
    19    8   14 1   
    20    9   16 1   
    21   10   19 1   
    22   11   12 ar  
    23   11   32 1   
    24   12   31 1   
    25   13   27 1   
    26   13   30 1   
    27   13   61 1   
    28   14   17 1   
    29   14   39 1   
    30   14   40 1   
    31   15   18 1   
    32   15   31 1   
    33   15   50 1   
    34   15   51 1   
    35   16   17 1   
    36   16   19 1   
    37   16   41 1   
    38   17   24 1   
    39   17   49 1   
    40   18   21 1   
    41   18   32 1   
    42   18   52 1   
    43   19   42 1   
    44   19   43 1   
    45   20   22 1   
    46   20   44 1   
    47   20   45 1   
    48   20   62 1   
    49   21   53 1   
    50   21   54 1   
    51   21   61 1   
    52   22   23 1   
    53   22   55 1   
    54   22   56 1   
    55   23   25 1   
    56   23   57 1   
    57   23   58 1   
    58   24   46 1   
    59   24   62 1   
    60   25   59 1   
    61   25   60 1   
    62   26   63 1   
    63   28   63 1   
    64   29   62 2   
    65   47   61 1   
    66   48   61 1   
@<TRIPOS>SUBSTRUCTURE
     1 3GM         1 TEMP              0 ****  ****    0 ROOT
