@<TRIPOS>MOLECULE
3GM
   63    58     1     0     0
SMALL
bcc


@<TRIPOS>ATOM
      1 C1         -3.5550   -0.1650   -4.5360 c1        1 3GM     -0.143167
      2 C2         -2.1450   -0.1010   -4.5010 c1        1 3GM     -0.143167
      3 C3         -4.2850   -0.2710   -3.3400 c1        1 3GM     -0.143167
      4 C4         -1.4690   -0.1420   -3.2720 c1        1 3GM     -0.143167
      5 C5          0.8610    1.5670   -1.6190 c1        1 3GM     -0.143167
      6 C6          2.2200    1.6070   -2.0600 c1        1 3GM     -0.143167
      7 C7          1.4430   -0.1700    0.0620 c1        1 3GM     -0.064000
      8 C8         -3.6170   -0.3120   -2.1170 c1        1 3GM     -0.072000
      9 C9         -2.1930   -0.2470   -2.0810 c1        1 3GM     -0.052000
     10 C10         0.4720    0.6760   -0.5550 c1        1 3GM     -0.085000
     11 C11         3.1700    0.7860   -1.4620 c1        1 3GM      0.010000
     12 C12         2.7690   -0.1340   -0.3630 c1        1 3GM      0.030000
     13 C13         1.6570   -0.8570    1.4010 c2        1 3GM      0.373000
     14 C14        -3.6010   -0.3880    2.5620 c1        1 3GM      0.304000
     15 C15         8.9230   -0.4430   -3.0720 c1        1 3GM      0.328000
     16 C16        -4.1160   -0.6500   -0.6880 c3        1 3GM     -0.142000
     17 C17         5.0940   -0.7620   -0.1200 c3        1 3GM     -0.056000
     18 C18        -1.7340   -0.5500   -0.6270 c3        1 3GM     -0.096000
     19 C19        -2.9300   -0.8470    0.1750 c3        1 3GM      0.041000
     20 C20         5.2970   -0.3730   -1.5360 c3        1 3GM     -0.007000
     21 C21        -1.0140    0.6600   -0.0500 c3        1 3GM     -0.103000
     22 C22        -3.6590    0.5680    3.7850 c2        1 3GM     -0.206000
     23 C23         7.4260   -0.7110   -2.9610 c2        1 3GM     -0.222000
     24 C24         6.8670    0.0150   -1.7300 c3        1 3GM     -0.141000
     25 C25        -4.7730    0.0980    4.7590 c3        1 3GM     -0.181000
     26 C26        -4.7920    1.0130    5.9960 c3        1 3GM     -0.099000
     27 N27        -2.9960    0.0580    1.3210 n3        1 3GM     -0.345000
     28 N28        -5.9150    0.6610    6.8380 n3        1 3GM     -0.338000
     29 O29         1.9760   -0.1750    2.4190 o         1 3GM     -0.578500
     30 O30         9.3510    0.3820   -3.9150 o         1 3GM     -0.591000
     31 O31         1.5710   -2.0970    1.4850 o         1 3GM     -0.578500
     32 O32        -4.0500   -1.5070    2.6470 o         1 3GM     -0.436000
     33 O33         9.7370   -1.1160   -2.3760 o         1 3GM     -0.591000
     34 O34         3.8540   -0.9940    0.2580 os        1 3GM     -0.185000
     35 O35         4.5560    0.6600   -1.9920 os        1 3GM     -0.217000
     36 H1         -4.0270   -0.1360   -5.4020 ha        1 3GM      0.120167
     37 H2         -1.6390   -0.0280   -5.3340 ha        1 3GM      0.120167
     38 H3         -5.2670   -0.2580   -3.3610 ha        1 3GM      0.120167
     39 H4         -0.4940   -0.1680   -3.2530 ha        1 3GM      0.120167
     40 H5          0.1940    2.1450   -2.0410 ha        1 3GM      0.120167
     41 H6          2.4810    2.2110   -2.7800 ha        1 3GM      0.120167
     42 H161       -4.6500   -1.4710   -0.7100 hc        1 3GM      0.109500
     43 H162       -4.6550    0.0840   -0.3450 hc        1 3GM      0.109500
     44 H18        -1.1360   -1.3220   -0.6250 hc        1 3GM      0.148000
     45 H211       -1.4670    1.4790   -0.3420 hc        1 3GM      0.093500
     46 H212       -1.0250    0.6120    0.9260 hc        1 3GM      0.093500
     47 H221       -3.8550    1.4800    3.4780 ha        1 3GM      0.138500
     48 H222       -2.7980    0.5580    4.2460 ha        1 3GM      0.138500
     49 H27        -2.7140    0.9260    1.2360 hn        1 3GM      0.283000
     50 H231        7.2720   -1.6740   -2.8710 ha        1 3GM      0.062500
     51 H232        6.9770   -0.3840   -3.7620 ha        1 3GM      0.062500
     52 H19        -2.8980   -1.7720    0.4860 h1        1 3GM      0.092000
     53 H171        5.6170   -1.5720    0.0480 h1        1 3GM      0.104000
     54 H172        5.4560   -0.0400    0.4480 h1        1 3GM      0.104000
     55 H20         5.1050   -1.1490   -2.0920 h1        1 3GM      0.092000
     56 H241        6.9510    0.9870   -1.8560 hc        1 3GM      0.098000
     57 H242        7.3700   -0.2560   -0.9350 hc        1 3GM      0.098000
     58 H251       -4.5960   -0.8190    5.0360 hc        1 3GM      0.082500
     59 H252       -5.6420    0.1410    4.3070 hc        1 3GM      0.082500
     60 H261       -3.9590    0.9010    6.4990 h1        1 3GM      0.094000
     61 H262       -4.8780    1.9500    5.7100 h1        1 3GM      0.094000
     62 H281       -6.5060    1.3650    6.8720 hn        1 3GM      0.128000
     63 H282       -5.6160    0.4720    7.6830 hn        1 3GM      0.128000
@<TRIPOS>BOND
     1    1    3 1   
     2    1   36 1   
     3    2    4 1   
     4    2   37 1   
     5    3   38 1   
     6    4   39 1   
     7    5    6 1   
     8    5   40 1   
     9    6   41 1   
    10    7   10 1   
    11    7   13 1   
    12    8    9 1   
    13    8   16 1   
    14    9   18 1   
    15   10   21 1   
    16   11   12 1   
    17   11   35 1   
    18   12   34 1   
    19   13   29 1   
    20   13   31 1   
    21   14   27 1   
    22   14   32 1   
    23   15   30 1   
    24   15   33 1   
    25   16   19 1   
    26   16   42 1   
    27   16   43 1   
    28   17   20 1   
    29   17   34 1   
    30   17   53 1   
    31   17   54 1   
    32   18   19 1   
    33   18   21 1   
    34   18   44 1   
    35   19   27 1   
    36   19   52 1   
    37   20   24 1   
    38   20   35 1   
    39   20   55 1   
    40   21   45 1   
    41   21   46 1   
    42   22   25 1   
    43   22   47 1   
    44   22   48 1   
    45   23   24 1   
    46   23   50 1   
    47   23   51 1   
    48   24   56 1   
    49   24   57 1   
    50   25   26 1   
    51   25   58 1   
    52   25   59 1   
    53   26   28 1   
    54   26   60 1   
    55   26   61 1   
    56   27   49 1   
    57   28   62 1   
    58   28   63 1   
@<TRIPOS>SUBSTRUCTURE
     1 3GM         1 TEMP              0 ****  ****    0 ROOT
