@<TRIPOS>MOLECULE
3GN
   35    37     1     0     0
SMALL
bcc


@<TRIPOS>ATOM
      1 C4         -0.0290   -0.0040   -0.0040 ca        1 3GN      0.014800
      2 C5          1.3800   -0.0530   -0.0270 ca        1 3GN     -0.238600
      3 C6          2.0420   -0.0460    1.2220 ca        1 3GN     -0.070000
      4 C8         -2.2570    0.0670   -0.3440 cc        1 3GN      0.474800
      5 C10         2.0360   -0.1050   -1.3060 c         1 3GN      0.582700
      6 C13        -3.5820    0.1020   -1.1100 c3        1 3GN      0.163900
      7 C15        -3.8700   -1.1450   -3.1310 c3        1 3GN      0.150800
      8 C17        -4.3960   -1.1760   -0.7440 c3        1 3GN     -0.087400
      9 C1          1.3450    0.0060    2.4180 ca        1 3GN     -0.155000
     10 C2         -0.0590    0.0560    2.4660 ca        1 3GN      0.024000
     11 C3         -0.7600    0.0520    1.2690 ca        1 3GN      0.062400
     12 N7         -2.1430    0.0950    0.9970 nd        1 3GN     -0.548100
     13 N9         -0.9890    0.0060   -0.9950 na        1 3GN     -0.246300
     14 N11         3.5610   -0.1430   -1.3030 nz        1 3GN     -0.758400
     15 O12         1.5630   -0.1230   -2.4380 o         1 3GN     -0.466100
     16 N14        -3.3350    0.0880   -2.5650 n7        1 3GN     -0.834200
     17 C16        -4.6380   -1.9190   -2.0500 c3        1 3GN     -0.104400
     18 C18        -4.3340    1.3540   -0.6360 c3        1 3GN     -0.110100
     19 H6          3.1410   -0.0840    1.2720 ha        1 3GN      0.118000
     20 H15        -2.9950   -1.7520   -3.4950 h1        1 3GN      0.054700
     21 H15A       -4.5300   -0.9360   -4.0160 h1        1 3GN      0.054700
     22 H17        -5.3610   -0.8810   -0.2630 hc        1 3GN      0.070200
     23 H17A       -3.8400   -1.8180   -0.0190 hc        1 3GN      0.070200
     24 H1          1.9050    0.0090    3.3690 ha        1 3GN      0.165000
     25 H2         -0.5880    0.0980    3.4330 ha        1 3GN      0.182000
     26 HN9        -0.8360   -0.0240   -1.9750 hn        1 3GN      0.346700
     27 HN11        3.8860   -0.9730   -0.8020 hn        1 3GN      0.465133
     28 HN1A        3.9040   -0.1730   -2.2710 hn        1 3GN      0.465133
     29 HN14       -3.7420    0.8970   -2.9950 hn        1 3GN      0.380800
     30 H16        -5.7290   -1.9520   -2.2930 hc        1 3GN      0.062700
     31 H16A       -4.2740   -2.9730   -1.9890 hc        1 3GN      0.062700
     32 H18        -3.7390    2.2760   -0.8390 hc        1 3GN      0.061033
     33 H18A       -4.5330    1.2880    0.4610 hc        1 3GN      0.061033
     34 H18B       -5.3140    1.4320   -1.1670 hc        1 3GN      0.061033
     35 H113        3.9270    0.6920   -0.8390 hn        1 3GN      0.465133
@<TRIPOS>BOND
     1    1    2 ar  
     2    1   11 ar  
     3    1   13 1   
     4    2    3 ar  
     5    2    5 1   
     6    3    9 ar  
     7    3   19 1   
     8    4    6 1   
     9    4   12 2   
    10    4   13 1   
    11    5   14 1   
    12    5   15 2   
    13    6    8 1   
    14    6   16 1   
    15    6   18 1   
    16    7   16 1   
    17    7   17 1   
    18    7   20 1   
    19    7   21 1   
    20    8   17 1   
    21    8   22 1   
    22    8   23 1   
    23    9   10 ar  
    24    9   24 1   
    25   10   11 ar  
    26   10   25 1   
    27   11   12 1   
    28   13   26 1   
    29   14   27 1   
    30   14   28 1   
    31   14   35 1   
    32   16   29 1   
    33   17   30 1   
    34   17   31 1   
    35   18   32 1   
    36   18   33 1   
    37   18   34 1   
@<TRIPOS>SUBSTRUCTURE
     1 3GN         1 TEMP              0 ****  ****    0 ROOT
