@<TRIPOS>MOLECULE
3GN
   34    36     1     0     0
SMALL
bcc


@<TRIPOS>ATOM
      1 C4         -1.1220    0.2410   -0.0190 ca        1 3GN     -0.036200
      2 C5         -2.4430   -0.2020   -0.2110 ca        1 3GN     -0.146600
      3 C6         -3.4160    0.7780   -0.3970 ca        1 3GN     -0.086000
      4 C8          1.0800    0.5440    0.3110 cc        1 3GN      0.434800
      5 C10        -2.7160   -1.6600   -0.2180 c         1 3GN      0.681700
      6 C13         2.5550    0.2160    0.5300 c3        1 3GN      0.169900
      7 C15         3.4990   -1.7340   -0.4820 c3        1 3GN      0.150800
      8 C17         3.3560    0.6920   -0.7190 c3        1 3GN     -0.089400
      9 C1         -3.1020    2.1460   -0.3730 ca        1 3GN     -0.171000
     10 C2         -1.8080    2.6040   -0.1660 ca        1 3GN     -0.046000
     11 C3         -0.7910    1.6600    0.0130 ca        1 3GN      0.057400
     12 N7          0.5910    1.8050    0.2240 nd        1 3GN     -0.588100
     13 N9          0.0770   -0.4360    0.1770 na        1 3GN     -0.232300
     14 N11        -3.9980   -2.1050   -0.0060 n         1 3GN     -0.669000
     15 O12        -1.8070   -2.5030   -0.4030 o         1 3GN     -0.641100
     16 N14         2.7520   -1.2430    0.6680 n3        1 3GN     -0.818200
     17 C16         4.0010   -0.5490   -1.3190 c3        1 3GN     -0.103400
     18 C18         3.0150    0.9980    1.7680 c3        1 3GN     -0.103100
     19 H6         -4.4630    0.4950   -0.5850 ha        1 3GN      0.127000
     20 H15         4.3540   -2.3890   -0.1660 h1        1 3GN      0.049700
     21 H15A        2.7930   -2.3640   -1.0910 h1        1 3GN      0.049700
     22 H17         2.6850    1.1900   -1.4600 hc        1 3GN      0.064200
     23 H17A        4.1300    1.4380   -0.4110 hc        1 3GN      0.064200
     24 H1         -3.9130    2.8740   -0.5270 ha        1 3GN      0.134000
     25 H2         -1.5800    3.6800   -0.1460 ha        1 3GN      0.149000
     26 HN9         0.1880   -1.4220    0.1570 hn        1 3GN      0.346700
     27 HN11       -4.7310   -1.4830    0.2120 hn        1 3GN      0.313500
     28 HN1A       -4.1740   -3.0790    0.0080 hn        1 3GN      0.313500
     29 HN14        3.2270   -1.4470    1.5270 hn        1 3GN      0.367800
     30 H16         5.1160   -0.4810   -1.2750 hc        1 3GN      0.051200
     31 H16A        3.7120   -0.6760   -2.3900 hc        1 3GN      0.051200
     32 H18         2.4050    0.7160    2.6600 hc        1 3GN      0.052033
     33 H18A        4.0900    0.7840    1.9820 hc        1 3GN      0.052033
     34 H18B        2.9000    2.0940    1.5890 hc        1 3GN      0.052033
@<TRIPOS>BOND
     1    1    2 ar  
     2    1   11 ar  
     3    1   13 1   
     4    2    3 ar  
     5    2    5 1   
     6    3    9 ar  
     7    3   19 1   
     8    4    6 1   
     9    4   12 2   
    10    4   13 1   
    11    5   14 1   
    12    5   15 2   
    13    6    8 1   
    14    6   16 1   
    15    6   18 1   
    16    7   16 1   
    17    7   17 1   
    18    7   20 1   
    19    7   21 1   
    20    8   17 1   
    21    8   22 1   
    22    8   23 1   
    23    9   10 ar  
    24    9   24 1   
    25   10   11 ar  
    26   10   25 1   
    27   11   12 1   
    28   13   26 1   
    29   14   27 1   
    30   14   28 1   
    31   16   29 1   
    32   17   30 1   
    33   17   31 1   
    34   18   32 1   
    35   18   33 1   
    36   18   34 1   
@<TRIPOS>SUBSTRUCTURE
     1 3GN         1 TEMP              0 ****  ****    0 ROOT
