@<TRIPOS>MOLECULE
3GN
   35    37     1     0     0
SMALL
bcc


@<TRIPOS>ATOM
      1 C4         -0.0260    0.0020   -0.0120 ca        1 3GN      0.014800
      2 C5          1.3830   -0.0460   -0.0430 ca        1 3GN     -0.238600
      3 C6          2.0530   -0.0420    1.2030 ca        1 3GN     -0.070000
      4 C8         -2.2560    0.0740   -0.3380 cc        1 3GN      0.474800
      5 C10         2.0320   -0.0970   -1.3250 c         1 3GN      0.582700
      6 C13        -3.5850    0.1100   -1.0960 c3        1 3GN      0.163900
      7 C15        -3.8840   -1.1320   -3.1190 c3        1 3GN      0.150800
      8 C17        -4.3950   -1.1700   -0.7290 c3        1 3GN     -0.087400
      9 C1          1.3630    0.0090    2.4020 ca        1 3GN     -0.155000
     10 C2         -0.0410    0.0600    2.4590 ca        1 3GN      0.024000
     11 C3         -0.7490    0.0570    1.2660 ca        1 3GN      0.062400
     12 N7         -2.1340    0.1010    1.0020 nd        1 3GN     -0.548100
     13 N9         -0.9910    0.0140   -0.9960 na        1 3GN     -0.246300
     14 N11         3.5560   -0.1360   -1.3320 n4        1 3GN     -0.758400
     15 O12         1.5520   -0.1150   -2.4550 o         1 3GN     -0.466100
     16 N14        -3.3470    0.1000   -2.5530 n3        1 3GN     -0.834200
     17 C16        -4.6440   -1.9100   -2.0350 c3        1 3GN     -0.104400
     18 C18        -4.3360    1.3590   -0.6140 c3        1 3GN     -0.110100
     19 H6          3.1520   -0.0790    1.2460 ha        1 3GN      0.118000
     20 H15        -3.0110   -1.7370   -3.4900 h1        1 3GN      0.054700
     21 H15A       -4.5500   -0.9210   -3.9980 h1        1 3GN      0.054700
     22 H17        -3.8340   -1.8140   -0.0080 hc        1 3GN      0.070200
     23 H17A       -5.3580   -0.8780   -0.2410 hc        1 3GN      0.070200
     24 H1          1.9280    0.0110    3.3500 ha        1 3GN      0.165000
     25 H2         -0.5640    0.1000    3.4290 ha        1 3GN      0.182000
     26 HN9        -0.8440   -0.0150   -1.9780 hn        1 3GN      0.346700
     27 HN11        3.8840   -0.9670   -0.8340 hn        1 3GN      0.465133
     28 HN1A        3.8940   -0.1650   -2.3010 hn        1 3GN      0.465133
     29 HN14       -3.7570    0.9100   -2.9780 hn        1 3GN      0.380800
     30 H16        -4.2780   -2.9640   -1.9790 hc        1 3GN      0.062200
     31 H16A       -5.7370   -1.9440   -2.2710 hc        1 3GN      0.062200
     32 H18        -4.5280    1.2900    0.4830 hc        1 3GN      0.061033
     33 H18A       -5.3190    1.4380   -1.1400 hc        1 3GN      0.061033
     34 H18B       -3.7430    2.2830   -0.8180 hc        1 3GN      0.061033
     35 H113        3.9260    0.6990   -0.8690 hn        1 3GN      0.465133
@<TRIPOS>BOND
     1    1    2 ar  
     2    1   11 ar  
     3    1   13 1   
     4    2    3 ar  
     5    2    5 1   
     6    3    9 ar  
     7    3   19 1   
     8    4    6 1   
     9    4   12 2   
    10    4   13 1   
    11    5   14 1   
    12    5   15 2   
    13    6    8 1   
    14    6   16 1   
    15    6   18 1   
    16    7   16 1   
    17    7   17 1   
    18    7   20 1   
    19    7   21 1   
    20    8   17 1   
    21    8   22 1   
    22    8   23 1   
    23    9   10 ar  
    24    9   24 1   
    25   10   11 ar  
    26   10   25 1   
    27   11   12 1   
    28   13   26 1   
    29   14   27 1   
    30   14   28 1   
    31   14   35 1   
    32   16   29 1   
    33   17   30 1   
    34   17   31 1   
    35   18   32 1   
    36   18   33 1   
    37   18   34 1   
@<TRIPOS>SUBSTRUCTURE
     1 3GN         1 TEMP              0 ****  ****    0 ROOT
