@<TRIPOS>MOLECULE
3GN
   34    29     1     0     0
SMALL
bcc


@<TRIPOS>ATOM
      1 C4          1.4200    0.0760    0.4330 c1        1 3GN      0.009000
      2 C5          2.8330    0.0220    0.4300 c1        1 3GN     -0.126000
      3 C6          3.5250    0.0590    1.6200 c1        1 3GN     -0.128500
      4 C8         -0.7180    0.2050   -0.0050 c1        1 3GN      0.032000
      5 C10         3.9470    0.0580   -0.6410 c2        1 3GN      0.355000
      6 C13        -2.0800    0.5460   -0.4210 c2        1 3GN      0.087000
      7 C15        -2.5270   -1.0270   -2.1330 c3        1 3GN     -0.084000
      8 C17        -2.9590   -0.2210    0.2040 c3        1 3GN     -0.166000
      9 C1          2.8280    0.1510    2.8330 c1        1 3GN     -0.128500
     10 C2          1.4520    0.2040    2.8340 c1        1 3GN     -0.046000
     11 C3          0.7420    0.1660    1.6160 c1        1 3GN     -0.082000
     12 N7         -0.5690    0.2440    1.3400 n1        1 3GN     -0.175000
     13 N9          0.5190    0.1010   -0.5620 n1        1 3GN     -0.175000
     14 N11         4.5490   -1.1220   -1.0560 n         1 3GN     -0.429000
     15 O12         4.2640    1.1070   -1.1450 o         1 3GN     -0.401000
     16 N14        -2.2740    0.2490   -2.0280 n3        1 3GN     -0.297000
     17 C16        -3.1930   -1.4340   -0.7520 c3        1 3GN     -0.182000
     18 C18        -2.3660    2.0280   -0.1220 c3        1 3GN     -0.223000
     19 H6          4.5260    0.0200    1.6190 ha        1 3GN      0.130500
     20 H15        -3.1420   -1.1880   -2.8630 h1        1 3GN      0.088000
     21 H15A       -1.7140   -1.5170   -2.2670 h1        1 3GN      0.088000
     22 H17        -2.5910   -0.5300    1.0610 hc        1 3GN      0.103500
     23 H17A       -3.7790    0.2570    0.3450 hc        1 3GN      0.103500
     24 H1          3.3110    0.1780    3.6640 ha        1 3GN      0.130500
     25 H2          0.9710    0.2660    3.6720 ha        1 3GN      0.149000
     26 HN9         0.7130    0.1490   -1.4680 DU        1 3GN      0.297000
     27 HN11        4.3300   -1.8990   -0.6650 hn        1 3GN      0.227000
     28 HN1A        5.2210   -1.0990   -1.6980 hn        1 3GN      0.227000
     29 HN14       -3.0070    0.7410   -2.3510 hn        1 3GN      0.164000
     30 H16        -4.1990   -1.5970   -0.8800 hc        1 3GN      0.090000
     31 H16A       -2.7730   -2.2190   -0.4000 hc        1 3GN      0.090000
     32 H18        -2.2970    2.1800    0.8030 hc        1 3GN      0.091333
     33 H18A       -3.2540    2.2490   -0.4180 hc        1 3GN      0.091333
     34 H18B       -1.7060    2.5970   -0.6000 hc        1 3GN      0.091333
@<TRIPOS>BOND
     1    1    2 1   
     2    2    5 1   
     3    3    9 1   
     4    3   19 1   
     5    4   12 1   
     6    4   13 1   
     7    5   14 1   
     8    5   15 1   
     9    6    8 1   
    10    6   16 1   
    11    6   18 1   
    12    7   16 1   
    13    7   17 1   
    14    7   20 1   
    15    7   21 1   
    16    8   17 1   
    17    8   22 1   
    18    8   23 1   
    19    9   24 1   
    20   10   11 1   
    21   10   25 1   
    22   14   27 1   
    23   14   28 1   
    24   16   29 1   
    25   17   30 1   
    26   17   31 1   
    27   18   32 1   
    28   18   33 1   
    29   18   34 1   
@<TRIPOS>SUBSTRUCTURE
     1 3GN         1 TEMP              0 ****  ****    0 ROOT
