@<TRIPOS>MOLECULE
3GO
   66    71     1     0     0
SMALL
bcc


@<TRIPOS>ATOM
      1 C28        -4.3170   -1.8240    0.7850 ca        1 3GO     -0.086000
      2 C35        -5.2380   -2.8760    0.5550 ca        1 3GO     -0.154300
      3 C40        -4.8220   -4.2370    0.4670 ca        1 3GO     -0.076000
      4 C39        -5.7590   -5.2130    0.2450 ca        1 3GO     -0.249300
      5 C38        -7.1300   -4.8250    0.1070 ca        1 3GO      0.416200
      6 N37        -7.5630   -3.5790    0.1810 nb        1 3GO     -0.657000
      7 C36        -6.6290   -2.5840    0.4060 ca        1 3GO      0.398600
      8 C27        -7.0480   -1.2180    0.4940 ca        1 3GO     -0.165300
      9 C26        -6.1300   -0.2220    0.7130 ca        1 3GO     -0.116000
     10 C25        -4.7510   -0.5190    0.8620 ca        1 3GO     -0.112300
     11 C24        -3.7900    0.6000    1.1390 c3        1 3GO      0.232100
     12 N23        -2.6920    0.6260    0.1860 nh        1 3GO     -0.762200
     13 C6         -1.8300    1.7370    0.2650 cc        1 3GO      0.606700
     14 N7         -1.7370    2.5960    1.3200 nd        1 3GO     -0.593100
     15 C8         -0.6720    3.4490    1.0060 ca        1 3GO     -0.201200
     16 C4         -0.0910    4.5520    1.7170 ca        1 3GO      0.748200
     17 N10        -0.6180    4.9580    2.9160 nh        1 3GO     -0.956500
     18 N1          0.9820    5.2080    1.1570 nb        1 3GO     -0.785000
     19 C2          1.4150    4.7760   -0.0540 ca        1 3GO      0.674900
     20 N3          0.9620    3.7640   -0.8340 nb        1 3GO     -0.754000
     21 C9         -0.1010    3.1050   -0.2840 ca        1 3GO      0.453800
     22 N5         -0.8830    2.0460   -0.7920 na        1 3GO     -0.292000
     23 C11        -0.5440    1.1720   -1.8890 c3        1 3GO      0.251800
     24 O12         0.4450    0.2000   -1.5180 os        1 3GO     -0.409600
     25 C31        -0.0040    1.9140   -3.1490 c3        1 3GO      0.086100
     26 O34        -0.7550    1.4050   -4.2390 oh        1 3GO     -0.603800
     27 C32         1.4810    1.4990   -3.2590 c3        1 3GO      0.095100
     28 O33         1.7540    0.9580   -4.5320 oh        1 3GO     -0.588800
     29 C13         1.7130    0.4780   -2.1280 c3        1 3GO      0.104100
     30 C14         2.6970    0.9660   -1.0650 c3        1 3GO      0.121400
     31 O15         3.5700   -0.1350   -0.8050 os        1 3GO     -0.424600
     32 C16         4.4770    0.1480    0.2600 c3        1 3GO      0.172700
     33 C17         5.3440   -1.0460    0.4860 ca        1 3GO     -0.061300
     34 C18         5.0020   -2.3080   -0.0070 ca        1 3GO     -0.122500
     35 C19         5.8240   -3.4060    0.2410 ca        1 3GO     -0.091500
     36 C20         6.9970   -3.2450    0.9910 ca        1 3GO     -0.021000
     37 C29         7.8360   -4.3620    1.2490 cg        1 3GO      0.234800
     38 N30         8.5230   -5.2780    1.4600 n1        1 3GO     -0.366800
     39 C21         7.3430   -1.9790    1.4870 ca        1 3GO     -0.091500
     40 C22         6.5190   -0.8870    1.2320 ca        1 3GO     -0.122500
     41 H28        -3.2490   -2.0700    0.9030 ha        1 3GO      0.149000
     42 H40        -3.7540   -4.4770    0.5810 ha        1 3GO      0.142000
     43 H39        -5.4890   -6.2740    0.1700 ha        1 3GO      0.146000
     44 H38        -7.9000   -5.5990   -0.0720 h4        1 3GO      0.024100
     45 H27        -8.1180   -0.9800    0.3830 ha        1 3GO      0.154000
     46 H26        -6.4600    0.8270    0.7800 ha        1 3GO      0.138000
     47 H24        -4.3500    1.5810    1.1540 h1        1 3GO      0.066200
     48 H24A       -3.3400    0.4520    2.1650 h1        1 3GO      0.066200
     49 HN23       -2.9790    0.4090   -0.7490 hn        1 3GO      0.407800
     50 HN10       -1.3130    4.3970    3.3420 hn        1 3GO      0.447300
     51 HN1A       -0.1690    5.6640    3.4450 hn        1 3GO      0.447300
     52 H2          2.2800    5.3400   -0.4660 h5        1 3GO      0.050100
     53 H11        -1.4580    0.5640   -2.1660 h2        1 3GO      0.108700
     54 H31        -0.1220    3.0270   -3.0970 h1        1 3GO      0.092700
     55 HO34       -0.3860    1.8070   -5.0380 ho        1 3GO      0.426000
     56 H32         2.1590    2.3910   -3.1750 h1        1 3GO      0.112700
     57 HO33        1.2160    0.1600   -4.6340 ho        1 3GO      0.414000
     58 H13         2.0610   -0.5120   -2.5400 h1        1 3GO      0.100700
     59 H14         3.3030    1.8360   -1.4330 h1        1 3GO      0.050200
     60 H14A        2.1520    1.2540   -0.1270 h1        1 3GO      0.050200
     61 H16         5.1010    1.0430   -0.0120 h1        1 3GO      0.043700
     62 H16A        3.8950    0.3780    1.1950 h1        1 3GO      0.043700
     63 H18         4.0800   -2.4290   -0.5980 ha        1 3GO      0.149000
     64 H19         5.5510   -4.3970   -0.1510 ha        1 3GO      0.145000
     65 H21         8.2640   -1.8520    2.0750 ha        1 3GO      0.145000
     66 H22         6.7940    0.1060    1.6190 ha        1 3GO      0.149000
@<TRIPOS>BOND
     1    1    2 ar  
     2    1   10 ar  
     3    1   41 1   
     4    2    3 ar  
     5    2    7 ar  
     6    3    4 ar  
     7    3   42 1   
     8    4    5 ar  
     9    4   43 1   
    10    5    6 ar  
    11    5   44 1   
    12    6    7 ar  
    13    7    8 ar  
    14    8    9 ar  
    15    8   45 1   
    16    9   10 ar  
    17    9   46 1   
    18   10   11 1   
    19   11   12 1   
    20   11   47 1   
    21   11   48 1   
    22   12   13 1   
    23   12   49 1   
    24   13   14 2   
    25   13   22 1   
    26   14   15 1   
    27   15   16 ar  
    28   15   21 ar  
    29   16   17 1   
    30   16   18 ar  
    31   17   50 1   
    32   17   51 1   
    33   18   19 ar  
    34   19   20 ar  
    35   19   52 1   
    36   20   21 ar  
    37   21   22 1   
    38   22   23 1   
    39   23   24 1   
    40   23   25 1   
    41   23   53 1   
    42   24   29 1   
    43   25   26 1   
    44   25   27 1   
    45   25   54 1   
    46   26   55 1   
    47   27   28 1   
    48   27   29 1   
    49   27   56 1   
    50   28   57 1   
    51   29   30 1   
    52   29   58 1   
    53   30   31 1   
    54   30   59 1   
    55   30   60 1   
    56   31   32 1   
    57   32   33 1   
    58   32   61 1   
    59   32   62 1   
    60   33   34 ar  
    61   33   40 ar  
    62   34   35 ar  
    63   34   63 1   
    64   35   36 ar  
    65   35   64 1   
    66   36   37 1   
    67   36   39 ar  
    68   37   38 3   
    69   39   40 ar  
    70   39   65 1   
    71   40   66 1   
@<TRIPOS>SUBSTRUCTURE
     1 3GO         1 TEMP              0 ****  ****    0 ROOT
