@<TRIPOS>MOLECULE
3GO
   66    59     1     0     0
SMALL
bcc


@<TRIPOS>ATOM
      1 C28         2.7100   -1.8960   -4.3220 c1        1 3GO     -0.092000
      2 C35         4.0080   -1.4540   -4.6700 c1        1 3GO     -0.041500
      3 C40         4.1730   -0.4520   -5.6220 c1        1 3GO     -0.130500
      4 C39         5.4430   -0.0220   -5.9590 c1        1 3GO     -0.130500
      5 C38         6.5620   -0.5930   -5.3440 c1        1 3GO     -0.015500
      6 N37         6.4010   -1.5810   -4.4040 n1        1 3GO     -0.182500
      7 C36         5.1170   -2.0190   -4.0610 c1        1 3GO     -0.041500
      8 C27         4.9500   -3.0340   -3.0950 c1        1 3GO     -0.092000
      9 C26         3.6640   -3.4700   -2.7520 c1        1 3GO     -0.115000
     10 C25         2.5460   -2.9020   -3.3650 c1        1 3GO     -0.101000
     11 C24         1.1600   -3.4110   -2.9570 c3        1 3GO     -0.013000
     12 N23         0.7890   -2.8310   -1.7260 n3        1 3GO     -0.252000
     13 C6         -0.5880   -2.4940   -1.4780 c2        1 3GO      0.118000
     14 N7         -1.3550   -3.6030   -1.7250 n2        1 3GO     -0.161000
     15 C8         -2.6540   -3.3000   -1.4080 c1        1 3GO     -0.215000
     16 C4         -3.8290   -4.0600   -1.4380 c1        1 3GO      0.231000
     17 N10        -4.5160   -5.3010   -1.7270 n3        1 3GO     -0.355000
     18 N1         -4.9910   -3.5170   -1.0310 n1        1 3GO     -0.260000
     19 C2         -5.0240   -2.2190   -0.5880 c1        1 3GO     -0.015500
     20 N3         -3.8670   -1.4700   -0.5580 n1        1 3GO     -0.182500
     21 C9         -2.6900   -2.0160   -0.9690 c1        1 3GO      0.067000
     22 N5         -1.4040   -1.5140   -1.0120 n1        1 3GO     -0.206000
     23 C11        -0.6940   -0.3870   -0.3770 c2        1 3GO      0.154000
     24 O12        -1.3200   -0.0880    1.0710 os        1 3GO     -0.281000
     25 C31        -0.8510    0.6780   -1.0650 c3        1 3GO     -0.021000
     26 O34         0.3090    0.8650   -2.0070 oh        1 3GO     -0.327000
     27 C32        -0.8890    1.8330   -0.0170 c3        1 3GO     -0.024000
     28 O33         0.2510    2.5450   -0.0670 oh        1 3GO     -0.320000
     29 C13        -1.0280    1.1440    1.3450 c3        1 3GO     -0.040000
     30 C14        -2.1840    1.8070    2.1750 c3        1 3GO     -0.037000
     31 O15        -1.6740    2.2200    3.4690 os        1 3GO     -0.271000
     32 C16        -2.1840    3.4660    3.9150 c3        1 3GO     -0.002000
     33 C17        -1.5240    3.8420    5.2370 c2        1 3GO     -0.054000
     34 C18        -2.1930    3.6220    6.4330 c2        1 3GO     -0.111000
     35 C19        -1.6030    3.9780    7.6330 c1        1 3GO     -0.092000
     36 C20        -0.3470    4.5530    7.6420 c1        1 3GO     -0.017000
     37 C29         0.3580    4.8100    8.9640 c1        1 3GO     -0.095000
     38 N30         0.8910    5.0040    9.9670 n1        1 3GO     -0.041000
     39 C21         0.3240    4.7730    6.4450 c1        1 3GO     -0.091000
     40 C22        -0.2680    4.4160    5.2430 c1        1 3GO     -0.136000
     41 H28         1.9200   -1.4940   -4.7550 ha        1 3GO      0.150000
     42 H40         3.3720   -0.0430   -6.0630 ha        1 3GO      0.143500
     43 H39         5.5580    0.6760   -6.6220 ha        1 3GO      0.143500
     44 H38         7.4810   -0.2810   -5.5890 ha        1 3GO      0.174500
     45 H27         5.7320   -3.4340   -2.6650 ha        1 3GO      0.150000
     46 H26         3.5500   -4.1740   -2.0830 ha        1 3GO      0.139000
     47 H24         0.5170   -3.1660   -3.6320 h1        1 3GO      0.104000
     48 H24A        1.1840   -4.3870   -2.8660 h1        1 3GO      0.104000
     49 HN23        1.4190   -2.6610   -1.0960 hn        1 3GO      0.208000
     50 HN10       -5.4040   -5.3840   -1.5400 hn        1 3GO      0.244000
     51 HN1A       -4.0540   -6.0090   -2.0520 hn        1 3GO      0.244000
     52 H2         -5.8670   -1.8250   -0.2930 ha        1 3GO      0.174500
     53 H11         0.2800   -0.6000   -0.2920 h4        1 3GO      0.164000
     54 H31        -1.6810    0.6410   -1.5550 h1        1 3GO      0.140000
     55 HO34        0.0290    1.2980   -2.7510 ho        1 3GO      0.223000
     56 H32        -1.6540    2.4110   -0.1810 h1        1 3GO      0.148000
     57 HO33        0.1470    3.2290   -0.6120 ho        1 3GO      0.217000
     58 H13        -0.1840    1.1920    1.8390 h1        1 3GO      0.133000
     59 H14        -2.5290    2.5970    1.6880 h1        1 3GO      0.109500
     60 H14A       -2.9240    1.1450    2.3030 h1        1 3GO      0.109500
     61 H16        -3.1480    3.3960    4.0420 h1        1 3GO      0.090500
     62 H16A       -1.9920    4.1590    3.2440 h1        1 3GO      0.090500
     63 H18        -3.0730    3.2180    6.4280 ha        1 3GO      0.159000
     64 H19        -2.0790    3.8220    8.4800 ha        1 3GO      0.146000
     65 H21         1.2060    5.1770    6.4500 ha        1 3GO      0.145000
     66 H22         0.2150    4.5750    4.3780 ha        1 3GO      0.140000
@<TRIPOS>BOND
     1    1    2 1   
     2    1   41 1   
     3    2    7 1   
     4    3    4 1   
     5    3   42 1   
     6    4   43 1   
     7    5    6 1   
     8    5   44 1   
     9    7    8 1   
    10    8   45 1   
    11    9   10 1   
    12    9   46 1   
    13   10   11 1   
    14   11   12 1   
    15   11   47 1   
    16   11   48 1   
    17   12   13 1   
    18   12   49 1   
    19   13   14 1   
    20   13   22 1   
    21   14   15 1   
    22   15   21 1   
    23   16   17 1   
    24   16   18 1   
    25   17   50 1   
    26   17   51 1   
    27   19   20 1   
    28   19   52 1   
    29   23   24 1   
    30   23   25 1   
    31   23   53 1   
    32   24   29 1   
    33   25   26 1   
    34   25   27 1   
    35   25   54 1   
    36   26   55 1   
    37   27   28 1   
    38   27   29 1   
    39   27   56 1   
    40   28   57 1   
    41   29   30 1   
    42   29   58 1   
    43   30   31 1   
    44   30   59 1   
    45   30   60 1   
    46   31   32 1   
    47   32   33 1   
    48   32   61 1   
    49   32   62 1   
    50   33   34 1   
    51   33   40 1   
    52   34   35 1   
    53   34   63 1   
    54   35   64 1   
    55   36   37 1   
    56   36   39 1   
    57   37   38 1   
    58   39   65 1   
    59   40   66 1   
@<TRIPOS>SUBSTRUCTURE
     1 3GO         1 TEMP              0 ****  ****    0 ROOT
