@<TRIPOS>MOLECULE
3GO
   66    71     1     0     0
SMALL
bcc


@<TRIPOS>ATOM
      1 C28        -0.4140    1.0020    0.9670 ca        1 3GO     -0.095000
      2 C35         0.9900    0.9350    1.1470 ca        1 3GO     -0.153300
      3 C40         1.5910    1.0360    2.4360 ca        1 3GO     -0.078000
      4 C39         2.9550    0.9670    2.5500 ca        1 3GO     -0.249300
      5 C38         3.7310    0.7950    1.3590 ca        1 3GO      0.415200
      6 N37         3.2210    0.6960    0.1440 nb        1 3GO     -0.657000
      7 C36         1.8450    0.7640    0.0150 ca        1 3GO      0.399600
      8 C27         1.2440    0.6630   -1.2810 ca        1 3GO     -0.167300
      9 C26        -0.1190    0.7270   -1.4200 ca        1 3GO     -0.106000
     10 C25        -0.9620    0.8960   -0.2920 ca        1 3GO     -0.106300
     11 C24        -2.4500    0.9200   -0.4810 c3        1 3GO      0.232100
     12 N23        -2.8730    2.0310   -1.3200 nh        1 3GO     -0.766200
     13 C6         -4.2660    2.2110   -1.4470 cc        1 3GO      0.602700
     14 N7         -5.2430    1.3750   -0.9970 nd        1 3GO     -0.592100
     15 C8         -6.4440    1.9640   -1.4110 ca        1 3GO     -0.202200
     16 C4         -7.8110    1.5650   -1.2350 ca        1 3GO      0.742200
     17 N10        -8.1150    0.4250   -0.5300 nh        1 3GO     -0.949500
     18 N1         -8.8060    2.3680   -1.7440 nb        1 3GO     -0.784000
     19 C2         -8.4280    3.5100   -2.3710 ca        1 3GO      0.676900
     20 N3         -7.1900    4.0080   -2.6040 nb        1 3GO     -0.754000
     21 C9         -6.1920    3.2070   -2.1240 ca        1 3GO      0.454800
     22 N5         -4.7930    3.3270   -2.2100 na        1 3GO     -0.289000
     23 C11        -3.9780    4.4450   -2.6180 c3        1 3GO      0.241800
     24 O12        -3.5620    5.2110   -1.4760 os        1 3GO     -0.420600
     25 C31        -4.6420    5.4450   -3.6070 c3        1 3GO      0.088100
     26 O34        -3.6490    5.7250   -4.5820 oh        1 3GO     -0.599800
     27 C32        -4.9340    6.7080   -2.7600 c3        1 3GO      0.092100
     28 O33        -4.3970    7.8600   -3.3680 oh        1 3GO     -0.587800
     29 C13        -4.3040    6.4330   -1.3790 c3        1 3GO      0.103100
     30 C14        -5.3650    6.3300   -0.2850 c3        1 3GO      0.115400
     31 O15        -4.6820    6.5100    0.9540 os        1 3GO     -0.418600
     32 C16        -5.5470    6.3090    2.0720 c3        1 3GO      0.170700
     33 C17        -4.7610    6.4730    3.3300 ca        1 3GO     -0.061300
     34 C18        -3.3660    6.5680    3.3250 ca        1 3GO     -0.123500
     35 C19        -2.6670    6.7040    4.5220 ca        1 3GO     -0.092000
     36 C20        -3.3630    6.7440    5.7380 ca        1 3GO     -0.022000
     37 C29        -2.6530    6.8780    6.9620 cg        1 3GO      0.234800
     38 N30        -2.0710    6.9880    7.9630 n1        1 3GO     -0.366800
     39 C21        -4.7630    6.6490    5.7460 ca        1 3GO     -0.092000
     40 C22        -5.4550    6.5160    4.5470 ca        1 3GO     -0.123500
     41 H28        -1.0520    1.1370    1.8540 ha        1 3GO      0.138000
     42 H40         0.9450    1.1680    3.3170 ha        1 3GO      0.140000
     43 H39         3.4650    1.0400    3.5190 ha        1 3GO      0.146000
     44 H38         4.8340    0.7370    1.4310 h4        1 3GO      0.024100
     45 H27         1.8940    0.5310   -2.1610 ha        1 3GO      0.154000
     46 H26        -0.5820    0.6460   -2.4170 ha        1 3GO      0.148000
     47 H24        -2.7710   -0.0320   -0.9960 h1        1 3GO      0.063700
     48 H24A       -2.9560    0.9470    0.5290 h1        1 3GO      0.063700
     49 HN23       -2.3980    2.8910   -1.1080 hn        1 3GO      0.416800
     50 HN10       -7.3770   -0.2020   -0.3210 hn        1 3GO      0.443300
     51 HN1A       -9.0450    0.0840   -0.5250 hn        1 3GO      0.443300
     52 H2         -9.2680    4.1290   -2.7540 h5        1 3GO      0.051100
     53 H11        -3.0200    4.0360   -3.0660 h2        1 3GO      0.125700
     54 H31        -5.5610    5.0500   -4.1080 h1        1 3GO      0.102700
     55 HO34       -4.0550    6.3290   -5.2180 ho        1 3GO      0.425000
     56 H32        -6.0380    6.9040   -2.6920 h1        1 3GO      0.109700
     57 HO33       -3.4400    7.7310   -3.4460 ho        1 3GO      0.417000
     58 H13        -3.5430    7.2150   -1.1020 h1        1 3GO      0.101700
     59 H14        -6.1280    7.1450   -0.4060 h1        1 3GO      0.046700
     60 H14A       -5.8690    5.3290   -0.3100 h1        1 3GO      0.046700
     61 H16        -6.3830    7.0620    2.0330 h1        1 3GO      0.044700
     62 H16A       -5.9840    5.2730    2.0270 h1        1 3GO      0.044700
     63 H18        -2.8220    6.5370    2.3670 ha        1 3GO      0.150500
     64 H19        -1.5690    6.7810    4.5130 ha        1 3GO      0.145000
     65 H21        -5.3110    6.6820    6.7000 ha        1 3GO      0.145000
     66 H22        -6.5530    6.4440    4.5540 ha        1 3GO      0.150500
@<TRIPOS>BOND
     1    1    2 ar  
     2    1   10 ar  
     3    1   41 1   
     4    2    3 ar  
     5    2    7 ar  
     6    3    4 ar  
     7    3   42 1   
     8    4    5 ar  
     9    4   43 1   
    10    5    6 ar  
    11    5   44 1   
    12    6    7 ar  
    13    7    8 ar  
    14    8    9 ar  
    15    8   45 1   
    16    9   10 ar  
    17    9   46 1   
    18   10   11 1   
    19   11   12 1   
    20   11   47 1   
    21   11   48 1   
    22   12   13 1   
    23   12   49 1   
    24   13   14 2   
    25   13   22 1   
    26   14   15 1   
    27   15   16 ar  
    28   15   21 ar  
    29   16   17 1   
    30   16   18 ar  
    31   17   50 1   
    32   17   51 1   
    33   18   19 ar  
    34   19   20 ar  
    35   19   52 1   
    36   20   21 ar  
    37   21   22 1   
    38   22   23 1   
    39   23   24 1   
    40   23   25 1   
    41   23   53 1   
    42   24   29 1   
    43   25   26 1   
    44   25   27 1   
    45   25   54 1   
    46   26   55 1   
    47   27   28 1   
    48   27   29 1   
    49   27   56 1   
    50   28   57 1   
    51   29   30 1   
    52   29   58 1   
    53   30   31 1   
    54   30   59 1   
    55   30   60 1   
    56   31   32 1   
    57   32   33 1   
    58   32   61 1   
    59   32   62 1   
    60   33   34 ar  
    61   33   40 ar  
    62   34   35 ar  
    63   34   63 1   
    64   35   36 ar  
    65   35   64 1   
    66   36   37 1   
    67   36   39 ar  
    68   37   38 3   
    69   39   40 ar  
    70   39   65 1   
    71   40   66 1   
@<TRIPOS>SUBSTRUCTURE
     1 3GO         1 TEMP              0 ****  ****    0 ROOT
