@<TRIPOS>MOLECULE
3GO
   66    71     1     0     0
SMALL
bcc


@<TRIPOS>ATOM
      1 C28         0.0000    0.0000    0.0000 ca        1 3GO     -0.080000
      2 C35         1.4040    0.0000    0.0000 ca        1 3GO     -0.154300
      3 C40         2.1370    0.0000    1.2020 ca        1 3GO     -0.030000
      4 C39         3.5000   -0.0000    1.1260 ca        1 3GO     -0.262300
      5 C38         4.1270   -0.0020   -0.1180 ca        1 3GO      0.378200
      6 N37         3.4420   -0.0010   -1.2360 nb        1 3GO     -0.563000
      7 C36         2.1050   -0.0010   -1.2320 ca        1 3GO      0.357600
      8 C27         1.3750   -0.0010   -2.4330 ca        1 3GO     -0.160300
      9 C26         0.0140   -0.0000   -2.3960 ca        1 3GO     -0.061000
     10 C25        -0.6720   -0.0000   -1.1840 ca        1 3GO     -0.087300
     11 C24        -2.1790   -0.0010   -1.1840 c3        1 3GO      0.249100
     12 N23        -2.6670    1.3810   -1.1850 nu        1 3GO     -0.484200
     13 C6         -4.0240    1.6340   -1.1840 cc        1 3GO      0.314700
     14 N7         -4.9610    0.7180   -1.1820 nd        1 3GO     -0.570100
     15 C8         -6.1780    1.3190   -1.1810 ca        1 3GO     -0.209200
     16 C4         -7.5040    0.8570   -1.1790 ca        1 3GO      0.599200
     17 N10        -7.7820   -0.5000   -1.1780 nv        1 3GO     -0.504500
     18 N1         -8.4870    1.7520   -1.1800 nb        1 3GO     -0.774000
     19 C2         -8.2310    3.0470   -1.1810 ca        1 3GO      0.658900
     20 N3         -7.0030    3.5250   -1.1820 nb        1 3GO     -0.642000
     21 C9         -5.9590    2.7060   -1.1820 ca        1 3GO      0.274800
     22 N5         -4.5940    2.8780   -1.1780 na        1 3GO      0.187000
     23 C11        -3.8800    4.1570   -1.1730 c3        1 3GO      0.156800
     24 O12        -4.4930    5.0700   -0.2360 os        1 3GO     -0.370600
     25 C31        -4.0110    4.8530   -2.5460 c3        1 3GO      0.123100
     26 O34        -2.8470    4.6190   -3.3390 oh        1 3GO     -0.572800
     27 C32        -4.1380    6.3520   -2.1970 c3        1 3GO      0.115100
     28 O33        -3.0540    7.0910   -2.7640 oh        1 3GO     -0.538800
     29 C13        -4.0680    6.3860   -0.6530 c3        1 3GO      0.182100
     30 C14        -5.0140    7.4530   -0.1000 c3        1 3GO      0.067400
     31 O15        -4.9030    7.4960    1.3240 os        1 3GO     -0.464600
     32 C16        -5.7500    8.4650    1.9440 c3        1 3GO      0.233700
     33 C17        -5.5500    8.4240    3.4370 ca        1 3GO     -0.031300
     34 C18        -4.5890    9.2270    4.0260 ca        1 3GO     -0.077500
     35 C19        -4.4010    9.1940    5.3920 ca        1 3GO     -0.089000
     36 C20        -5.1850    8.3490    6.1810 ca        1 3GO      0.012000
     37 C29        -4.9960    8.3110    7.6000 cg        1 3GO      0.229800
     38 N30        -4.8460    8.3000    8.7260 n1        1 3GO     -0.380800
     39 C21        -6.1530    7.5430    5.5810 ca        1 3GO     -0.089000
     40 C22        -6.3330    7.5880    4.2150 ca        1 3GO     -0.077500
     41 H28        -0.2730   -0.0810    1.0450 ha        1 3GO      0.122000
     42 H40         1.8670   -0.1200    2.2440 ha        1 3GO      0.116000
     43 H39         4.3880    0.1580    1.7270 ha        1 3GO      0.132000
     44 H38         5.1730   -0.2790   -0.0720 h4        1 3GO     -0.021900
     45 H27         2.0850   -0.1550   -3.2370 ha        1 3GO      0.131000
     46 H26        -0.3700   -0.2060   -3.3880 ha        1 3GO      0.114000
     47 H24        -2.4750   -0.1450   -2.2160 h1        1 3GO      0.047200
     48 H24A       -2.4650   -0.5730   -0.3090 h1        1 3GO      0.047200
     49 HN23       -2.3630    2.2130   -0.7190 hn        1 3GO      0.276800
     50 HN10       -6.8760   -0.9100   -1.0630 hn        1 3GO      0.271300
     51 HN1A       -8.5220   -1.1710   -1.1160 hn        1 3GO      0.271300
     52 H2         -9.2280    3.4510   -1.0480 h5        1 3GO      0.010100
     53 H11        -2.8360    4.0110   -0.9250 h2        1 3GO      0.053700
     54 H31        -4.9020    4.5090   -3.0590 h1        1 3GO      0.032700
     55 HO34       -2.9760    4.6870   -4.2710 ho        1 3GO      0.401000
     56 H32        -5.0890    6.7400   -2.5390 h1        1 3GO      0.026700
     57 HO33       -3.4590    7.2630   -3.5980 ho        1 3GO      0.382000
     58 H13        -3.0510    6.5710   -0.3290 h1        1 3GO      0.043700
     59 H14        -4.8350    8.4160   -0.5620 h1        1 3GO      0.087200
     60 H14A       -5.8720    6.9950    0.3780 h1        1 3GO      0.087200
     61 H16        -5.2660    9.1300    1.2390 h1        1 3GO      0.019700
     62 H16A       -6.7810    8.1980    1.7500 h1        1 3GO      0.019700
     63 H18        -3.9630   10.0640    3.7410 ha        1 3GO      0.117000
     64 H19        -3.6250    9.7890    5.8580 ha        1 3GO      0.115000
     65 H21        -6.8210    7.1420    6.3340 ha        1 3GO      0.115000
     66 H22        -7.3750    7.4420    3.9540 ha        1 3GO      0.117000
@<TRIPOS>BOND
     1    1    2 ar  
     2    1   10 ar  
     3    1   41 1   
     4    2    3 ar  
     5    2    7 ar  
     6    3    4 ar  
     7    3   42 1   
     8    4    5 ar  
     9    4   43 1   
    10    5    6 ar  
    11    5   44 1   
    12    6    7 ar  
    13    7    8 ar  
    14    8    9 ar  
    15    8   45 1   
    16    9   10 ar  
    17    9   46 1   
    18   10   11 1   
    19   11   12 1   
    20   11   47 1   
    21   11   48 1   
    22   12   13 1   
    23   12   49 1   
    24   13   14 2   
    25   13   22 1   
    26   14   15 1   
    27   15   16 ar  
    28   15   21 ar  
    29   16   17 1   
    30   16   18 ar  
    31   17   50 1   
    32   17   51 1   
    33   18   19 ar  
    34   19   20 ar  
    35   19   52 1   
    36   20   21 ar  
    37   21   22 1   
    38   22   23 1   
    39   23   24 1   
    40   23   25 1   
    41   23   53 1   
    42   24   29 1   
    43   25   26 1   
    44   25   27 1   
    45   25   54 1   
    46   26   55 1   
    47   27   28 1   
    48   27   29 1   
    49   27   56 1   
    50   28   57 1   
    51   29   30 1   
    52   29   58 1   
    53   30   31 1   
    54   30   59 1   
    55   30   60 1   
    56   31   32 1   
    57   32   33 1   
    58   32   61 1   
    59   32   62 1   
    60   33   34 ar  
    61   33   40 ar  
    62   34   35 ar  
    63   34   63 1   
    64   35   36 ar  
    65   35   64 1   
    66   36   37 1   
    67   36   39 ar  
    68   37   38 3   
    69   39   40 ar  
    70   39   65 1   
    71   40   66 1   
@<TRIPOS>SUBSTRUCTURE
     1 3GO         1 TEMP              0 ****  ****    0 ROOT
