@<TRIPOS>MOLECULE
3GP
   36    38     1     0     0
SMALL
bcc


@<TRIPOS>ATOM
      1 P           0.5860    0.4000    4.5880 p5        1 3GP      1.324900
      2 O1P        -0.9120    0.3090    4.7440 o         1 3GP     -0.918167
      3 O2P         1.4410   -0.3520    5.5550 o         1 3GP     -0.918167
      4 O3P         1.0800    1.7140    4.0620 o         1 3GP     -0.918167
      5 O5'        -3.2100   -0.2920    3.1230 oh        1 3GP     -0.668800
      6 C5'        -2.5680   -0.0860    1.8910 c3        1 3GP      0.155400
      7 C4'        -1.2710   -0.8880    1.7850 c3        1 3GP      0.050100
      8 O4'        -1.1740   -1.4420    0.4540 os        1 3GP     -0.437600
      9 C3'         0.0040   -0.0510    2.0860 c3        1 3GP      0.197100
     10 O3'         0.7250   -0.5800    3.1130 os        1 3GP     -0.543200
     11 C2'         0.8260   -0.1090    0.7610 c3        1 3GP      0.099100
     12 O2'         2.0560   -0.7800    0.8730 oh        1 3GP     -0.635800
     13 C1'        -0.0510   -0.9270   -0.2410 c3        1 3GP      0.212800
     14 N9         -0.5220   -0.1480   -1.3910 na        1 3GP     -0.162900
     15 C8         -1.5710    0.7900   -1.4160 cc        1 3GP      0.427400
     16 N7         -1.7850    1.3330   -2.6380 nd        1 3GP     -0.635000
     17 C5         -0.8380    0.7300   -3.4610 cd        1 3GP      0.184800
     18 C6         -0.5650    0.9030   -4.8700 c         1 3GP      0.647000
     19 O6         -1.1400    1.6420   -5.6910 o         1 3GP     -0.651500
     20 N1          0.5100    0.1160   -5.3550 n         1 3GP     -0.499400
     21 C2          1.2170   -0.7880   -4.5350 cd        1 3GP      0.598800
     22 N2          2.2220   -1.5820   -5.1970 nh        1 3GP     -0.866800
     23 N3          0.9920   -0.9710   -3.2260 nc        1 3GP     -0.607100
     24 C4         -0.0420   -0.2100   -2.6970 cc        1 3GP      0.071800
     25 HO5'       -2.5570   -0.0970    3.8360 ho        1 3GP      0.504000
     26 H5'1       -2.3670    1.0110    1.7420 h1        1 3GP      0.008700
     27 H5'2       -3.3000   -0.4310    1.1090 h1        1 3GP      0.008700
     28 H3'        -0.2740    1.0230    2.3030 h1        1 3GP      0.081700
     29 H2'         1.0470    0.9230    0.3830 h1        1 3GP      0.056700
     30 HO2'        2.1640   -1.0440    1.8070 ho        1 3GP      0.461000
     31 H1'         0.5160   -1.8130   -0.6520 h2        1 3GP      0.094700
     32 H8         -2.1350    1.0190   -0.4990 h5        1 3GP      0.089100
     33 HN1         0.7120    0.1590   -6.3280 hn        1 3GP      0.322500
     34 HN21        2.5570   -2.3120   -4.5960 hn        1 3GP      0.384800
     35 HN22        2.9840   -1.0010   -5.4910 hn        1 3GP      0.384800
     36 H4'        -1.3140   -1.7780    2.4710 h1        1 3GP      0.100700
@<TRIPOS>BOND
     1    1    2 1   
     2    1    3 1   
     3    1    4 1   
     4    1   10 1   
     5    5    6 1   
     6    5   25 1   
     7    6    7 1   
     8    6   26 1   
     9    6   27 1   
    10    7    8 1   
    11    7    9 1   
    12    7   36 1   
    13    8   13 1   
    14    9   10 1   
    15    9   11 1   
    16    9   28 1   
    17   11   12 1   
    18   11   13 1   
    19   11   29 1   
    20   12   30 1   
    21   13   14 1   
    22   13   31 1   
    23   14   15 1   
    24   14   24 1   
    25   15   16 2   
    26   15   32 1   
    27   16   17 1   
    28   17   18 1   
    29   17   24 2   
    30   18   19 2   
    31   18   20 1   
    32   20   21 1   
    33   20   33 1   
    34   21   22 1   
    35   21   23 2   
    36   22   34 1   
    37   22   35 1   
    38   23   24 1   
@<TRIPOS>SUBSTRUCTURE
     1 3GP         1 TEMP              0 ****  ****    0 ROOT
