@<TRIPOS>MOLECULE
3GP
   37    39     1     0     0
SMALL
bcc


@<TRIPOS>ATOM
      1 P           0.0000    0.0000    0.0000 p5        1 3GP      0.773900
      2 O1P         1.6090    0.0000    0.0000 o         1 3GP     -0.573500
      3 O2P        -0.5370    0.0000    1.5180 o         1 3GP     -0.573500
      4 O3P        -0.4940   -1.2070   -0.6980 o         1 3GP     -0.573500
      5 O5'        -3.4750   -0.1040   -3.9100 oh        1 3GP     -0.611800
      6 C5'        -2.8770   -0.1480   -2.6130 c3        1 3GP      0.204400
      7 C4'        -2.5400    1.2720   -2.1570 c3        1 3GP      0.148100
      8 O4'        -3.7410    2.0690   -2.0640 os        1 3GP     -0.407600
      9 C3'        -1.9640    1.2580   -0.7250 c3        1 3GP      0.182100
     10 O3'        -0.5380    1.3150   -0.7580 os        1 3GP     -0.418200
     11 C2'        -2.5440    2.5360   -0.0740 c3        1 3GP      0.129100
     12 O2'        -1.4920    3.4190    0.3180 oh        1 3GP     -0.556800
     13 C1'        -3.4020    3.1660   -1.1900 c3        1 3GP      0.118800
     14 N9         -4.6160    3.7620   -0.6250 na        1 3GP      0.301100
     15 C8         -5.8060    3.1260   -0.4190 cc        1 3GP      0.251400
     16 N7         -6.6650    3.9550    0.0970 nd        1 3GP     -0.536000
     17 C5         -6.0810    5.1680    0.2530 cd        1 3GP      0.148800
     18 C6         -6.5210    6.4160    0.7530 c         1 3GP      0.562000
     19 O6         -7.6600    6.5580    1.1640 o         1 3GP     -0.686500
     20 N1         -5.6460    7.4440    0.7680 ns        1 3GP     -0.013400
     21 C2         -4.3770    7.2760    0.3000 cd        1 3GP     -0.218200
     22 N2         -3.5110    8.3400    0.3230 nz        1 3GP      0.295400
     23 N3         -3.9560    6.1210   -0.1660 nc        1 3GP     -0.448100
     24 C4         -4.7650    5.0550   -0.2060 cc        1 3GP     -0.141200
     25 HO5'       -3.5050   -0.9740   -4.2730 ho        1 3GP      0.380000
     26 H5'1       -3.5690   -0.5980   -1.9120 h1        1 3GP      0.025200
     27 H5'2       -1.9700   -0.7390   -2.6540 h1        1 3GP      0.025200
     28 H3'        -2.3020    0.3780   -0.1910 h1        1 3GP      0.057700
     29 H2'        -3.1640    2.2770    0.7760 h1        1 3GP      0.013700
     30 HO2'       -1.4390    3.4470    1.2590 ho        1 3GP      0.390000
     31 H1'        -2.8280    3.9100   -1.7290 h2        1 3GP      0.052700
     32 H8         -6.0060    2.0870   -0.6540 h5        1 3GP      0.040100
     33 HN1        -5.9310    8.3340    1.1260 hn        1 3GP      0.148500
     34 HN21       -2.6610    8.0890   -0.1420 hn        1 3GP      0.157800
     35 HN22       -3.9290    9.1210   -0.1440 hn        1 3GP      0.157800
     36 H23        -3.3120    8.5880    1.2720 hn        1 3GP      0.157800
     37 H4'        -1.8370    1.7350   -2.8390 h1        1 3GP      0.036700
@<TRIPOS>BOND
     1    1    2 1   
     2    1    3 1   
     3    1    4 1   
     4    1   10 1   
     5    5    6 1   
     6    5   25 1   
     7    6    7 1   
     8    6   26 1   
     9    6   27 1   
    10    7    8 1   
    11    7    9 1   
    12    7   37 1   
    13    8   13 1   
    14    9   10 1   
    15    9   11 1   
    16    9   28 1   
    17   11   12 1   
    18   11   13 1   
    19   11   29 1   
    20   12   30 1   
    21   13   14 1   
    22   13   31 1   
    23   14   15 1   
    24   14   24 1   
    25   15   16 2   
    26   15   32 1   
    27   16   17 1   
    28   17   18 1   
    29   17   24 2   
    30   18   19 2   
    31   18   20 1   
    32   20   21 1   
    33   20   33 1   
    34   21   22 1   
    35   21   23 2   
    36   22   34 1   
    37   22   35 1   
    38   22   36 1   
    39   23   24 1   
@<TRIPOS>SUBSTRUCTURE
     1 3GP         1 TEMP              0 ****  ****    0 ROOT
