@<TRIPOS>MOLECULE
3GR
   12    11     1     0     0
SMALL
bcc


@<TRIPOS>ATOM
      1 C1          0.7850    0.3500    0.9280 c3        1 3GR      0.100400
      2 O1          0.2950   -0.1300    2.1700 oh        1 3GR     -0.613800
      3 C2         -0.2570   -0.0530   -0.1190 c3        1 3GR      0.022100
      4 O2         -1.5000    0.5870    0.1220 oh        1 3GR     -0.600800
      5 C3          0.1840    0.3560   -1.5080 c         1 3GR      0.573900
      6 O3          1.2950    0.0680   -1.9500 o         1 3GR     -0.523100
      7 H1C1        0.8920    1.4660    0.9640 h1        1 3GR      0.048200
      8 H1C2        1.7730   -0.1200    0.6800 h1        1 3GR      0.048200
      9 H1          0.9530    0.1000    2.8370 ho        1 3GR      0.413000
     10 H2         -0.4010   -1.1720   -0.0910 h1        1 3GR      0.076700
     11 HA         -1.7230    0.4110    1.0460 ho        1 3GR      0.429000
     12 H3         -0.5740    0.9180   -2.0950 h4        1 3GR      0.027200
@<TRIPOS>BOND
     1    1    2 1   
     2    1    3 1   
     3    1    7 1   
     4    1    8 1   
     5    2    9 1   
     6    3    4 1   
     7    3    5 1   
     8    3   10 1   
     9    4   11 1   
    10    5    6 2   
    11    5   12 1   
@<TRIPOS>SUBSTRUCTURE
     1 3GR         1 TEMP              0 ****  ****    0 ROOT
