@<TRIPOS>MOLECULE
3GR
   12    11     1     0     0
SMALL
bcc


@<TRIPOS>ATOM
      1 C1         -0.9940    0.3740   -0.0900 c3        1 3GR      0.138400
      2 O1         -1.4640   -0.5890    0.8270 oh        1 3GR     -0.596800
      3 C2          0.5180    0.3740   -0.0900 c3        1 3GR     -0.017900
      4 O2          0.9870    0.3740    1.2370 oh        1 3GR     -0.601800
      5 C3          1.0220   -0.8610   -0.8030 c         1 3GR      0.546900
      6 O3          1.2530   -1.8750   -0.1720 o         1 3GR     -0.521100
      7 H1C1       -1.3190    0.1570   -0.9840 h1        1 3GR      0.056700
      8 H1C2       -1.3190    1.2570    0.1700 h1        1 3GR      0.056700
      9 H1         -2.3470   -0.5300    0.8920 ho        1 3GR      0.421000
     10 H2          0.8440    1.1710   -0.5500 h1        1 3GR      0.070700
     11 HA          1.6260    0.9840    1.3250 ho        1 3GR      0.430000
     12 H3          1.1920   -0.8340   -1.7630 h4        1 3GR      0.018200
@<TRIPOS>BOND
     1    1    2 1   
     2    1    3 1   
     3    1    7 1   
     4    1    8 1   
     5    2    9 1   
     6    3    4 1   
     7    3    5 1   
     8    3   10 1   
     9    4   11 1   
    10    5    6 2   
    11    5   12 1   
@<TRIPOS>SUBSTRUCTURE
     1 3GR         1 TEMP              0 ****  ****    0 ROOT
