@<TRIPOS>MOLECULE
3GR
   12    11     1     0     0
SMALL
bcc


@<TRIPOS>ATOM
      1 C1          0.0990    0.0720   -0.0500 c3        1 3GR      0.100400
      2 O1         -0.1910    1.2760    0.6440 oh        1 3GR     -0.613800
      3 C2          1.6230   -0.0750   -0.0170 c3        1 3GR      0.022100
      4 O2          2.0960   -0.2260    1.3120 oh        1 3GR     -0.600800
      5 C3          2.0640   -1.3050   -0.7820 c         1 3GR      0.573900
      6 O3          1.6870   -1.5280   -1.9310 o         1 3GR     -0.523100
      7 H1C1       -0.3890   -0.7950    0.4700 h1        1 3GR      0.048200
      8 H1C2       -0.2550    0.1290   -1.1120 h1        1 3GR      0.048200
      9 H1         -1.1480    1.3910    0.6140 ho        1 3GR      0.413000
     10 H2          2.0960    0.8380   -0.4810 h1        1 3GR      0.076700
     11 HA          1.7200    0.5050    1.8200 ho        1 3GR      0.429000
     12 H3          2.7610   -1.9740   -0.2330 h4        1 3GR      0.027200
@<TRIPOS>BOND
     1    1    2 1   
     2    1    3 1   
     3    1    7 1   
     4    1    8 1   
     5    2    9 1   
     6    3    4 1   
     7    3    5 1   
     8    3   10 1   
     9    4   11 1   
    10    5    6 2   
    11    5   12 1   
@<TRIPOS>SUBSTRUCTURE
     1 3GR         1 TEMP              0 ****  ****    0 ROOT
