@<TRIPOS>MOLECULE
3GS
   38    40     1     0     0
SMALL
bcc


@<TRIPOS>ATOM
      1 CAB        -0.1130    0.3760    0.1350 c3        1 3GS      0.126700
      2 OAN         1.3150    0.3150    0.1100 os        1 3GS     -0.417900
      3 CAP         1.9220   -0.1750    1.2340 c         1 3GS      0.680700
      4 OAD         1.2070   -0.6200    2.1360 o         1 3GS     -0.538000
      5 CAU         3.3780   -0.1080    1.1870 cc        1 3GS     -0.128600
      6 CAT         4.1680    1.0970    1.0860 cc        1 3GS     -0.130600
      7 CAO         3.6650    2.4550    1.0300 c         1 3GS      0.674700
      8 OAC         2.5270    2.8740    1.2560 o         1 3GS     -0.528000
      9 OAM         4.6220    3.3820    0.6830 os        1 3GS     -0.449900
     10 CAA         4.1880    4.7410    0.6170 c3        1 3GS      0.127700
     11 CAS         5.5120    0.6990    1.0800 cd        1 3GS     -0.037600
     12 CAK         6.8200    1.3720    1.0350 c3        1 3GS     -0.005800
     13 SAX         8.0630    0.0900    1.0190 s4        1 3GS      0.227600
     14 OAE         8.7600    0.1650    2.3170 o         1 3GS     -0.465200
     15 CAL         6.8620   -1.2830    1.2070 c3        1 3GS      0.060600
     16 NAW         5.5580   -0.7030    1.1590 na        1 3GS     -0.039100
     17 CAV         4.2610   -1.2100    1.2390 cd        1 3GS      0.017700
     18 CAR         3.9500   -2.6300    1.3350 ca        1 3GS     -0.020000
     19 CAJ         3.0410   -3.0690    2.3040 ca        1 3GS     -0.130000
     20 CAQ         2.7430   -4.4410    2.3960 ca        1 3GS      0.128900
     21 FAF         1.8680   -4.8760    3.3330 f         1 3GS     -0.132900
     22 CAH         3.3480   -5.3650    1.5230 ca        1 3GS     -0.154000
     23 CAG         4.2430   -4.9060    0.5610 ca        1 3GS     -0.111000
     24 CAI         4.5470   -3.5500    0.4630 ca        1 3GS     -0.132000
     25 H1         -0.5350   -0.6520    0.2440 h1        1 3GS      0.052367
     26 H2         -0.3720    0.8240   -0.8550 h1        1 3GS      0.052367
     27 H3         -0.4510    1.0230    0.9800 h1        1 3GS      0.052367
     28 H4          3.8080    5.0690    1.6140 h1        1 3GS      0.051033
     29 H5          5.1120    5.2990    0.3250 h1        1 3GS      0.051033
     30 H6          3.3850    4.8470   -0.1520 h1        1 3GS      0.051033
     31 H7          6.9030    2.0010    0.1130 h1        1 3GS      0.124700
     32 H8          6.9310    2.0620    1.9110 h1        1 3GS      0.124700
     33 H10         7.0270   -1.8320    2.1720 h2        1 3GS      0.101700
     34 H11         7.0080   -2.0050    0.3620 h2        1 3GS      0.101700
     35 H12         2.5420   -2.3500    2.9770 ha        1 3GS      0.186000
     36 H13         3.1060   -6.4340    1.6070 ha        1 3GS      0.152000
     37 H14         4.7120   -5.6230   -0.1300 ha        1 3GS      0.140000
     38 H15         5.2450   -3.2030   -0.3130 ha        1 3GS      0.133000
@<TRIPOS>BOND
     1    1    2 1   
     2    1   25 1   
     3    1   26 1   
     4    1   27 1   
     5    2    3 1   
     6    3    4 2   
     7    3    5 1   
     8    5    6 1   
     9    5   17 2   
    10    6    7 1   
    11    6   11 2   
    12    7    8 2   
    13    7    9 1   
    14    9   10 1   
    15   10   28 1   
    16   10   29 1   
    17   10   30 1   
    18   11   12 1   
    19   11   16 1   
    20   12   13 1   
    21   12   31 1   
    22   12   32 1   
    23   13   14 2   
    24   13   15 1   
    25   15   16 1   
    26   15   33 1   
    27   15   34 1   
    28   16   17 1   
    29   17   18 1   
    30   18   19 ar  
    31   18   24 ar  
    32   19   20 ar  
    33   19   35 1   
    34   20   21 1   
    35   20   22 ar  
    36   22   23 ar  
    37   22   36 1   
    38   23   24 ar  
    39   23   37 1   
    40   24   38 1   
@<TRIPOS>SUBSTRUCTURE
     1 3GS         1 TEMP              0 ****  ****    0 ROOT
