@<TRIPOS>MOLECULE
3GU
   45    41     1     0     0
SMALL
bcc


@<TRIPOS>ATOM
      1 C1          2.2010   -0.3250    3.6100 c3        1 3GU      0.017000
      2 N1         -0.5470   -0.4580    2.7230 n1        1 3GU     -0.259000
      3 C2         -1.8500   -0.5540    2.2140 c1        1 3GU      0.024000
      4 N3         -2.0890   -0.3160    0.8960 n1        1 3GU     -0.204000
      5 C4         -1.0480    0.0210    0.0540 c1        1 3GU     -0.080500
      6 C5          0.2150    0.1150    0.5440 c1        1 3GU     -0.080500
      7 C6          0.4580   -0.1340    1.9190 c1        1 3GU      0.234000
      8 N6          1.5140    0.4440    2.6630 n3        1 3GU     -0.279000
      9 N7          1.0490    0.4600   -0.4940 n1        1 3GU     -0.153000
     10 C8          0.2970    0.5770   -1.6160 c1        1 3GU     -0.061000
     11 N9         -1.0070    0.3050   -1.2800 n1        1 3GU     -0.153000
     12 C1'        -2.0040    0.0740   -2.2190 c2        1 3GU      0.119000
     13 C2'        -2.2540    1.1610   -2.8810 c3        1 3GU      0.019000
     14 O2'        -3.4000    1.8780   -2.2780 oh        1 3GU     -0.290000
     15 C21         3.5610   -0.3040    3.3470 c3        1 3GU     -0.174500
     16 C22         4.2790   -0.3510    4.8190 c3        1 3GU     -0.158000
     17 C23         3.1030   -0.0920    5.8820 c3        1 3GU     -0.158000
     18 C24         2.0110    0.3360    5.1280 c3        1 3GU     -0.174500
     19 C3'        -2.6120    0.6890   -4.3060 c3        1 3GU     -0.031000
     20 O3'        -3.9280    0.8200   -4.5280 oh        1 3GU     -0.314000
     21 C4'        -2.2090   -0.8120   -4.3680 c3        1 3GU     -0.064000
     22 O4'        -1.4980   -1.0130   -3.3090 os        1 3GU     -0.269000
     23 C5'        -1.3750   -1.0870   -5.6340 c3        1 3GU     -0.032000
     24 O5'        -1.2190   -2.4610   -5.8010 oh        1 3GU     -0.316000
     25 H1          1.8750   -1.2250    3.6010 h1        1 3GU      0.124000
     26 H2         -2.5110   -0.7670    2.7460 ha        1 3GU      0.190000
     27 HN6         1.8000    1.2920    2.4730 hn        1 3GU      0.238000
     28 H8          0.6030    0.8620   -2.4630 DU        1 3GU      0.196000
     29 H1'        -2.7180   -0.2090   -1.8310 h4        1 3GU      0.175000
     30 H2'        -1.4650    1.7340   -2.9020 h1        1 3GU      0.141000
     31 HO2'       -3.3560    2.7870   -2.5030 ho        1 3GU      0.226000
     32 H21         3.8230    0.5630    2.8370 hc        1 3GU      0.090750
     33 H21A        3.8150   -1.0990    2.8280 hc        1 3GU      0.090750
     34 H22         4.9320    0.3390    4.8840 hc        1 3GU      0.083750
     35 H22A        4.7240   -1.2920    4.9830 hc        1 3GU      0.083750
     36 H23         3.3620    0.5820    6.5080 hc        1 3GU      0.083750
     37 H23A        2.8750   -0.9410    6.3590 hc        1 3GU      0.083750
     38 H24         2.0050    1.2420    5.0750 hc        1 3GU      0.090750
     39 H24A        1.1490    0.0060    5.5470 hc        1 3GU      0.090750
     40 H3'        -2.1160    1.1890   -4.9530 h1        1 3GU      0.100000
     41 HO3'       -4.0580    1.2960   -5.2520 ho        1 3GU      0.218000
     42 H4'        -2.9430   -1.3350   -4.3520 h1        1 3GU      0.135000
     43 H5'        -0.5360   -0.6900   -5.5430 h1        1 3GU      0.089500
     44 H5'A       -1.8750   -0.6720   -6.4880 h1        1 3GU      0.089500
     45 HO5'       -1.0300   -2.6370   -6.6410 ho        1 3GU      0.218000
@<TRIPOS>BOND
     1    1    8 1   
     2    1   15 1   
     3    1   18 1   
     4    1   25 1   
     5    2    7 1   
     6    3    4 1   
     7    3   26 1   
     8    5    6 1   
     9    7    8 1   
    10    8   27 1   
    11    9   10 1   
    12   10   11 1   
    13   12   13 1   
    14   12   22 1   
    15   12   29 1   
    16   13   14 1   
    17   13   19 1   
    18   13   30 1   
    19   14   31 1   
    20   15   16 1   
    21   15   32 1   
    22   15   33 1   
    23   16   17 1   
    24   16   34 1   
    25   16   35 1   
    26   17   18 1   
    27   17   36 1   
    28   17   37 1   
    29   18   38 1   
    30   18   39 1   
    31   19   20 1   
    32   19   21 1   
    33   19   40 1   
    34   20   41 1   
    35   21   22 1   
    36   21   23 1   
    37   21   42 1   
    38   23   24 1   
    39   23   43 1   
    40   23   44 1   
    41   24   45 1   
@<TRIPOS>SUBSTRUCTURE
     1 3GU         1 TEMP              0 ****  ****    0 ROOT
