@<TRIPOS>MOLECULE
3GU
   45    48     1     0     0
SMALL
bcc


@<TRIPOS>ATOM
      1 C1         -0.0800    0.3530    0.0280 c3        1 3GU      0.216500
      2 N1         -2.8530    0.3560   -0.8440 nb        1 3GU     -0.787000
      3 C2         -4.1370    0.4470   -1.2820 ca        1 3GU      0.687900
      4 N3         -4.7060    1.3210   -2.1440 nb        1 3GU     -0.763000
      5 C4         -3.8100    2.2370   -2.6250 ca        1 3GU      0.445800
      6 C5         -2.4020    2.2700   -2.2510 ca        1 3GU     -0.223200
      7 C6         -1.9420    1.2620   -1.3330 ca        1 3GU      0.757200
      8 N6         -0.6010    1.2000   -1.0190 nh        1 3GU     -0.835900
      9 N7         -1.7570    3.3280   -2.9090 nc        1 3GU     -0.550100
     10 C8         -2.7080    3.9140   -3.6500 cd        1 3GU      0.424700
     11 N9         -3.9800    3.3050   -3.5170 na        1 3GU     -0.293000
     12 C1'        -5.1990    3.6180   -4.2300 c3        1 3GU      0.224800
     13 C2'        -6.4420    3.7940   -3.2950 c3        1 3GU      0.083100
     14 O2'        -7.4330    2.8470   -3.6200 oh        1 3GU     -0.597800
     15 C21         1.4510    0.1640   -0.0700 c3        1 3GU     -0.096400
     16 C22         1.9350   -0.0950    1.3480 c3        1 3GU     -0.079400
     17 C23         0.8310    0.3400    2.3040 c3        1 3GU     -0.079400
     18 C24        -0.3290    0.8550    1.4680 c3        1 3GU     -0.096400
     19 C3'        -6.9770    5.2090   -3.6070 c3        1 3GU      0.130100
     20 O3'        -8.1580    5.2330   -4.3810 oh        1 3GU     -0.586800
     21 C4'        -5.8690    5.8740   -4.4500 c3        1 3GU      0.127100
     22 O4'        -5.0340    4.8290   -4.9710 os        1 3GU     -0.395600
     23 C5'        -5.0340    6.8500   -3.6210 c3        1 3GU      0.110400
     24 O5'        -4.4240    7.7450   -4.5350 oh        1 3GU     -0.590800
     25 H1         -0.5640   -0.6630   -0.0770 h1        1 3GU      0.084700
     26 HN6        -0.0540    1.9960   -1.2670 hn        1 3GU      0.446800
     27 H8         -2.5740    4.7780   -4.3170 h5        1 3GU      0.091800
     28 H1'        -5.3890    2.8070   -4.9980 h2        1 3GU      0.105700
     29 H2'        -6.1660    3.7160   -2.2090 h1        1 3GU      0.075700
     30 HO2'       -7.1370    1.9970   -3.2660 ho        1 3GU      0.441000
     31 H21         1.6910   -0.6910   -0.7480 hc        1 3GU      0.051450
     32 H21A        1.9510    1.0760   -0.4860 hc        1 3GU      0.051450
     33 H22         2.1630   -1.1810    1.4880 hc        1 3GU      0.044450
     34 H22A        2.8800    0.4700    1.5480 hc        1 3GU      0.044450
     35 H23         0.5030   -0.5240    2.9360 hc        1 3GU      0.044450
     36 H23A        1.1980    1.1370    2.9980 hc        1 3GU      0.044450
     37 H24        -1.3090    0.4720    1.8450 hc        1 3GU      0.051450
     38 H24A       -0.3650    1.9730    1.5040 hc        1 3GU      0.051450
     39 H3'        -7.1660    5.7660   -2.6500 h1        1 3GU      0.057700
     40 HO3'       -8.7070    4.4820   -4.1170 ho        1 3GU      0.432000
     41 H4'        -6.2890    6.3870   -5.3600 h1        1 3GU      0.125700
     42 H5'        -5.6950    7.4220   -2.9150 h1        1 3GU      0.033700
     43 H5'A       -4.2490    6.2970   -3.0380 h1        1 3GU      0.033700
     44 HO5'       -3.8730    8.3390   -4.0130 ho        1 3GU      0.404000
     45 H2         -4.8230   -0.3190   -0.8590 h5        1 3GU      0.050100
@<TRIPOS>BOND
     1    1    8 1   
     2    1   15 1   
     3    1   18 1   
     4    1   25 1   
     5    2    3 ar  
     6    2    7 ar  
     7    3    4 ar  
     8    3   45 1   
     9    4    5 ar  
    10    5    6 ar  
    11    5   11 1   
    12    6    7 ar  
    13    6    9 1   
    14    7    8 1   
    15    8   26 1   
    16    9   10 2   
    17   10   11 1   
    18   10   27 1   
    19   11   12 1   
    20   12   13 1   
    21   12   22 1   
    22   12   28 1   
    23   13   14 1   
    24   13   19 1   
    25   13   29 1   
    26   14   30 1   
    27   15   16 1   
    28   15   31 1   
    29   15   32 1   
    30   16   17 1   
    31   16   33 1   
    32   16   34 1   
    33   17   18 1   
    34   17   35 1   
    35   17   36 1   
    36   18   37 1   
    37   18   38 1   
    38   19   20 1   
    39   19   21 1   
    40   19   39 1   
    41   20   40 1   
    42   21   22 1   
    43   21   23 1   
    44   21   41 1   
    45   23   24 1   
    46   23   42 1   
    47   23   43 1   
    48   24   44 1   
@<TRIPOS>SUBSTRUCTURE
     1 3GU         1 TEMP              0 ****  ****    0 ROOT
