@<TRIPOS>MOLECULE
3GU
   46    49     1     0     0
SMALL
bcc


@<TRIPOS>ATOM
      1 C1         -0.0070    0.8980   -0.3800 c3        1 3GU      0.132500
      2 N1         -3.2410    0.9120    0.5170 nb        1 3GU     -0.687000
      3 C2         -4.5050    0.8970    0.0040 ca        1 3GU      0.662900
      4 N3         -5.0020    1.5820   -1.0590 nb        1 3GU     -0.619000
      5 C4         -4.0930    2.3790   -1.6700 ca        1 3GU      0.445800
      6 C5         -2.6840    2.4900   -1.2230 ca        1 3GU     -0.135200
      7 C6         -2.3360    1.7120   -0.1030 ca        1 3GU      0.532200
      8 N6         -0.9540    1.7790    0.4080 n4        1 3GU     -0.744700
      9 N7         -1.9910    3.3800   -2.0480 nc        1 3GU     -0.595100
     10 C8         -2.8990    3.7980   -2.9520 cd        1 3GU      0.509700
     11 N9         -4.1850    3.2430   -2.7710 na        1 3GU     -0.275000
     12 C1'        -5.3490    3.3780   -3.6400 c3        1 3GU      0.215800
     13 C2'        -6.5710    4.0880   -2.9690 c3        1 3GU      0.088100
     14 O2'        -7.7210    3.2940   -3.0920 oh        1 3GU     -0.564800
     15 C21         1.4570    1.3050   -0.1280 c3        1 3GU     -0.107400
     16 C22         1.9830    0.3870    0.9670 c3        1 3GU     -0.095400
     17 C23         1.0080   -0.7770    1.0950 c3        1 3GU     -0.095400
     18 C24        -0.0870   -0.5730    0.0580 c3        1 3GU     -0.107400
     19 C3'        -6.7090    5.4330   -3.7220 c3        1 3GU      0.088100
     20 O3'        -7.9400    5.4800   -4.4140 oh        1 3GU     -0.583800
     21 C4'        -5.5950    5.4360   -4.7820 c3        1 3GU      0.083100
     22 O4'        -4.9940    4.1270   -4.7970 os        1 3GU     -0.397600
     23 C5'        -4.5290    6.4960   -4.5030 c3        1 3GU      0.110400
     24 O5'        -3.2750    6.1220   -5.0330 oh        1 3GU     -0.602800
     25 H1         -0.2850    1.0280   -1.4650 hx        1 3GU      0.119700
     26 HN6        -0.6410    2.7570    0.3280 hn        1 3GU      0.467300
     27 H8         -2.7020    4.5140   -3.7790 h5        1 3GU      0.140800
     28 H1'        -5.6290    2.3420   -4.0040 h2        1 3GU      0.123700
     29 H2'        -6.4370    4.2310   -1.8630 h1        1 3GU      0.109700
     30 HO2'       -7.9810    3.2770   -4.0270 ho        1 3GU      0.429000
     31 H21         1.5820    2.3840    0.1380 hc        1 3GU      0.084450
     32 H21A        2.0200    1.1370   -1.0840 hc        1 3GU      0.084450
     33 H22         2.0680    0.9380    1.9380 hc        1 3GU      0.069450
     34 H22A        3.0090    0.0230    0.7070 hc        1 3GU      0.069450
     35 H23         0.5730   -0.8140    2.1250 hc        1 3GU      0.069450
     36 H23A        1.5280   -1.7540    0.9230 hc        1 3GU      0.069450
     37 H24        -1.0920   -0.8630    0.4550 hc        1 3GU      0.084450
     38 H24A        0.1070   -1.2060   -0.8480 hc        1 3GU      0.084450
     39 H3'        -6.6170    6.3020   -3.0180 h1        1 3GU      0.074700
     40 HO3'       -8.6390    5.5630   -3.7510 ho        1 3GU      0.431000
     41 H4'        -6.0210    5.5590   -5.8180 h1        1 3GU      0.117700
     42 H5'        -4.8660    7.4760   -4.9340 h1        1 3GU      0.064700
     43 H5'A       -4.3410    6.6160   -3.4020 h1        1 3GU      0.064700
     44 HO5'       -3.3920    5.9560   -5.9780 ho        1 3GU      0.422000
     45 H62        -0.9240    1.4940    1.3960 hn        1 3GU      0.467300
     46 H2         -5.2250    0.2300    0.5340 h5        1 3GU      0.095100
@<TRIPOS>BOND
     1    1    8 1   
     2    1   15 1   
     3    1   18 1   
     4    1   25 1   
     5    2    3 ar  
     6    2    7 ar  
     7    3    4 ar  
     8    3   46 1   
     9    4    5 ar  
    10    5    6 ar  
    11    5   11 1   
    12    6    7 ar  
    13    6    9 1   
    14    7    8 1   
    15    8   26 1   
    16    8   45 1   
    17    9   10 2   
    18   10   11 1   
    19   10   27 1   
    20   11   12 1   
    21   12   13 1   
    22   12   22 1   
    23   12   28 1   
    24   13   14 1   
    25   13   19 1   
    26   13   29 1   
    27   14   30 1   
    28   15   16 1   
    29   15   31 1   
    30   15   32 1   
    31   16   17 1   
    32   16   33 1   
    33   16   34 1   
    34   17   18 1   
    35   17   35 1   
    36   17   36 1   
    37   18   37 1   
    38   18   38 1   
    39   19   20 1   
    40   19   21 1   
    41   19   39 1   
    42   20   40 1   
    43   21   22 1   
    44   21   23 1   
    45   21   41 1   
    46   23   24 1   
    47   23   42 1   
    48   23   43 1   
    49   24   44 1   
@<TRIPOS>SUBSTRUCTURE
     1 3GU         1 TEMP              0 ****  ****    0 ROOT
