@<TRIPOS>MOLECULE
3GU
   45    48     1     0     0
SMALL
bcc


@<TRIPOS>ATOM
      1 C1          4.5680    0.7010   -0.2200 c3        1 3GU      0.214500
      2 N1          2.4820   -0.9810   -1.3420 nb        1 3GU     -0.785000
      3 C2          1.4560   -1.7560   -1.7810 ca        1 3GU      0.686900
      4 N3          0.1620   -1.8020   -1.3830 nb        1 3GU     -0.730000
      5 C4         -0.1090   -0.9140   -0.3830 ca        1 3GU      0.472800
      6 C5          0.8850   -0.0150    0.1920 ca        1 3GU     -0.233200
      7 C6          2.2170   -0.0720   -0.3460 ca        1 3GU      0.755200
      8 N6          3.1670    0.8220    0.1080 nh        1 3GU     -0.834900
      9 N7          0.3000    0.7610    1.2050 nc        1 3GU     -0.532100
     10 C8         -0.9780    0.3690    1.2520 cd        1 3GU      0.394700
     11 N9         -1.2960   -0.6660    0.3330 na        1 3GU     -0.284000
     12 C1'        -2.5890   -1.2140    0.0190 c3        1 3GU      0.210800
     13 C2'        -3.5130   -1.4040    1.2700 c3        1 3GU      0.130100
     14 O2'        -4.0040   -2.7170    1.3060 oh        1 3GU     -0.562800
     15 C21         5.3620    1.9900    0.0900 c3        1 3GU     -0.095900
     16 C22         6.7890    1.5480    0.3770 c3        1 3GU     -0.079400
     17 C23         6.7660    0.0500    0.6530 c3        1 3GU     -0.079400
     18 C24         5.3270   -0.4230    0.5220 c3        1 3GU     -0.095900
     19 C3'        -4.6090   -0.3250    1.1140 c3        1 3GU      0.080100
     20 O3'        -5.8560   -0.9900    1.1470 oh        1 3GU     -0.586800
     21 C4'        -4.3560    0.3390   -0.2510 c3        1 3GU      0.047100
     22 O4'        -3.3030   -0.3770   -0.9060 os        1 3GU     -0.412600
     23 C5'        -3.9700    1.8140   -0.1290 c3        1 3GU      0.118400
     24 O5'        -3.8710    2.4160   -1.3990 oh        1 3GU     -0.588800
     25 H1          4.6460    0.5020   -1.3300 h1        1 3GU      0.084700
     26 HN6         2.9490    1.2940    0.9590 hn        1 3GU      0.442800
     27 H8         -1.7330    0.7650    1.9420 h5        1 3GU      0.066800
     28 H1'        -2.4360   -2.1930   -0.5300 h2        1 3GU      0.135700
     29 H2'        -2.9560   -1.2830    2.2390 h1        1 3GU      0.101700
     30 HO2'       -4.7080   -2.7990    0.6470 ho        1 3GU      0.427000
     31 H21         5.3160    2.6890   -0.7800 hc        1 3GU      0.051450
     32 H21A        4.9410    2.5280    0.9770 hc        1 3GU      0.051450
     33 H22         7.4480    1.7700   -0.5000 hc        1 3GU      0.044450
     34 H22A        7.2030    2.1080    1.2520 hc        1 3GU      0.044450
     35 H23         7.4210   -0.4890   -0.0780 hc        1 3GU      0.044450
     36 H23A        7.1590   -0.1720    1.6760 hc        1 3GU      0.044450
     37 H24         4.8860   -0.6060    1.5340 hc        1 3GU      0.051450
     38 H24A        5.2590   -1.3780   -0.0540 hc        1 3GU      0.051450
     39 H3'        -4.5490    0.4250    1.9480 h1        1 3GU      0.060700
     40 HO3'       -6.5390   -0.3150    1.0450 ho        1 3GU      0.419000
     41 H4'        -5.2450    0.2330   -0.9340 h1        1 3GU      0.095700
     42 H5'        -4.7770    2.3840    0.4030 h1        1 3GU      0.050200
     43 H5'A       -2.9990    1.9140    0.4270 h1        1 3GU      0.050200
     44 HO5'       -3.2210    1.9080   -1.9050 ho        1 3GU      0.419000
     45 H2          1.7270   -2.4660   -2.5940 h5        1 3GU      0.053100
@<TRIPOS>BOND
     1    1    8 1   
     2    1   15 1   
     3    1   18 1   
     4    1   25 1   
     5    2    3 ar  
     6    2    7 ar  
     7    3    4 ar  
     8    3   45 1   
     9    4    5 ar  
    10    5    6 ar  
    11    5   11 1   
    12    6    7 ar  
    13    6    9 1   
    14    7    8 1   
    15    8   26 1   
    16    9   10 2   
    17   10   11 1   
    18   10   27 1   
    19   11   12 1   
    20   12   13 1   
    21   12   22 1   
    22   12   28 1   
    23   13   14 1   
    24   13   19 1   
    25   13   29 1   
    26   14   30 1   
    27   15   16 1   
    28   15   31 1   
    29   15   32 1   
    30   16   17 1   
    31   16   33 1   
    32   16   34 1   
    33   17   18 1   
    34   17   35 1   
    35   17   36 1   
    36   18   37 1   
    37   18   38 1   
    38   19   20 1   
    39   19   21 1   
    40   19   39 1   
    41   20   40 1   
    42   21   22 1   
    43   21   23 1   
    44   21   41 1   
    45   23   24 1   
    46   23   42 1   
    47   23   43 1   
    48   24   44 1   
@<TRIPOS>SUBSTRUCTURE
     1 3GU         1 TEMP              0 ****  ****    0 ROOT
