@<TRIPOS>MOLECULE
3GU
   45    48     1     0     0
SMALL
bcc


@<TRIPOS>ATOM
      1 C1         -0.0630    0.4020   -0.0280 c3        1 3GU      0.216500
      2 N1         -2.8380    0.2950   -0.8870 nb        1 3GU     -0.787000
      3 C2         -4.1280    0.3380   -1.3150 ca        1 3GU      0.684900
      4 N3         -4.7450    1.2110   -2.1440 nb        1 3GU     -0.755000
      5 C4         -3.8980    2.1830   -2.5990 ca        1 3GU      0.445800
      6 C5         -2.4900    2.2740   -2.2320 ca        1 3GU     -0.222200
      7 C6         -1.9750    1.2590   -1.3520 ca        1 3GU      0.755200
      8 N6         -0.6290    1.2510   -1.0500 nu        1 3GU     -0.835900
      9 N7         -1.9030    3.3860   -2.8560 nc        1 3GU     -0.553100
     10 C8         -2.8870    3.9510   -3.5700 cd        1 3GU      0.423700
     11 N9         -4.1270    3.2740   -3.4500 na        1 3GU     -0.296000
     12 C1'        -5.3620    3.5440   -4.1510 c3        1 3GU      0.219800
     13 C2'        -6.5810    3.8040   -3.2020 c3        1 3GU      0.081100
     14 O2'        -7.6790    3.0370   -3.6440 oh        1 3GU     -0.591800
     15 C21         1.4750    0.2910   -0.1360 c3        1 3GU     -0.095900
     16 C22         1.9770    0.0150    1.2720 c3        1 3GU     -0.079400
     17 C23         0.8590    0.3710    2.2440 c3        1 3GU     -0.079400
     18 C24        -0.3290    0.8520    1.4260 c3        1 3GU     -0.095900
     19 C3'        -6.9240    5.3000   -3.3900 c3        1 3GU      0.128100
     20 O3'        -8.2280    5.5310   -3.8600 oh        1 3GU     -0.573800
     21 C4'        -5.8610    5.8310   -4.3780 c3        1 3GU      0.092100
     22 O4'        -5.2200    4.6990   -4.9790 os        1 3GU     -0.384600
     23 C5'        -4.8440    6.7130   -3.6530 c3        1 3GU      0.107400
     24 O5'        -3.8200    7.0320   -4.5790 oh        1 3GU     -0.589800
     25 H1         -0.4970   -0.6330   -0.1600 h1        1 3GU      0.084700
     26 HN6        -0.1260    2.0830   -1.2700 hn        1 3GU      0.445800
     27 H8         -2.8090    4.8490   -4.2040 h5        1 3GU      0.101800
     28 H1'        -5.5770    2.6870   -4.8580 h2        1 3GU      0.106700
     29 H2'        -6.3450    3.5800   -2.1290 h1        1 3GU      0.082700
     30 HO2'       -7.5420    2.1380   -3.3170 ho        1 3GU      0.432000
     31 H21         1.9280    1.2360   -0.5280 hc        1 3GU      0.051200
     32 H21A        1.7530   -0.5320   -0.8390 hc        1 3GU      0.051200
     33 H22         2.8950    0.6180    1.4850 hc        1 3GU      0.044450
     34 H22A        2.2570   -1.0630    1.3810 hc        1 3GU      0.044450
     35 H23         1.1900    1.1650    2.9580 hc        1 3GU      0.044450
     36 H23A        0.5760   -0.5240    2.8530 hc        1 3GU      0.044450
     37 H24        -1.2870    0.4110    1.7960 hc        1 3GU      0.051200
     38 H24A       -0.4190    1.9650    1.4940 hc        1 3GU      0.051200
     39 H3'        -6.8780    5.8440   -2.4080 h1        1 3GU      0.091700
     40 HO3'       -8.4110    4.8990   -4.5690 ho        1 3GU      0.427000
     41 H4'        -6.3200    6.3890   -5.2390 h1        1 3GU      0.106700
     42 H5'        -4.3980    6.1640   -2.7790 h1        1 3GU      0.035200
     43 H5'A       -5.3560    7.6430   -3.2900 h1        1 3GU      0.035200
     44 HO5'       -3.2730    7.7090   -4.1610 ho        1 3GU      0.405000
     45 H2         -4.7720   -0.4740   -0.9130 h5        1 3GU      0.050100
@<TRIPOS>BOND
     1    1    8 1   
     2    1   15 1   
     3    1   18 1   
     4    1   25 1   
     5    2    3 ar  
     6    2    7 ar  
     7    3    4 ar  
     8    3   45 1   
     9    4    5 ar  
    10    5    6 ar  
    11    5   11 1   
    12    6    7 ar  
    13    6    9 1   
    14    7    8 1   
    15    8   26 1   
    16    9   10 2   
    17   10   11 1   
    18   10   27 1   
    19   11   12 1   
    20   12   13 1   
    21   12   22 1   
    22   12   28 1   
    23   13   14 1   
    24   13   19 1   
    25   13   29 1   
    26   14   30 1   
    27   15   16 1   
    28   15   31 1   
    29   15   32 1   
    30   16   17 1   
    31   16   33 1   
    32   16   34 1   
    33   17   18 1   
    34   17   35 1   
    35   17   36 1   
    36   18   37 1   
    37   18   38 1   
    38   19   20 1   
    39   19   21 1   
    40   19   39 1   
    41   20   40 1   
    42   21   22 1   
    43   21   23 1   
    44   21   41 1   
    45   23   24 1   
    46   23   42 1   
    47   23   43 1   
    48   24   44 1   
@<TRIPOS>SUBSTRUCTURE
     1 3GU         1 TEMP              0 ****  ****    0 ROOT
