@<TRIPOS>MOLECULE
3GV
   26    27     1     0     0
SMALL
bcc


@<TRIPOS>ATOM
      1 O13         0.1970    1.2110    0.1000 o         1 3GV     -0.659500
      2 C9          1.2460    0.5440    0.1110 c         1 3GV      0.706500
      3 C10         2.1400    0.3450    1.3250 c3        1 3GV     -0.136400
      4 N8          1.7660   -0.1680   -0.9890 n         1 3GV     -0.383000
      5 C12         2.9850   -0.8830   -0.6060 c3        1 3GV      0.085000
      6 C11         3.2740   -0.5660    0.8740 c3        1 3GV     -0.205700
      7 C14         4.6710    0.0840    1.0500 c         1 3GV      0.918600
      8 O15         4.8180    0.9110    1.9900 o         1 3GV     -0.831300
      9 O16         5.5820   -0.2720    0.2520 o         1 3GV     -0.831300
     10 C4          1.3270   -0.0900   -2.3110 ca        1 3GV      0.092600
     11 C5          1.7470   -1.0090   -3.3170 ca        1 3GV      0.040100
     12 O7          2.5470   -2.1070   -3.0480 oh        1 3GV     -0.527100
     13 C6          1.2890   -0.9030   -4.6360 ca        1 3GV     -0.124000
     14 C1          0.3970    0.0990   -4.9970 ca        1 3GV     -0.172000
     15 C2         -0.0270    1.0100   -4.0320 ca        1 3GV     -0.120000
     16 C3          0.4260    0.9270   -2.7230 ca        1 3GV     -0.166000
     17 H10         1.5380   -0.1000    2.1530 hc        1 3GV      0.087200
     18 H10A        2.5430    1.3350    1.6670 hc        1 3GV      0.087200
     19 H12         3.8550   -0.5480   -1.2380 h1        1 3GV      0.062200
     20 H12A        2.8210   -1.9870   -0.7450 h1        1 3GV      0.062200
     21 H11         3.2820   -1.5130    1.4680 hc        1 3GV      0.052700
     22 HO7         3.4390   -1.7700   -2.8690 ho        1 3GV      0.423000
     23 H6          1.6410   -1.6390   -5.3740 ha        1 3GV      0.132000
     24 H1          0.0340    0.1710   -6.0310 ha        1 3GV      0.119000
     25 H2         -0.7300    1.8110   -4.3050 ha        1 3GV      0.120000
     26 H3          0.0670    1.6700   -1.9900 ha        1 3GV      0.169000
@<TRIPOS>BOND
     1    1    2 2   
     2    2    3 1   
     3    2    4 1   
     4    3    6 1   
     5    3   17 1   
     6    3   18 1   
     7    4    5 1   
     8    4   10 1   
     9    5    6 1   
    10    5   19 1   
    11    5   20 1   
    12    6    7 1   
    13    6   21 1   
    14    7    8 1   
    15    7    9 1   
    16   10   11 ar  
    17   10   16 ar  
    18   11   12 1   
    19   11   13 ar  
    20   12   22 1   
    21   13   14 ar  
    22   13   23 1   
    23   14   15 ar  
    24   14   24 1   
    25   15   16 ar  
    26   15   25 1   
    27   16   26 1   
@<TRIPOS>SUBSTRUCTURE
     1 3GV         1 TEMP              0 ****  ****    0 ROOT
