@<TRIPOS>MOLECULE
3GV
   26    27     1     0     0
SMALL
bcc


@<TRIPOS>ATOM
      1 O13         0.2250   -2.4920   -0.5190 o         1 3GV     -0.681500
      2 C9         -0.4570   -1.5040   -0.1860 c         1 3GV      0.698500
      3 C10        -1.9730   -1.4250   -0.1700 c3        1 3GV     -0.134400
      4 N8          0.0910   -0.3070    0.3010 n         1 3GV     -0.395000
      5 C12        -0.9640    0.6620    0.6100 c3        1 3GV      0.091000
      6 C11        -2.3160   -0.0290    0.3410 c3        1 3GV     -0.206700
      7 C14        -3.1750    0.7730   -0.6700 c         1 3GV      0.917600
      8 O15        -3.9750    0.1260   -1.4000 o         1 3GV     -0.831300
      9 O16        -3.0370    2.0280   -0.6890 o         1 3GV     -0.831300
     10 C4          1.4190    0.1150    0.1040 ca        1 3GV      0.019600
     11 C5          2.5250   -0.6380    0.5880 ca        1 3GV      0.126100
     12 O7          2.4170   -1.8200    1.2830 oh        1 3GV     -0.527100
     13 C6          3.8390   -0.1710    0.4240 ca        1 3GV     -0.160000
     14 C1          4.0770    1.0420   -0.2090 ca        1 3GV     -0.131000
     15 C2          3.0080    1.7870   -0.7020 ca        1 3GV     -0.156000
     16 C3          1.7030    1.3300   -0.5580 ca        1 3GV     -0.126000
     17 H10        -2.3740   -1.5730   -1.2080 hc        1 3GV      0.087200
     18 H10A       -2.3800   -2.2320    0.4860 hc        1 3GV      0.087200
     19 H12        -0.8640    0.9510    1.6900 h1        1 3GV      0.059200
     20 H12A       -0.8850    1.5920   -0.0180 h1        1 3GV      0.059200
     21 H11        -2.9050   -0.0890    1.2900 hc        1 3GV      0.051700
     22 HO7         1.6330   -2.3010    0.9720 ho        1 3GV      0.451000
     23 H6          4.6660   -0.7800    0.8160 ha        1 3GV      0.136000
     24 H1          5.1070    1.4070   -0.3250 ha        1 3GV      0.119000
     25 H2          3.1920    2.7420   -1.2160 ha        1 3GV      0.124000
     26 H3          0.8780    1.9360   -0.9700 ha        1 3GV      0.154000
@<TRIPOS>BOND
     1    1    2 2   
     2    2    3 1   
     3    2    4 1   
     4    3    6 1   
     5    3   17 1   
     6    3   18 1   
     7    4    5 1   
     8    4   10 1   
     9    5    6 1   
    10    5   19 1   
    11    5   20 1   
    12    6    7 1   
    13    6   21 1   
    14    7    8 1   
    15    7    9 1   
    16   10   11 ar  
    17   10   16 ar  
    18   11   12 1   
    19   11   13 ar  
    20   12   22 1   
    21   13   14 ar  
    22   13   23 1   
    23   14   15 ar  
    24   14   24 1   
    25   15   16 ar  
    26   15   25 1   
    27   16   26 1   
@<TRIPOS>SUBSTRUCTURE
     1 3GV         1 TEMP              0 ****  ****    0 ROOT
