@<TRIPOS>MOLECULE
3GV
   26    27     1     0     0
SMALL
bcc


@<TRIPOS>ATOM
      1 O13         0.2870    1.3370    0.0950 o         1 3GV     -0.659500
      2 C9          1.3020    0.6190    0.1110 c         1 3GV      0.706500
      3 C10         2.2000    0.4060    1.3190 c3        1 3GV     -0.136400
      4 N8          1.7730   -0.1440   -0.9770 n         1 3GV     -0.383000
      5 C12         2.9590   -0.9080   -0.5900 c3        1 3GV      0.085000
      6 C11         3.2830   -0.5690    0.8770 c3        1 3GV     -0.205700
      7 C14         4.7110    0.0160    1.0220 c         1 3GV      0.918600
      8 O15         4.9100    0.8570    1.9390 o         1 3GV     -0.831300
      9 O16         5.5940   -0.4030    0.2220 o         1 3GV     -0.831300
     10 C4          1.3220   -0.0750   -2.2960 ca        1 3GV      0.092600
     11 C5          1.6830   -1.0380   -3.2840 ca        1 3GV      0.040100
     12 O7          2.4300   -2.1680   -2.9960 oh        1 3GV     -0.527100
     13 C6          1.2150   -0.9410   -4.6000 ca        1 3GV     -0.124000
     14 C1          0.3690    0.0950   -4.9760 ca        1 3GV     -0.172000
     15 C2          0.0030    1.0490   -4.0280 ca        1 3GV     -0.120000
     16 C3          0.4680    0.9760   -2.7220 ca        1 3GV     -0.166000
     17 H10         2.6550    1.3830    1.6320 hc        1 3GV      0.087200
     18 H10A        1.5880    0.0110    2.1650 hc        1 3GV      0.087200
     19 H12         3.8370   -0.6320   -1.2410 h1        1 3GV      0.062200
     20 H12A        2.7410   -2.0060   -0.7000 h1        1 3GV      0.062200
     21 H11         3.2530   -1.5010    1.4950 hc        1 3GV      0.052700
     22 HO7         3.3400   -1.8720   -2.8350 ho        1 3GV      0.423000
     23 H6          1.5200   -1.7110   -5.3230 ha        1 3GV      0.132000
     24 H1         -0.0030    0.1610   -6.0060 ha        1 3GV      0.119000
     25 H2         -0.6620    1.8780   -4.3130 ha        1 3GV      0.120000
     26 H3          0.1550    1.7530   -2.0050 ha        1 3GV      0.169000
@<TRIPOS>BOND
     1    1    2 2   
     2    2    3 1   
     3    2    4 1   
     4    3    6 1   
     5    3   17 1   
     6    3   18 1   
     7    4    5 1   
     8    4   10 1   
     9    5    6 1   
    10    5   19 1   
    11    5   20 1   
    12    6    7 1   
    13    6   21 1   
    14    7    8 1   
    15    7    9 1   
    16   10   11 ar  
    17   10   16 ar  
    18   11   12 1   
    19   11   13 ar  
    20   12   22 1   
    21   13   14 ar  
    22   13   23 1   
    23   14   15 ar  
    24   14   24 1   
    25   15   16 ar  
    26   15   25 1   
    27   16   26 1   
@<TRIPOS>SUBSTRUCTURE
     1 3GV         1 TEMP              0 ****  ****    0 ROOT
