@<TRIPOS>MOLECULE
3GV
   26    27     1     0     0
SMALL
bcc


@<TRIPOS>ATOM
      1 O13         0.2390    1.2820    0.0850 o         1 3GV     -0.659500
      2 C9          1.2690    0.5870    0.1030 c         1 3GV      0.706500
      3 C10         2.1610    0.3810    1.3170 c3        1 3GV     -0.136400
      4 N8          1.7660   -0.1550   -0.9870 n         1 3GV     -0.383000
      5 C12         2.9660   -0.8970   -0.5980 c3        1 3GV      0.085000
      6 C11         3.2690   -0.5660    0.8760 c3        1 3GV     -0.205700
      7 C14         4.6830    0.0490    1.0390 c         1 3GV      0.918600
      8 O15         4.8550    0.8850    1.9670 o         1 3GV     -0.831300
      9 O16         5.5810   -0.3420    0.2430 o         1 3GV     -0.831300
     10 C4          1.3260   -0.0830   -2.3090 ca        1 3GV      0.092600
     11 C5          1.7170   -1.0280   -3.3040 ca        1 3GV      0.040100
     12 O7          2.4860   -2.1440   -3.0200 oh        1 3GV     -0.527100
     13 C6          1.2590   -0.9270   -4.6230 ca        1 3GV     -0.124000
     14 C1          0.3940    0.0940   -4.9960 ca        1 3GV     -0.172000
     15 C2         -0.0020    1.0300   -4.0430 ca        1 3GV     -0.120000
     16 C3          0.4540    0.9540   -2.7330 ca        1 3GV     -0.166000
     17 H10         2.5910    1.3650    1.6450 hc        1 3GV      0.087200
     18 H10A        1.5500   -0.0360    2.1540 hc        1 3GV      0.087200
     19 H12         2.7720   -1.9980   -0.7200 h1        1 3GV      0.062200
     20 H12A        3.8430   -0.5950   -1.2370 h1        1 3GV      0.062200
     21 H11         3.2540   -1.5040    1.4840 hc        1 3GV      0.052700
     22 HO7         3.3880   -1.8300   -2.8480 ho        1 3GV      0.423000
     23 H6          1.5870   -1.6840   -5.3510 ha        1 3GV      0.132000
     24 H1          0.0300    0.1620   -6.0300 ha        1 3GV      0.119000
     25 H2         -0.6820    1.8470   -4.3260 ha        1 3GV      0.120000
     26 H3          0.1170    1.7170   -2.0110 ha        1 3GV      0.169000
@<TRIPOS>BOND
     1    1    2 2   
     2    2    3 1   
     3    2    4 1   
     4    3    6 1   
     5    3   17 1   
     6    3   18 1   
     7    4    5 1   
     8    4   10 1   
     9    5    6 1   
    10    5   19 1   
    11    5   20 1   
    12    6    7 1   
    13    6   21 1   
    14    7    8 1   
    15    7    9 1   
    16   10   11 ar  
    17   10   16 ar  
    18   11   12 1   
    19   11   13 ar  
    20   12   22 1   
    21   13   14 ar  
    22   13   23 1   
    23   14   15 ar  
    24   14   24 1   
    25   15   16 ar  
    26   15   25 1   
    27   16   26 1   
@<TRIPOS>SUBSTRUCTURE
     1 3GV         1 TEMP              0 ****  ****    0 ROOT
