@<TRIPOS>MOLECULE
3GV
   26    24     1     0     0
SMALL
bcc


@<TRIPOS>ATOM
      1 O13        -2.1420   -0.5830    1.4840 o         1 3GV     -0.384000
      2 C9         -0.9970   -0.1790    1.5240 c1        1 3GV      0.314000
      3 C10        -0.0920   -0.0370    2.8440 c2        1 3GV     -0.165000
      4 N8         -0.0850    0.0420    0.3290 n3        1 3GV     -0.286000
      5 C12         0.9400    0.5160    0.7680 c3        1 3GV     -0.031000
      6 C11         1.1360   -0.0670    2.3370 c3        1 3GV     -0.195000
      7 C14         2.1880    0.7400    3.1840 c2        1 3GV      0.338000
      8 O15         1.9200    1.9060    3.5740 o         1 3GV     -0.566000
      9 O16         3.2890    0.2110    3.4880 o         1 3GV     -0.566000
     10 C4         -0.4790    0.0240   -1.0350 c2        1 3GV      0.100000
     11 C5         -0.3640   -1.1430   -1.7730 c2        1 3GV     -0.005000
     12 O7          0.1950   -2.2940   -1.1880 oh        1 3GV     -0.281000
     13 C6         -0.7860   -1.1720   -3.0940 c1        1 3GV     -0.124000
     14 C1         -1.3220   -0.0340   -3.6750 c1        1 3GV     -0.146000
     15 C2         -1.4360    1.1340   -2.9370 c1        1 3GV     -0.146000
     16 C3         -1.0140    1.1630   -1.6160 c1        1 3GV     -0.166000
     17 H10        -0.4300    0.6470    3.4560 ha        1 3GV      0.126500
     18 H10A       -0.1470   -0.8330    3.4140 ha        1 3GV      0.126500
     19 H12         0.8770    1.4930    0.7820 h1        1 3GV      0.101500
     20 H12A        1.6990    0.2390    0.2130 h1        1 3GV      0.101500
     21 H11         1.5180   -0.9680    2.3500 hc        1 3GV      0.092000
     22 HO7         0.7530   -2.6780   -1.7640 ho        1 3GV      0.222000
     23 H6         -0.7060   -1.9940   -3.6140 ha        1 3GV      0.132000
     24 H1         -1.6190   -0.0540   -4.6050 ha        1 3GV      0.119500
     25 H2         -1.8010    1.9390   -3.3500 ha        1 3GV      0.119500
     26 H3         -1.0950    1.9850   -1.0960 ha        1 3GV      0.169000
@<TRIPOS>BOND
     1    1    2 1   
     2    2    4 1   
     3    3    6 1   
     4    3   17 1   
     5    3   18 1   
     6    4    5 1   
     7    4   10 1   
     8    5    6 1   
     9    5   19 1   
    10    5   20 1   
    11    6    7 1   
    12    6   21 1   
    13    7    8 1   
    14    7    9 1   
    15   10   11 1   
    16   10   16 1   
    17   11   12 1   
    18   11   13 1   
    19   12   22 1   
    20   13   23 1   
    21   14   15 1   
    22   14   24 1   
    23   15   25 1   
    24   16   26 1   
@<TRIPOS>SUBSTRUCTURE
     1 3GV         1 TEMP              0 ****  ****    0 ROOT
