@<TRIPOS>MOLECULE
3GX
   34    36     1     0     0
SMALL
bcc


@<TRIPOS>ATOM
      1 CAH        -0.0250    0.0110    0.0170 cc        1 3GX     -0.261000
      2 CAG         1.4210    0.0450    0.0430 cc        1 3GX      0.249000
      3 NAB         2.0990   -0.0200    1.2620 nh        1 3GX     -0.658400
      4 CAA         1.4280   -0.5880    2.4010 c3        1 3GX      0.193100
      5 CAC         3.5400   -0.1860    1.2290 c3        1 3GX      0.205800
      6 CAD         4.2110    0.5710    0.0870 c3        1 3GX     -0.084400
      7 CAE         3.5830    0.2120   -1.2420 c3        1 3GX     -0.010200
      8 CAF         2.1010    0.2050   -1.1580 cd        1 3GX     -0.295400
      9 CAK         1.3830    0.3690   -2.4120 c         1 3GX      0.709700
     10 OAL         1.9080    0.5330   -3.5340 o         1 3GX     -0.661500
     11 NAJ        -0.0250    0.3360   -2.3620 n         1 3GX     -0.442100
     12 CAI        -0.7010    0.1580   -1.1740 cd        1 3GX      0.133400
     13 CAM        -2.1760    0.1240   -1.1990 ca        1 3GX     -0.082800
     14 CAN        -2.8570   -0.6360   -2.1580 ca        1 3GX     -0.108000
     15 CAO        -4.2510   -0.6670   -2.1600 ca        1 3GX     -0.131000
     16 CAP        -4.9700    0.0600   -1.2110 ca        1 3GX     -0.115000
     17 CAQ        -4.2940    0.8190   -0.2560 ca        1 3GX     -0.131000
     18 CAR        -2.9010    0.8530   -0.2470 ca        1 3GX     -0.108000
     19 H1         -0.5980   -0.1340    0.9420 ha        1 3GX      0.151000
     20 H3          2.1540   -0.7040    3.2490 h1        1 3GX      0.040033
     21 H4          0.9790   -1.5920    2.1730 h1        1 3GX      0.040033
     22 H5          0.6090    0.1070    2.7290 h1        1 3GX      0.040033
     23 H6          3.8030   -1.2820    1.1470 h1        1 3GX      0.037700
     24 H7          3.9460    0.1940    2.2100 h1        1 3GX      0.037700
     25 H8          4.1250    1.6750    0.2620 hc        1 3GX      0.052700
     26 H9          5.3000    0.3090    0.0820 hc        1 3GX      0.052700
     27 H10         3.9130    0.9410   -2.0310 hc        1 3GX      0.058700
     28 H11         3.9340   -0.8040   -1.5700 hc        1 3GX      0.058700
     29 H12        -2.2980   -1.2220   -2.9040 ha        1 3GX      0.141500
     30 H13        -4.7830   -1.2680   -2.9120 ha        1 3GX      0.137500
     31 H14        -6.0700    0.0350   -1.2160 ha        1 3GX      0.136000
     32 H15        -4.8590    1.3950    0.4910 ha        1 3GX      0.137500
     33 H16        -2.3660    1.4560    0.5030 ha        1 3GX      0.141500
     34 H2         -0.5380    0.4560   -3.2090 hn        1 3GX      0.332500
@<TRIPOS>BOND
     1    1    2 1   
     2    1   12 2   
     3    1   19 1   
     4    2    3 1   
     5    2    8 2   
     6    3    4 1   
     7    3    5 1   
     8    4   20 1   
     9    4   21 1   
    10    4   22 1   
    11    5    6 1   
    12    5   23 1   
    13    5   24 1   
    14    6    7 1   
    15    6   25 1   
    16    6   26 1   
    17    7    8 1   
    18    7   27 1   
    19    7   28 1   
    20    8    9 1   
    21    9   10 2   
    22    9   11 1   
    23   11   12 1   
    24   11   34 1   
    25   12   13 1   
    26   13   14 ar  
    27   13   18 ar  
    28   14   15 ar  
    29   14   29 1   
    30   15   16 ar  
    31   15   30 1   
    32   16   17 ar  
    33   16   31 1   
    34   17   18 ar  
    35   17   32 1   
    36   18   33 1   
@<TRIPOS>SUBSTRUCTURE
     1 3GX         1 TEMP              0 ****  ****    0 ROOT
