@<TRIPOS>MOLECULE
3GX
   34    36     1     0     0
SMALL
bcc


@<TRIPOS>ATOM
      1 CAH        -0.0240    0.0130    0.0180 cc        1 3GX     -0.261000
      2 CAG         1.4220    0.0510    0.0400 cc        1 3GX      0.249000
      3 NAB         2.1030   -0.0050    1.2580 nh        1 3GX     -0.658400
      4 CAA         1.4370   -0.5660    2.4020 c3        1 3GX      0.193100
      5 CAC         3.5450   -0.1690    1.2220 c3        1 3GX      0.205800
      6 CAD         4.2110    0.5820    0.0730 c3        1 3GX     -0.084400
      7 CAE         3.5800    0.2140   -1.2520 c3        1 3GX     -0.010200
      8 CAF         2.0990    0.2040   -1.1640 cd        1 3GX     -0.295400
      9 CAK         1.3770    0.3590   -2.4170 c         1 3GX      0.709700
     10 OAL         1.8990    0.5170   -3.5410 o         1 3GX     -0.661500
     11 NAJ        -0.0310    0.3230   -2.3640 ns        1 3GX     -0.442100
     12 CAI        -0.7030    0.1520   -1.1720 cd        1 3GX      0.133400
     13 CAM        -2.1780    0.1140   -1.1940 ca        1 3GX     -0.082800
     14 CAN        -2.8600   -0.6530   -2.1470 ca        1 3GX     -0.108000
     15 CAO        -4.2540   -0.6870   -2.1440 ca        1 3GX     -0.131000
     16 CAP        -4.9720    0.0440   -1.1980 ca        1 3GX     -0.115000
     17 CAQ        -4.2950    0.8090   -0.2490 ca        1 3GX     -0.131000
     18 CAR        -2.9020    0.8470   -0.2440 ca        1 3GX     -0.108000
     19 H1         -0.5940   -0.1270    0.9450 ha        1 3GX      0.151000
     20 H3          0.6160    0.1290    2.7280 h1        1 3GX      0.040033
     21 H4          0.9900   -1.5730    2.1820 h1        1 3GX      0.040033
     22 H5          2.1640   -0.6750    3.2490 h1        1 3GX      0.040033
     23 H6          3.8100   -1.2640    1.1460 h1        1 3GX      0.037700
     24 H7          3.9520    0.2180    2.1990 h1        1 3GX      0.037700
     25 H8          4.1240    1.6870    0.2420 hc        1 3GX      0.052700
     26 H9          5.3010    0.3230    0.0670 hc        1 3GX      0.052700
     27 H10         3.9070    0.9380   -2.0470 hc        1 3GX      0.058700
     28 H11         3.9330   -0.8040   -1.5750 hc        1 3GX      0.058700
     29 H12        -2.3020   -1.2420   -2.8900 ha        1 3GX      0.141500
     30 H13        -4.7870   -1.2940   -2.8920 ha        1 3GX      0.137500
     31 H14        -6.0720    0.0160   -1.2000 ha        1 3GX      0.136000
     32 H15        -4.8600    1.3880    0.4970 ha        1 3GX      0.137500
     33 H16        -2.3670    1.4550    0.5010 ha        1 3GX      0.141500
     34 H2         -0.5460    0.4370   -3.2090 hn        1 3GX      0.332500
@<TRIPOS>BOND
     1    1    2 1   
     2    1   12 2   
     3    1   19 1   
     4    2    3 1   
     5    2    8 2   
     6    3    4 1   
     7    3    5 1   
     8    4   20 1   
     9    4   21 1   
    10    4   22 1   
    11    5    6 1   
    12    5   23 1   
    13    5   24 1   
    14    6    7 1   
    15    6   25 1   
    16    6   26 1   
    17    7    8 1   
    18    7   27 1   
    19    7   28 1   
    20    8    9 1   
    21    9   10 2   
    22    9   11 1   
    23   11   12 1   
    24   11   34 1   
    25   12   13 1   
    26   13   14 ar  
    27   13   18 ar  
    28   14   15 ar  
    29   14   29 1   
    30   15   16 ar  
    31   15   30 1   
    32   16   17 ar  
    33   16   31 1   
    34   17   18 ar  
    35   17   32 1   
    36   18   33 1   
@<TRIPOS>SUBSTRUCTURE
     1 3GX         1 TEMP              0 ****  ****    0 ROOT
