@<TRIPOS>MOLECULE
3GY
   24    24     1     0     0
SMALL
bcc


@<TRIPOS>ATOM
      1 CAA        -0.0110    0.1920    0.0380 c3        1 3GY     -0.093100
      2 CAH         1.4720   -0.0730    0.0460 c3        1 3GY     -0.075400
      3 CAJ         2.0460   -0.1140    1.4590 c3        1 3GY     -0.022400
      4 CAB         1.6810   -1.4070    2.1650 c3        1 3GY     -0.087100
      5 CAI         3.5330    0.0630    1.4290 ca        1 3GY     -0.074300
      6 CAF         4.1280    1.1220    2.1250 ca        1 3GY     -0.127000
      7 CAD         5.5120    1.2900    2.1020 ca        1 3GY     -0.129000
      8 CAC         6.3140    0.4050    1.3840 ca        1 3GY     -0.133000
      9 CAE         5.7280   -0.6520    0.6880 ca        1 3GY     -0.129000
     10 CAG         4.3450   -0.8220    0.7090 ca        1 3GY     -0.127000
     11 H1         -0.3870    0.2340   -1.0130 hc        1 3GY      0.033033
     12 H2         -0.2420    1.1660    0.5340 hc        1 3GY      0.033033
     13 H3         -0.5650   -0.6140    0.5770 hc        1 3GY      0.033033
     14 H4          1.6860   -1.0460   -0.4690 hc        1 3GY      0.043200
     15 H5          1.9940    0.7330   -0.5350 hc        1 3GY      0.043200
     16 H6          1.5940    0.7400    2.0420 hc        1 3GY      0.051700
     17 H7          0.5720   -1.5190    2.2160 hc        1 3GY      0.036367
     18 H8          2.0880   -1.4080    3.2050 hc        1 3GY      0.036367
     19 H9          2.1030   -2.2860    1.6200 hc        1 3GY      0.036367
     20 H10         3.5020    1.8250    2.6930 ha        1 3GY      0.130500
     21 H11         5.9700    2.1250    2.6520 ha        1 3GY      0.130000
     22 H12         7.4050    0.5380    1.3670 ha        1 3GY      0.130000
     23 H13         6.3570   -1.3530    0.1200 ha        1 3GY      0.130000
     24 H14         3.8840   -1.6560    0.1590 ha        1 3GY      0.130500
@<TRIPOS>BOND
     1    1    2 1   
     2    1   11 1   
     3    1   12 1   
     4    1   13 1   
     5    2    3 1   
     6    2   14 1   
     7    2   15 1   
     8    3    4 1   
     9    3    5 1   
    10    3   16 1   
    11    4   17 1   
    12    4   18 1   
    13    4   19 1   
    14    5    6 ar  
    15    5   10 ar  
    16    6    7 ar  
    17    6   20 1   
    18    7    8 ar  
    19    7   21 1   
    20    8    9 ar  
    21    8   22 1   
    22    9   10 ar  
    23    9   23 1   
    24   10   24 1   
@<TRIPOS>SUBSTRUCTURE
     1 3GY         1 TEMP              0 ****  ****    0 ROOT
