@<TRIPOS>MOLECULE
3H1
   57    58     1     0     0
SMALL
bcc


@<TRIPOS>ATOM
      1 C01        -0.4770   -0.7730    0.1480 ca        1 3H1      0.249100
      2 C02         0.7400   -1.4640    0.3430 ca        1 3H1     -0.317600
      3 C03         1.0400   -1.9870    1.6230 ca        1 3H1      0.055700
      4 C04         0.1280   -1.8260    2.6670 ca        1 3H1     -0.122600
      5 C05        -1.0920   -1.1410    2.4530 ca        1 3H1      0.201100
      6 C06        -1.4100   -0.6080    1.1980 ca        1 3H1     -0.152300
      7 C07         1.6960   -1.6650   -0.7480 c         1 3H1      0.591500
      8 C08         2.3260   -2.6960    1.8430 c3        1 3H1     -0.078800
      9 O09        -0.8610   -0.2130   -1.0360 oh        1 3H1     -0.497100
     10 O10         1.6000   -1.1400   -1.8650 o         1 3H1     -0.567100
     11 O11        -2.0240   -0.9510    3.4400 oh        1 3H1     -0.481100
     12 Cl12        0.4480   -2.4460    4.2260 cl        1 3H1     -0.091400
     13 C13        -2.6900    0.1260    0.9860 c3        1 3H1      0.017100
     14 C14        -3.8460   -0.7960    0.8450 c2        1 3H1     -0.167200
     15 C15        -4.5750   -0.9560   -0.2720 ce        1 3H1     -0.075200
     16 C16        -4.2880   -0.2530   -1.5490 c3        1 3H1     -0.063900
     17 C17        -5.7830   -1.7790   -0.2740 ce        1 3H1     -0.128000
     18 C18        -5.9310   -3.0870   -0.4910 c2        1 3H1     -0.150200
     19 C19        -4.9170   -4.1500   -0.7890 c3        1 3H1      0.007200
     20 C20        -4.9710   -5.1780    0.3660 c3        1 3H1     -0.059700
     21 C21        -4.0990   -6.3920    0.0850 c3        1 3H1     -0.070400
     22 C22        -4.4830   -7.0750   -1.2080 c3        1 3H1     -0.183400
     23 C23        -4.5290   -6.0920   -2.3450 c         1 3H1      0.572100
     24 C24        -5.3660   -4.8610   -2.0900 c3        1 3H1     -0.154700
     25 C25        -4.5860   -4.5710    1.6980 c3        1 3H1     -0.091100
     26 O26        -3.9510   -6.3050   -3.4150 o         1 3H1     -0.531100
     27 C27        -5.3540   -3.9300   -3.2830 c3        1 3H1     -0.086100
     28 C28        -3.5140   -3.6010   -0.9700 c3        1 3H1     -0.092100
     29 H07         2.5530   -2.3450   -0.5330 h4        1 3H1      0.011200
     30 H08         2.4790   -2.9720    2.9150 hc        1 3H1      0.061367
     31 H08A        3.1850   -2.0470    1.5360 hc        1 3H1      0.061367
     32 H08B        2.3520   -3.6400    1.2410 hc        1 3H1      0.061367
     33 HO09       -0.1760   -0.3280   -1.7160 ho        1 3H1      0.465000
     34 HO11       -1.6790   -1.3250    4.2690 ho        1 3H1      0.435000
     35 H13        -2.5950    0.7970    0.0890 hc        1 3H1      0.067700
     36 H13A       -2.8770    0.7840    1.8820 hc        1 3H1      0.067700
     37 H14        -4.0910   -1.3610    1.7600 ha        1 3H1      0.128000
     38 H16        -4.8100   -0.7510   -2.4030 hc        1 3H1      0.048033
     39 H16A       -3.1880   -0.2500   -1.7600 hc        1 3H1      0.048033
     40 H16B       -4.6390    0.8080   -1.4920 hc        1 3H1      0.048033
     41 H18        -6.9600   -3.4970   -0.4500 ha        1 3H1      0.113000
     42 H20        -6.0410   -5.5290    0.4400 hc        1 3H1      0.044700
     43 H21        -3.0220   -6.0830    0.0450 hc        1 3H1      0.049200
     44 H21A       -4.2050   -7.1220    0.9310 hc        1 3H1      0.049200
     45 H22        -5.5000   -7.5410   -1.1120 hc        1 3H1      0.067200
     46 H22A       -3.7530   -7.8940   -1.4410 hc        1 3H1      0.067200
     47 H24        -6.4230   -5.2250   -1.9310 hc        1 3H1      0.063700
     48 H25        -3.4850   -4.3960    1.7560 hc        1 3H1      0.038367
     49 H25A       -4.8730   -5.2620    2.5280 hc        1 3H1      0.038367
     50 H25B       -5.1070   -3.5940    1.8480 hc        1 3H1      0.038367
     51 H27        -5.8640   -2.9700   -3.0320 hc        1 3H1      0.045033
     52 H27A       -4.3040   -3.7120   -3.5980 hc        1 3H1      0.045033
     53 H27B       -5.8780   -4.4110   -4.1440 hc        1 3H1      0.045033
     54 H28        -2.8260   -4.4020   -1.3360 hc        1 3H1      0.045367
     55 H28A       -3.1230   -3.1970   -0.0050 hc        1 3H1      0.045367
     56 H28B       -3.5180   -2.7700   -1.7180 hc        1 3H1      0.045367
     57 H29        -6.6940   -1.1770   -0.0760 ha        1 3H1      0.124000
@<TRIPOS>BOND
     1    1    2 ar  
     2    1    6 ar  
     3    1    9 1   
     4    2    3 ar  
     5    2    7 1   
     6    3    4 ar  
     7    3    8 1   
     8    4    5 ar  
     9    4   12 1   
    10    5    6 ar  
    11    5   11 1   
    12    6   13 1   
    13    7   10 2   
    14    7   29 1   
    15    8   30 1   
    16    8   31 1   
    17    8   32 1   
    18    9   33 1   
    19   11   34 1   
    20   13   14 1   
    21   13   35 1   
    22   13   36 1   
    23   14   15 2   
    24   14   37 1   
    25   15   16 1   
    26   15   17 1   
    27   16   38 1   
    28   16   39 1   
    29   16   40 1   
    30   17   18 2   
    31   17   57 1   
    32   18   19 1   
    33   18   41 1   
    34   19   20 1   
    35   19   24 1   
    36   19   28 1   
    37   20   21 1   
    38   20   25 1   
    39   20   42 1   
    40   21   22 1   
    41   21   43 1   
    42   21   44 1   
    43   22   23 1   
    44   22   45 1   
    45   22   46 1   
    46   23   24 1   
    47   23   26 2   
    48   24   27 1   
    49   24   47 1   
    50   25   48 1   
    51   25   49 1   
    52   25   50 1   
    53   27   51 1   
    54   27   52 1   
    55   27   53 1   
    56   28   54 1   
    57   28   55 1   
    58   28   56 1   
@<TRIPOS>SUBSTRUCTURE
     1 3H1         1 TEMP              0 ****  ****    0 ROOT
