@<TRIPOS>MOLECULE
3H1
   57    58     1     0     0
SMALL
bcc


@<TRIPOS>ATOM
      1 C01        -0.5690   -0.6710    0.1270 ca        1 3H1      0.249100
      2 C02         0.6840   -1.3110    0.2540 ca        1 3H1     -0.317600
      3 C03         1.0570   -1.8590    1.5040 ca        1 3H1      0.055700
      4 C04         0.1790   -1.7740    2.5850 ca        1 3H1     -0.122600
      5 C05        -1.0780   -1.1400    2.4400 ca        1 3H1      0.201100
      6 C06        -1.4680   -0.5830    1.2160 ca        1 3H1     -0.152300
      7 C07         1.6050   -1.4330   -0.8790 c         1 3H1      0.591500
      8 C08         2.3810   -2.5150    1.6520 c3        1 3H1     -0.078800
      9 O09        -1.0240   -0.0930   -1.0220 oh        1 3H1     -0.497100
     10 O10         1.4430   -0.8780   -1.9740 o         1 3H1     -0.567100
     11 O11        -1.9780   -1.0240    3.4670 oh        1 3H1     -0.481100
     12 CL12        0.5870   -2.4270    4.1100 cl        1 3H1     -0.091400
     13 C13        -2.7870    0.0980    1.0760 c3        1 3H1      0.017100
     14 C14        -3.9050   -0.8720    0.9470 c2        1 3H1     -0.167200
     15 C15        -4.6680   -1.0300   -0.1460 ce        1 3H1     -0.075200
     16 C16        -4.4630   -0.2750   -1.4090 c3        1 3H1     -0.063900
     17 C17        -5.8370   -1.9080   -0.1310 ce        1 3H1     -0.128000
     18 C18        -5.9350   -3.2130   -0.3860 c2        1 3H1     -0.150200
     19 C19        -4.8850   -4.2190   -0.7570 c3        1 3H1      0.007200
     20 C20        -4.8480   -5.2850    0.3640 c3        1 3H1     -0.059700
     21 C21        -3.9350   -6.4470    0.0100 c3        1 3H1     -0.070400
     22 C22        -4.3370   -7.1060   -1.2910 c3        1 3H1     -0.183400
     23 C23        -4.4710   -6.0900   -2.3910 c         1 3H1      0.572100
     24 C24        -5.3530   -4.9080   -2.0630 c3        1 3H1     -0.154700
     25 C25        -4.4400   -4.7030    1.7010 c3        1 3H1     -0.091100
     26 O26        -3.9260   -6.2420   -3.4880 o         1 3H1     -0.531100
     27 C27        -5.4280   -3.9410   -3.2240 c3        1 3H1     -0.086100
     28 C28        -3.5160   -3.6000   -0.9720 c3        1 3H1     -0.092100
     29 H07         2.5000   -2.0780   -0.7180 h4        1 3H1      0.011200
     30 H08         3.1970   -1.8170    1.3350 hc        1 3H1      0.061367
     31 H08A        2.5880   -2.8170    2.7080 hc        1 3H1      0.061367
     32 H08B        2.4260   -3.4360    1.0180 hc        1 3H1      0.061367
     33 HO09       -0.3610   -0.1550   -1.7310 ho        1 3H1      0.465000
     34 HO11       -1.5850   -1.4080    4.2700 ho        1 3H1      0.435000
     35 H13        -2.7570    0.8000    0.1990 hc        1 3H1      0.067700
     36 H13A       -2.9680    0.7180    2.0000 hc        1 3H1      0.067700
     37 H14        -4.0880   -1.4770    1.8520 ha        1 3H1      0.128000
     38 H16        -4.8590    0.7660   -1.3040 hc        1 3H1      0.048033
     39 H16A       -3.3730   -0.2140   -1.6610 hc        1 3H1      0.048033
     40 H16B       -4.9950   -0.7700   -2.2600 hc        1 3H1      0.048033
     41 H18        -6.9420   -3.6720   -0.3210 ha        1 3H1      0.113000
     42 H20        -5.8980   -5.6870    0.4650 hc        1 3H1      0.044700
     43 H21        -3.9740   -7.2070    0.8340 hc        1 3H1      0.049200
     44 H21A       -2.8740   -6.0880   -0.0600 hc        1 3H1      0.049200
     45 H22        -3.5800   -7.8820   -1.5770 hc        1 3H1      0.067200
     46 H22A       -5.3270   -7.6210   -1.1720 hc        1 3H1      0.067200
     47 H24        -6.3850   -5.3260   -1.8780 hc        1 3H1      0.063700
     48 H25        -4.6630   -5.4320    2.5170 hc        1 3H1      0.038367
     49 H25A       -3.3460   -4.4790    1.7230 hc        1 3H1      0.038367
     50 H25B       -4.9980   -3.7560    1.9030 hc        1 3H1      0.038367
     51 H27        -5.9630   -4.4170   -4.0810 hc        1 3H1      0.045033
     52 H27A       -5.9720   -3.0130   -2.9230 hc        1 3H1      0.045033
     53 H27B       -4.4030   -3.6630   -3.5710 hc        1 3H1      0.045033
     54 H28        -2.8080   -4.3560   -1.3900 hc        1 3H1      0.045367
     55 H28A       -3.5880   -2.7470   -1.6920 hc        1 3H1      0.045367
     56 H28B       -3.1080   -3.2090   -0.0090 hc        1 3H1      0.045367
     57 H29        -6.7650   -1.3550    0.1210 ha        1 3H1      0.124000
@<TRIPOS>BOND
     1    1    2 ar  
     2    1    6 ar  
     3    1    9 1   
     4    2    3 ar  
     5    2    7 1   
     6    3    4 ar  
     7    3    8 1   
     8    4    5 ar  
     9    4   12 1   
    10    5    6 ar  
    11    5   11 1   
    12    6   13 1   
    13    7   10 2   
    14    7   29 1   
    15    8   30 1   
    16    8   31 1   
    17    8   32 1   
    18    9   33 1   
    19   11   34 1   
    20   13   14 1   
    21   13   35 1   
    22   13   36 1   
    23   14   15 2   
    24   14   37 1   
    25   15   16 1   
    26   15   17 1   
    27   16   38 1   
    28   16   39 1   
    29   16   40 1   
    30   17   18 2   
    31   17   57 1   
    32   18   19 1   
    33   18   41 1   
    34   19   20 1   
    35   19   24 1   
    36   19   28 1   
    37   20   21 1   
    38   20   25 1   
    39   20   42 1   
    40   21   22 1   
    41   21   43 1   
    42   21   44 1   
    43   22   23 1   
    44   22   45 1   
    45   22   46 1   
    46   23   24 1   
    47   23   26 2   
    48   24   27 1   
    49   24   47 1   
    50   25   48 1   
    51   25   49 1   
    52   25   50 1   
    53   27   51 1   
    54   27   52 1   
    55   27   53 1   
    56   28   54 1   
    57   28   55 1   
    58   28   56 1   
@<TRIPOS>SUBSTRUCTURE
     1 3H1         1 TEMP              0 ****  ****    0 ROOT
