@<TRIPOS>MOLECULE
3H1
   57    58     1     0     0
SMALL
bcc


@<TRIPOS>ATOM
      1 C01        -3.5290    1.2060   -0.5100 ca        1 3H1      0.250100
      2 C02        -4.7270    1.1230    0.2360 ca        1 3H1     -0.320600
      3 C03        -5.2930   -0.1480    0.4930 ca        1 3H1      0.058700
      4 C04        -4.6670   -1.2950    0.0080 ca        1 3H1     -0.124600
      5 C05        -3.4640   -1.1980   -0.7340 ca        1 3H1      0.207100
      6 C06        -2.8770    0.0470   -0.9940 ca        1 3H1     -0.163300
      7 C07        -5.3960    2.3190    0.7540 c         1 3H1      0.591500
      8 C08        -6.5530   -0.2460    1.2750 c3        1 3H1     -0.079800
      9 O09        -2.9030    2.3720   -0.8350 oh        1 3H1     -0.492100
     10 O10        -5.0120    3.4780    0.5490 o         1 3H1     -0.568100
     11 O11        -2.8150   -2.2900   -1.2450 oh        1 3H1     -0.478100
     12 CL12       -5.3210   -2.8480    0.2890 cl        1 3H1     -0.090400
     13 C13        -1.6140    0.1510   -1.7780 c3        1 3H1      0.014100
     14 C14        -0.4040    0.1440   -0.9190 c2        1 3H1     -0.137200
     15 C15         0.8600    0.1180   -1.3870 ce        1 3H1     -0.097200
     16 C16         1.1840    0.0930   -2.8340 c3        1 3H1     -0.058900
     17 C17         1.9750    0.1100   -0.4470 ce        1 3H1     -0.122000
     18 C18         3.2480   -0.1280   -0.7850 c2        1 3H1     -0.162200
     19 C19         4.4150   -0.1520    0.1590 c3        1 3H1      0.003200
     20 C20         4.9130   -1.6120    0.2570 c3        1 3H1     -0.058700
     21 C21         6.1910   -1.7190    1.0740 c3        1 3H1     -0.070400
     22 C22         7.2950   -0.8480    0.5170 c3        1 3H1     -0.183400
     23 C23         6.8220    0.5660    0.3220 c         1 3H1      0.572100
     24 C24         5.5410    0.7020   -0.4690 c3        1 3H1     -0.154700
     25 C25         3.8660   -2.5470    0.8240 c3        1 3H1     -0.093100
     26 O26         7.4570    1.5330    0.7490 o         1 3H1     -0.530100
     27 C27         5.1420    2.1530   -0.6260 c3        1 3H1     -0.086100
     28 C28         4.0560    0.4010    1.5290 c3        1 3H1     -0.091100
     29 H07        -6.3070    2.1450    1.3720 h4        1 3H1      0.011200
     30 H08        -7.3670    0.3310    0.7680 hc        1 3H1      0.061700
     31 H08A       -6.9030   -1.3020    1.3830 hc        1 3H1      0.061700
     32 H08B       -6.4000    0.1690    2.3040 hc        1 3H1      0.061700
     33 HO09       -3.3920    3.1400   -0.4930 ho        1 3H1      0.465000
     34 HO11       -3.3150   -3.0890   -1.0080 ho        1 3H1      0.436000
     35 H13        -1.5640   -0.7070   -2.5060 hc        1 3H1      0.073200
     36 H13A       -1.6350    1.1050   -2.3780 hc        1 3H1      0.073200
     37 H14        -0.5900    0.1680    0.1680 ha        1 3H1      0.125000
     38 H16         1.9710    0.8530   -3.0690 hc        1 3H1      0.042367
     39 H16A        1.5710   -0.9160   -3.1240 hc        1 3H1      0.042367
     40 H16B        0.2870    0.3180   -3.4620 hc        1 3H1      0.042367
     41 H18         3.5230   -0.3440   -1.8330 ha        1 3H1      0.121000
     42 H20         5.1440   -1.9460   -0.7970 hc        1 3H1      0.046700
     43 H21         5.9840   -1.4310    2.1390 hc        1 3H1      0.049200
     44 H21A        6.5340   -2.7870    1.0800 hc        1 3H1      0.049200
     45 H22         8.1800   -0.8630    1.2060 hc        1 3H1      0.067200
     46 H22A        7.6310   -1.2410   -0.4790 hc        1 3H1      0.067200
     47 H24         5.7570    0.2790   -1.4940 hc        1 3H1      0.064700
     48 H25         2.8780   -2.3690    0.3360 hc        1 3H1      0.039033
     49 H25A        4.1680   -3.6080    0.6460 hc        1 3H1      0.039033
     50 H25B        3.7500   -2.4000    1.9250 hc        1 3H1      0.039033
     51 H27         5.0810    2.6540    0.3710 hc        1 3H1      0.045367
     52 H27A        5.9080    2.6930   -1.2340 hc        1 3H1      0.045367
     53 H27B        4.1510    2.2290   -1.1340 hc        1 3H1      0.045367
     54 H28         3.3560   -0.2860    2.0610 hc        1 3H1      0.042367
     55 H28A        4.9760    0.5270    2.1490 hc        1 3H1      0.042367
     56 H28B        3.5640    1.4000    1.4260 hc        1 3H1      0.042367
     57 H29         1.6980    0.3120    0.6040 ha        1 3H1      0.125000
@<TRIPOS>BOND
     1    1    2 ar  
     2    1    6 ar  
     3    1    9 1   
     4    2    3 ar  
     5    2    7 1   
     6    3    4 ar  
     7    3    8 1   
     8    4    5 ar  
     9    4   12 1   
    10    5    6 ar  
    11    5   11 1   
    12    6   13 1   
    13    7   10 2   
    14    7   29 1   
    15    8   30 1   
    16    8   31 1   
    17    8   32 1   
    18    9   33 1   
    19   11   34 1   
    20   13   14 1   
    21   13   35 1   
    22   13   36 1   
    23   14   15 2   
    24   14   37 1   
    25   15   16 1   
    26   15   17 1   
    27   16   38 1   
    28   16   39 1   
    29   16   40 1   
    30   17   18 2   
    31   17   57 1   
    32   18   19 1   
    33   18   41 1   
    34   19   20 1   
    35   19   24 1   
    36   19   28 1   
    37   20   21 1   
    38   20   25 1   
    39   20   42 1   
    40   21   22 1   
    41   21   43 1   
    42   21   44 1   
    43   22   23 1   
    44   22   45 1   
    45   22   46 1   
    46   23   24 1   
    47   23   26 2   
    48   24   27 1   
    49   24   47 1   
    50   25   48 1   
    51   25   49 1   
    52   25   50 1   
    53   27   51 1   
    54   27   52 1   
    55   27   53 1   
    56   28   54 1   
    57   28   55 1   
    58   28   56 1   
@<TRIPOS>SUBSTRUCTURE
     1 3H1         1 TEMP              0 ****  ****    0 ROOT
