@<TRIPOS>MOLECULE
3H1
   57    53     1     0     0
SMALL
bcc


@<TRIPOS>ATOM
      1 C01         2.6720    2.1870    1.3670 c1        1 3H1      0.203000
      2 C02         3.8760    2.9140    1.3660 c1        1 3H1     -0.299000
      3 C03         5.1040    2.2470    1.5680 c1        1 3H1      0.066000
      4 C04         5.1300    0.8960    1.7660 c1        1 3H1     -0.202000
      5 C05         3.9200    0.1520    1.7690 c1        1 3H1      0.163000
      6 C06         2.6990    0.8030    1.5690 c1        1 3H1     -0.152000
      7 C07         3.8630    4.4370    1.1330 c2        1 3H1      0.239000
      8 C08         6.4400    3.0560    1.5590 c3        1 3H1     -0.204000
      9 O09         1.3910    2.8980    1.4020 oh        1 3H1     -0.248000
     10 O10         2.8150    5.0130    0.9500 o         1 3H1     -0.330000
     11 O11         3.9560   -1.2600    1.9550 oh        1 3H1     -0.232000
     12 CL12        6.6960    0.0640    2.0540 cl        1 3H1     -0.013000
     13 C13         1.3880   -0.0040    1.5600 c3        1 3H1     -0.074000
     14 C14         0.8800   -0.1180    0.1320 c2        1 3H1     -0.149000
     15 C15         0.3280   -1.3620   -0.3440 c1        1 3H1     -0.088000
     16 C16         0.2460   -2.6490    0.6410 c2        1 3H1     -0.179000
     17 C17        -0.1990   -1.4730   -1.8180 c2        1 3H1     -0.126000
     18 C18        -1.5630   -1.2880   -2.0920 c1        1 3H1     -0.144000
     19 C19        -2.5740   -0.9590   -0.9120 c2        1 3H1      0.003000
     20 C20        -3.6870   -1.9820   -0.8370 c3        1 3H1     -0.098000
     21 C21        -4.6770   -1.8890   -1.9720 c3        1 3H1     -0.150000
     22 C22        -5.2770   -0.5310   -2.1620 c3        1 3H1     -0.213000
     23 C23        -4.1910    0.5080   -2.2490 c2        1 3H1      0.231000
     24 C24        -3.1700    0.4820   -1.0670 c3        1 3H1     -0.143000
     25 C25        -3.0550   -3.4070   -0.8480 c3        1 3H1     -0.209000
     26 O26        -4.3940    1.5630   -2.8690 o         1 3H1     -0.292000
     27 C27        -2.0850    1.5290   -1.2200 c3        1 3H1     -0.206000
     28 C28        -1.6650   -1.0480    0.2840 c3        1 3H1     -0.211000
     29 H07         4.7420    4.9660    1.1550 h4        1 3H1      0.104000
     30 H08         6.3860    3.7690    2.1900 hc        1 3H1      0.101000
     31 H08A        7.1860    2.4580    1.8020 hc        1 3H1      0.101000
     32 H08B        6.6000    3.4370    0.6310 hc        1 3H1      0.101000
     33 HO09        1.2820    3.2300    2.1520 ho        1 3H1      0.263000
     34 HO11        4.4360   -1.4570    2.7050 ho        1 3H1      0.235000
     35 H13         1.5520   -0.8960    1.9220 hc        1 3H1      0.109000
     36 H13A        0.6950    0.4710    2.1290 hc        1 3H1      0.109000
     37 H14         0.9280    0.6510   -0.4620 ha        1 3H1      0.130000
     38 H16         1.1500   -2.9630    0.8470 ha        1 3H1      0.082333
     39 H16A       -0.2120   -2.3980    1.4710 ha        1 3H1      0.082333
     40 H16B       -0.2410   -3.3480    0.2080 ha        1 3H1      0.082333
     41 H18        -1.8780   -1.3550   -2.9700 ha        1 3H1      0.120000
     42 H20        -4.1550   -1.8620   -0.0180 hc        1 3H1      0.087000
     43 H21        -4.2400   -2.1340   -2.7700 hc        1 3H1      0.088000
     44 H21A       -5.4030   -2.5280   -1.8040 hc        1 3H1      0.088000
     45 H22        -5.9930   -0.3600   -1.4700 hc        1 3H1      0.106500
     46 H22A       -5.8090   -0.4900   -2.9920 hc        1 3H1      0.106500
     47 H24        -3.6260    0.7920   -0.1800 hc        1 3H1      0.106000
     48 H25        -2.8360   -3.6720    0.0620 hc        1 3H1      0.077000
     49 H25A       -2.2440   -3.4000   -1.3890 hc        1 3H1      0.077000
     50 H25B       -3.6940   -4.0420   -1.2260 hc        1 3H1      0.077000
     51 H27        -1.6180    1.3840   -2.0380 hc        1 3H1      0.085000
     52 H27A       -1.4510    1.4600   -0.4600 hc        1 3H1      0.085000
     53 H27B       -2.4910    2.4260   -1.2290 hc        1 3H1      0.085000
     54 H28        -0.9160   -0.4100    0.1760 hc        1 3H1      0.082667
     55 H28A       -2.1680   -0.8270    1.0940 hc        1 3H1      0.082667
     56 H28B       -1.2950   -2.0040    0.3590 hc        1 3H1      0.082667
     57 H29         0.4490   -1.6830   -2.5780 ha        1 3H1      0.125000
@<TRIPOS>BOND
     1    1    6 1   
     2    1    9 1   
     3    2    3 1   
     4    2    7 1   
     5    3    8 1   
     6    4    5 1   
     7    4   12 1   
     8    5   11 1   
     9    6   13 1   
    10    7   10 1   
    11    7   29 1   
    12    8   30 1   
    13    8   31 1   
    14    8   32 1   
    15    9   33 1   
    16   11   34 1   
    17   13   14 1   
    18   13   35 1   
    19   13   36 1   
    20   14   15 1   
    21   14   37 1   
    22   15   17 1   
    23   16   38 1   
    24   16   39 1   
    25   16   40 1   
    26   17   18 1   
    27   17   57 1   
    28   18   41 1   
    29   19   20 1   
    30   19   24 1   
    31   19   28 1   
    32   20   21 1   
    33   20   25 1   
    34   20   42 1   
    35   21   22 1   
    36   21   43 1   
    37   21   44 1   
    38   22   23 1   
    39   22   45 1   
    40   22   46 1   
    41   23   24 1   
    42   23   26 1   
    43   24   27 1   
    44   24   47 1   
    45   25   48 1   
    46   25   49 1   
    47   25   50 1   
    48   27   51 1   
    49   27   52 1   
    50   27   53 1   
    51   28   54 1   
    52   28   55 1   
    53   28   56 1   
@<TRIPOS>SUBSTRUCTURE
     1 3H1         1 TEMP              0 ****  ****    0 ROOT
