@<TRIPOS>MOLECULE
3H3
   68    65     1     0     0
SMALL
bcc


@<TRIPOS>ATOM
      1 C7          1.0690   -2.5500    1.0100 c3        1 3H3     -0.156000
      2 C8          2.0190   -1.4860    1.1520 c1        1 3H3     -0.027000
      3 C2          3.3960    2.7680   -2.0600 c1        1 3H3     -0.095000
      4 C3          2.3090    2.9560   -1.1260 c3        1 3H3     -0.199000
      5 C4          1.7850    4.3840   -1.1280 c3        1 3H3     -0.231000
      6 C5          0.3890    4.4580   -0.7570 c1        1 3H3     -0.065000
      7 C6          1.0430   -3.1120   -0.3400 c1        1 3H3     -0.041000
      8 C1          4.2700    1.6030   -2.0550 c3        1 3H3     -0.238000
      9 O1          4.3460    0.9930    0.2400 os        1 3H3     -0.258000
     10 C23        11.7210    0.1400   -9.5730 c2        1 3H3      0.309500
     11 N          13.1050   -0.0170   -9.4820 ns        1 3H3     -0.380000
     12 C22        13.7980   -0.1310   -8.2740 c2        1 3H3      0.309500
     13 C21        13.0100   -0.1410   -6.9850 c3        1 3H3     -0.180000
     14 C24        10.9060    0.1350   -8.3000 c3        1 3H3     -0.180000
     15 C20        11.6960    0.5970   -7.0970 c3        1 3H3     -0.173000
     16 C19         8.0680   -0.3690   -5.8200 c2        1 3H3     -0.285000
     17 C18         8.4930   -0.3070   -4.5490 c2        1 3H3      0.042000
     18 O5          9.8180    0.0090   -4.3250 oh        1 3H3     -0.285000
     19 C16         8.0390   -1.4810   -2.3590 c2        1 3H3      0.247000
     20 O2          9.2070   -1.8730   -2.2660 o         1 3H3     -0.306000
     21 C14         6.9410   -1.9890   -1.4430 c3        1 3H3     -0.125000
     22 C15         7.5160   -2.6010   -0.1800 c3        1 3H3     -0.202000
     23 C13         6.0190   -0.8710   -1.1050 c2        1 3H3     -0.114000
     24 C12         4.7120   -0.7860   -1.3890 c2        1 3H3     -0.153000
     25 C25         3.8950   -1.8140   -2.0720 c3        1 3H3     -0.201000
     26 C11         3.9620    0.4730   -1.0460 c3        1 3H3      0.077000
     27 C           5.6930    1.9730   -2.0350 c1        1 3H3      0.011000
     28 C10         3.7770    0.4410    1.3640 c2        1 3H3      0.426000
     29 O           4.1860    0.9610    2.4020 o         1 3H3     -0.277000
     30 C9          2.8190   -0.6000    1.2340 c1        1 3H3     -0.222000
     31 H1          0.0260   -2.1440    1.2190 hc        1 3H3      0.146000
     32 H2          1.2680   -3.3290    1.8070 hc        1 3H3      0.146000
     33 H3          2.7630   -4.5300   -0.1430 ha        1 3H3      0.007750
     34 H4          2.5870    2.6560   -0.0750 hc        1 3H3      0.132500
     35 H6          1.4700    2.2610   -1.4420 hc        1 3H3      0.132500
     36 H8          1.8540    4.8000   -2.1820 hc        1 3H3      0.131500
     37 H9          2.4580    5.0280   -0.4950 hc        1 3H3      0.131500
     38 H10         0.4340   -4.0270   -0.4350 ha        1 3H3      0.048000
     39 H11         0.0190    5.4650   -0.5060 ha        1 3H3      0.040000
     40 H12         4.1600    1.1360   -3.1000 hc        1 3H3      0.207000
     41 H14        12.8340   -1.2160   -6.7070 hc        1 3H3      0.123250
     42 H15        11.0890    0.4250   -6.1650 hc        1 3H3      0.114000
     43 H16        10.0120    0.7950   -8.4550 hc        1 3H3      0.123250
     44 H17        10.5340   -0.9130   -8.1440 hc        1 3H3      0.123250
     45 H18        13.6480    0.3170   -6.1830 hc        1 3H3      0.123250
     46 H19         8.7520   -0.2240   -6.6650 ha        1 3H3      0.124500
     47 H20         7.0160   -0.5490   -6.0670 ha        1 3H3      0.124500
     48 H21        11.8880    1.7000   -7.1720 hc        1 3H3      0.114000
     49 H22        10.0850   -0.3770   -3.4760 ho        1 3H3      0.240000
     50 H25         6.4070   -2.7970   -2.0230 hc        1 3H3      0.117000
     51 H26         8.2720   -3.3800   -0.4460 hc        1 3H3      0.088333
     52 H27         8.0190   -1.8210    0.4400 hc        1 3H3      0.088333
     53 H28         6.7030   -3.0700    0.4230 hc        1 3H3      0.088333
     54 H29         6.5060   -0.0220   -0.5850 ha        1 3H3      0.156000
     55 H30         2.9340   -1.9950   -1.5150 hc        1 3H3      0.093333
     56 H31         4.4280   -2.7920   -2.1500 hc        1 3H3      0.093333
     57 H32         3.6400   -1.4710   -3.1080 hc        1 3H3      0.093333
     58 H33         2.8510    0.2830   -1.0500 h1        1 3H3      0.102000
     59 H34         4.3150   -0.2530   -4.8850 ha        1 3H3      0.007750
     60 H35         4.8990   -0.0650   -5.1730 ha        1 3H3      0.007750
     61 H36         5.9050    3.0460   -2.1810 ha        1 3H3      0.061000
     62 H37         3.0100   -4.0880   -0.6020 ha        1 3H3      0.007750
     63 C17         7.5930   -0.4680   -3.3730 c3        1 3H3     -0.227000
     64 H13        13.6350   -0.0140  -10.3290 hn        1 3H3      0.249000
     65 O3         15.0360   -0.2400   -8.3000 o         1 3H3     -0.337500
     66 O4         11.2000    0.2600  -10.6940 o         1 3H3     -0.337500
     67 H23         7.4880    0.5250   -2.8340 hc        1 3H3      0.144500
     68 H24         6.5620   -0.7450   -3.7300 hc        1 3H3      0.144500
@<TRIPOS>BOND
     1    1    2 1   
     2    1    7 1   
     3    1   31 1   
     4    1   32 1   
     5    2   30 1   
     6    3    4 1   
     7    3    8 1   
     8    4    5 1   
     9    4   34 1   
    10    4   35 1   
    11    5    6 1   
    12    5   36 1   
    13    5   37 1   
    14    6   39 1   
    15    7   38 1   
    16    8   26 1   
    17    8   27 1   
    18    8   40 1   
    19    9   26 1   
    20    9   28 1   
    21   10   11 1   
    22   10   14 1   
    23   10   66 1   
    24   11   12 1   
    25   11   64 1   
    26   12   13 1   
    27   12   65 1   
    28   13   15 1   
    29   13   41 1   
    30   13   45 1   
    31   14   15 1   
    32   14   43 1   
    33   14   44 1   
    34   15   42 1   
    35   15   48 1   
    36   16   17 1   
    37   16   46 1   
    38   16   47 1   
    39   17   18 1   
    40   17   63 1   
    41   18   49 1   
    42   19   20 1   
    43   19   21 1   
    44   19   63 1   
    45   21   22 1   
    46   21   23 1   
    47   21   50 1   
    48   22   51 1   
    49   22   52 1   
    50   22   53 1   
    51   23   24 1   
    52   23   54 1   
    53   24   25 1   
    54   24   26 1   
    55   25   55 1   
    56   25   56 1   
    57   25   57 1   
    58   26   58 1   
    59   27   61 1   
    60   28   29 1   
    61   28   30 1   
    62   33   62 1   
    63   59   60 1   
    64   63   67 1   
    65   63   68 1   
@<TRIPOS>SUBSTRUCTURE
     1 3H3         1 TEMP              0 ****  ****    0 ROOT
