@<TRIPOS>MOLECULE
3H3
   68    65     1     0     0
SMALL
bcc


@<TRIPOS>ATOM
      1 C7         -0.6620    2.8200    2.4220 c3        1 3H3     -0.068000
      2 C8         -0.5640    1.4580    1.9880 c1        1 3H3     -0.041000
      3 C2          2.2290    1.7290    0.5090 c1        1 3H3      0.141000
      4 C3          1.8450    2.9710    0.7000 c2        1 3H3     -0.420000
      5 C4          0.9030    3.7240   -0.1070 c2        1 3H3     -0.107000
      6 C5         -0.3620    4.0420    0.1790 c2        1 3H3     -0.145000
      7 C6         -1.2080    3.7540    1.3570 c3        1 3H3     -0.126000
      8 C1          4.0110   -0.7020   -1.2620 c2        1 3H3     -0.075000
      9 O1          0.9420   -1.2990    0.5310 oh        1 3H3     -0.300000
     10 C23        13.5540   -0.2070   -8.8860 c2        1 3H3      0.311000
     11 N          13.7010    1.1480   -8.5880 n         1 3H3     -0.380000
     12 C22        13.0540    1.7830   -7.5250 c2        1 3H3      0.311000
     13 C21        12.1800    0.9580   -6.6100 c3        1 3H3     -0.181000
     14 C24        12.6880   -1.0570   -7.9850 c3        1 3H3     -0.181000
     15 C20        11.5910   -0.2590   -7.3030 c3        1 3H3     -0.103000
     16 C19        10.8450   -1.1440   -6.3160 c3        1 3H3     -0.190000
     17 C18         9.4840   -0.5630   -5.9430 c3        1 3H3      0.033000
     18 O5          8.6450   -0.4240   -7.0770 oh        1 3H3     -0.319000
     19 C16         9.3540   -1.2300   -3.5040 c2        1 3H3      0.242000
     20 O2         10.3610   -0.5550   -3.2720 o         1 3H3     -0.294000
     21 C14         8.5830   -1.9380   -2.4050 c3        1 3H3     -0.119000
     22 C15         9.5330   -2.7440   -1.5380 c3        1 3H3     -0.204000
     23 C13         7.8690   -0.9190   -1.5800 c2        1 3H3     -0.099000
     24 C12         6.5670   -0.8560   -1.4820 c1        1 3H3     -0.111000
     25 C25         6.0480   -4.0860   -4.2470 c3        1 3H3     -0.270000
     26 C11         5.3110   -0.7860   -1.3790 c1        1 3H3     -0.130000
     27 C           3.0560   -1.5980   -1.9430 c3        1 3H3     -0.196000
     28 C10        -0.2380   -1.0050    1.1560 c2        1 3H3      0.425000
     29 O          -1.0170   -1.9540    1.2340 o         1 3H3     -0.284000
     30 C9         -0.4290    0.3270    1.6190 c1        1 3H3     -0.244000
     31 H1          0.3560    3.1720    2.7540 hc        1 3H3      0.113000
     32 H2         -1.3430    2.8670    3.3210 hc        1 3H3      0.113000
     33 H3          1.0970    1.2740   -1.4150 ha        1 3H3      0.010500
     34 H4          2.3100    3.5430    1.5340 ha        1 3H3      0.201000
     35 H6          1.4040    0.6660   -1.3830 ha        1 3H3      0.010500
     36 H8         -2.1880    3.3420    0.9860 hc        1 3H3      0.103500
     37 H9          1.3360    4.0630   -1.0690 ha        1 3H3      0.136000
     38 H10        -1.4350    4.7390    1.8580 hc        1 3H3      0.103500
     39 H11        -0.9110    4.6400   -0.5780 ha        1 3H3      0.128000
     40 H12         3.5610    0.0810   -0.6170 ha        1 3H3      0.153000
     41 H14         9.6030    0.4920   -5.5600 h1        1 3H3      0.134000
     42 H15        11.3600    1.6210   -6.2250 hc        1 3H3      0.125750
     43 H16        12.2440   -1.8780   -8.6070 hc        1 3H3      0.125750
     44 H17        13.3580   -1.5320   -7.2190 hc        1 3H3      0.125750
     45 H18        12.8060    0.6460   -5.7310 hc        1 3H3      0.125750
     46 H19        10.6990   -2.1590   -6.7710 hc        1 3H3      0.097000
     47 H20        11.4450   -1.2680   -5.3770 hc        1 3H3      0.097000
     48 H21        10.8560    0.0920   -8.0840 hc        1 3H3      0.119000
     49 H22         8.5370   -1.2990   -7.4690 ho        1 3H3      0.196000
     50 H25         7.8360   -2.6410   -2.8770 hc        1 3H3      0.112000
     51 H26        10.0110   -3.5540   -2.1400 hc        1 3H3      0.087000
     52 H27        10.3350   -2.0850   -1.1250 hc        1 3H3      0.087000
     53 H28         8.9750   -3.2090   -0.6900 hc        1 3H3      0.087000
     54 H29         8.5200   -0.2090   -1.0400 ha        1 3H3      0.152000
     55 H30         6.6940   -4.7280   -3.6100 hc        1 3H3      0.067500
     56 H31         6.6790   -3.3530   -4.7970 hc        1 3H3      0.067500
     57 H32         5.3210   -3.5400   -3.6060 hc        1 3H3      0.067500
     58 H33         5.4970   -4.7200   -4.9750 hc        1 3H3      0.067500
     59 H34         3.5720   -2.4160   -2.5030 hc        1 3H3      0.094333
     60 H35         2.3660   -2.0600   -1.1900 hc        1 3H3      0.094333
     61 H36         2.4370   -1.0080   -2.6660 hc        1 3H3      0.094333
     62 H37         1.5300   -0.5230    0.5230 ho        1 3H3      0.250000
     63 C17         8.7940   -1.4190   -4.8840 c3        1 3H3     -0.251000
     64 H13        14.2800    1.7020   -9.1860 hn        1 3H3      0.251000
     65 O3         13.2340    3.0000   -7.3540 o         1 3H3     -0.332500
     66 O4         14.1520   -0.6810   -9.8670 o         1 3H3     -0.332500
     67 H23         8.8730   -2.5060   -5.1530 hc        1 3H3      0.120000
     68 H24         7.7020   -1.1540   -4.8650 hc        1 3H3      0.120000
@<TRIPOS>BOND
     1    1    2 1   
     2    1    7 1   
     3    1   31 1   
     4    1   32 1   
     5    2   30 1   
     6    3    4 1   
     7    4    5 1   
     8    4   34 1   
     9    5    6 1   
    10    5   37 1   
    11    6    7 1   
    12    6   39 1   
    13    7   36 1   
    14    7   38 1   
    15    8   26 1   
    16    8   27 1   
    17    8   40 1   
    18    9   28 1   
    19    9   62 1   
    20   10   11 1   
    21   10   14 1   
    22   10   66 1   
    23   11   12 1   
    24   11   64 1   
    25   12   13 1   
    26   12   65 1   
    27   13   15 1   
    28   13   42 1   
    29   13   45 1   
    30   14   15 1   
    31   14   43 1   
    32   14   44 1   
    33   15   16 1   
    34   15   48 1   
    35   16   17 1   
    36   16   46 1   
    37   16   47 1   
    38   17   18 1   
    39   17   41 1   
    40   17   63 1   
    41   18   49 1   
    42   19   20 1   
    43   19   21 1   
    44   19   63 1   
    45   21   22 1   
    46   21   23 1   
    47   21   50 1   
    48   22   51 1   
    49   22   52 1   
    50   22   53 1   
    51   23   24 1   
    52   23   54 1   
    53   24   26 1   
    54   25   55 1   
    55   25   56 1   
    56   25   57 1   
    57   25   58 1   
    58   27   59 1   
    59   27   60 1   
    60   27   61 1   
    61   28   29 1   
    62   28   30 1   
    63   33   35 1   
    64   63   67 1   
    65   63   68 1   
@<TRIPOS>SUBSTRUCTURE
     1 3H3         1 TEMP              0 ****  ****    0 ROOT
