@<TRIPOS>MOLECULE
3H4
   89    89     1     0     0
SMALL
bcc


@<TRIPOS>ATOM
      1 CAF        -1.3870   -0.9740    1.9620 c3        1 3H4     -0.088200
      2 CAA        -1.6620   -2.3120    2.5400 c2        1 3H4     -0.158200
      3 CAB        -2.6680   -2.4790    3.4210 ce        1 3H4     -0.009100
      4 OAG        -3.0510   -3.6400    4.0520 os        1 3H4     -0.313900
      5 CAH        -2.3460   -4.8190    3.6500 c3        1 3H4      0.105700
      6 CAC        -3.5140   -1.3380    3.8110 c         1 3H4      0.798800
      7 OAI        -4.5740   -1.3360    4.4610 o         1 3H4     -0.717500
      8 OAD        -3.1710   -0.0800    3.4080 os        1 3H4     -0.449900
      9 CAE        -1.8240    0.1350    2.9060 c3        1 3H4      0.154100
     10 CAJ        -1.8060    1.5420    2.2820 c3        1 3H4     -0.036500
     11 CAK        -2.4280    1.5810    0.8980 c3        1 3H4     -0.100100
     12 CAL        -2.4980    2.5000    3.1850 c2        1 3H4     -0.121200
     13 CAM        -2.5070    3.8510    3.1160 ce        1 3H4     -0.118200
     14 CAO        -1.6920    4.6610    2.1840 c3        1 3H4     -0.070900
     15 CAN        -3.3780    4.5730    4.0340 ce        1 3H4      0.034000
     16 CAP        -4.6100    4.0980    4.3610 cf        1 3H4     -0.269000
     17 CAQ        -5.1930    3.0100    3.6380 cf        1 3H4      0.146000
     18 CAR        -5.9460    1.9700    4.1030 ce        1 3H4     -0.370200
     19 CAS        -6.2570    1.7250    5.4700 c         1 3H4      0.617300
     20 OAU        -6.4370    2.4530    6.4520 o         1 3H4     -0.585100
     21 N          -6.3890    0.2290    5.8070 n4        1 3H4     -0.688800
     22 CA         -7.2420   -0.0340    6.9980 c3        1 3H4      0.071500
     23 CB         -7.4900   -1.5580    7.2440 c3        1 3H4     -0.048000
     24 CG1        -8.2220   -1.6880    8.5710 c3        1 3H4     -0.127433
     25 CBA        -8.3740   -2.0860    6.1220 c3        1 3H4     -0.127433
     26 CG2        -6.1870   -2.3370    7.2820 c3        1 3H4     -0.127433
     27 C          -6.5870    0.5890    8.2400 c         1 3H4      0.546100
     28 O          -5.4400    0.4120    8.6080 o         1 3H4     -0.366100
     29 NBB        -7.4680    1.5340    9.0340 n4        1 3H4     -0.546600
     30 CBC        -6.9080    1.9000   10.3290 c2        1 3H4     -0.128000
     31 CBE        -7.5920    2.1260   11.4620 c2        1 3H4     -0.069200
     32 CBF        -9.0510    2.0780   11.6980 c3        1 3H4     -0.094200
     33 CBG        -9.3950    1.7180   13.1450 c3        1 3H4      0.174100
     34 OBH        -9.6270    3.0210   13.8050 os        1 3H4     -0.419900
     35 CBM        -9.3480    3.0680   15.1270 c         1 3H4      0.628100
     36 OBO        -8.5280    2.3860   15.7180 o         1 3H4     -0.380000
     37 NBN       -10.1200    4.1430   15.8190 n4        1 3H4     -0.715400
     38 CBI       -10.6840    0.9120   13.2470 c3        1 3H4     -0.065200
     39 CBJ       -10.9430    0.4530   14.6320 c2        1 3H4     -0.292200
     40 CBK       -12.1360    0.0680   15.1020 c2        1 3H4     -0.075200
     41 CBL       -13.4140    0.0660   14.3710 c3        1 3H4     -0.096900
     42 H1         -1.9220   -0.8980    0.9740 hc        1 3H4      0.098700
     43 H2         -0.2880   -0.8560    1.7560 hc        1 3H4      0.098700
     44 H3         -1.0340   -3.1470    2.1920 ha        1 3H4      0.179000
     45 H4         -2.4840   -5.0030    2.5570 h1        1 3H4      0.064700
     46 H5         -2.8350   -5.6240    4.2560 h1        1 3H4      0.064700
     47 H6         -1.2630   -4.7290    3.9060 h1        1 3H4      0.064700
     48 H7         -1.1570    0.1360    3.8180 h1        1 3H4      0.069700
     49 H8         -0.7160    1.8310    2.1920 hc        1 3H4      0.098700
     50 H9         -3.4310    1.0920    0.9040 hc        1 3H4      0.056033
     51 H10        -1.7740    1.0570    0.1600 hc        1 3H4      0.056033
     52 H11        -2.5450    2.6420    0.5640 hc        1 3H4      0.056033
     53 H12        -3.0530    2.0190    4.0150 ha        1 3H4      0.121000
     54 H13        -0.8570    4.0570    1.7480 hc        1 3H4      0.070033
     55 H14        -1.2500    5.5430    2.7130 hc        1 3H4      0.070033
     56 H15        -2.3260    5.0400    1.3420 hc        1 3H4      0.070033
     57 H16        -2.9860    5.5050    4.4810 ha        1 3H4      0.173000
     58 H17        -5.2070    4.5610    5.1650 ha        1 3H4      0.167000
     59 H18        -4.9790    2.9950    2.5420 ha        1 3H4      0.180000
     60 H19        -6.2740    1.2110    3.3650 ha        1 3H4      0.183000
     61 H20        -6.7680   -0.2930    5.0000 hn        1 3H4      0.501800
     62 H21        -8.2450    0.4520    6.7920 hx        1 3H4      0.116700
     63 H22        -9.1550   -1.0750    8.5780 hc        1 3H4      0.071478
     64 H23        -8.5140   -2.7590    8.7280 hc        1 3H4      0.071478
     65 H24        -7.5640   -1.3900    9.4240 hc        1 3H4      0.071478
     66 H25        -8.6910   -3.1320    6.3670 hc        1 3H4      0.071478
     67 H26        -9.2930   -1.4640    6.0020 hc        1 3H4      0.071478
     68 H27        -7.8230   -2.1300    5.1510 hc        1 3H4      0.071478
     69 H28        -6.3940   -3.3840    7.6220 hc        1 3H4      0.071478
     70 H29        -5.7120   -2.4060    6.2700 hc        1 3H4      0.071478
     71 H30        -5.4610   -1.8780    7.9970 hc        1 3H4      0.071478
     72 H31        -5.7980    1.9920   10.2960 hx        1 3H4      0.227000
     73 H32        -6.9770    2.4120   12.3440 ha        1 3H4      0.193000
     74 H34        -9.5570    1.3310   11.0290 hc        1 3H4      0.096200
     75 H35        -9.4900    3.0920   11.4590 hc        1 3H4      0.096200
     76 H36        -8.5410    1.2020   13.6660 h1        1 3H4      0.107700
     77 H37       -10.0960    5.0130   15.2710 hn        1 3H4      0.495133
     78 H38        -9.7100    4.3040   16.7520 hn        1 3H4      0.495133
     79 H39       -10.5810    0.0110   12.5790 hc        1 3H4      0.079700
     80 H40       -11.5380    1.5280   12.8570 hc        1 3H4      0.079700
     81 H41       -10.0480    0.3560   15.2720 ha        1 3H4      0.130000
     82 H42       -12.2050   -0.3110   16.1420 ha        1 3H4      0.152000
     83 H43       -13.7490   -0.9930   14.2140 hc        1 3H4      0.066700
     84 H44       -14.2060    0.5830   14.9720 hc        1 3H4      0.066700
     85 H45       -13.3460    0.5610   13.3720 hc        1 3H4      0.066700
     86 H46        -7.5570    2.3970    8.4630 hn        1 3H4      0.475300
     87 H2A        -5.4310   -0.1530    5.9540 hn        1 3H4      0.501800
     88 HBB2       -8.3950    1.1050    9.1430 hn        1 3H4      0.475300
     89 HBN3      -11.1000    3.8440   15.9240 hn        1 3H4      0.495133
@<TRIPOS>BOND
     1    1    2 1   
     2    1    9 1   
     3    1   42 1   
     4    1   43 1   
     5    2    3 2   
     6    2   44 1   
     7    3    4 1   
     8    3    6 1   
     9    4    5 1   
    10    5   45 1   
    11    5   46 1   
    12    5   47 1   
    13    6    7 2   
    14    6    8 1   
    15    8    9 1   
    16    9   10 1   
    17    9   48 1   
    18   10   11 1   
    19   10   12 1   
    20   10   49 1   
    21   11   50 1   
    22   11   51 1   
    23   11   52 1   
    24   12   13 2   
    25   12   53 1   
    26   13   14 1   
    27   13   15 1   
    28   14   54 1   
    29   14   55 1   
    30   14   56 1   
    31   15   16 2   
    32   15   57 1   
    33   16   17 1   
    34   16   58 1   
    35   17   18 2   
    36   17   59 1   
    37   18   19 1   
    38   18   60 1   
    39   19   20 2   
    40   19   21 1   
    41   21   22 1   
    42   21   61 1   
    43   21   87 1   
    44   22   23 1   
    45   22   27 1   
    46   22   62 1   
    47   23   24 1   
    48   23   25 1   
    49   23   26 1   
    50   24   63 1   
    51   24   64 1   
    52   24   65 1   
    53   25   66 1   
    54   25   67 1   
    55   25   68 1   
    56   26   69 1   
    57   26   70 1   
    58   26   71 1   
    59   27   28 2   
    60   27   29 1   
    61   29   30 1   
    62   29   86 1   
    63   29   88 1   
    64   30   31 2   
    65   30   72 1   
    66   31   32 1   
    67   31   73 1   
    68   32   33 1   
    69   32   74 1   
    70   32   75 1   
    71   33   34 1   
    72   33   38 1   
    73   33   76 1   
    74   34   35 1   
    75   35   36 2   
    76   35   37 1   
    77   37   77 1   
    78   37   78 1   
    79   37   89 1   
    80   38   39 1   
    81   38   79 1   
    82   38   80 1   
    83   39   40 2   
    84   39   81 1   
    85   40   41 1   
    86   40   82 1   
    87   41   83 1   
    88   41   84 1   
    89   41   85 1   
@<TRIPOS>SUBSTRUCTURE
     1 3H4         1 TEMP              0 ****  ****    0 ROOT
