@<TRIPOS>MOLECULE
3H4
   89    89     1     0     0
SMALL
bcc


@<TRIPOS>ATOM
      1 CAF        -1.5430   -1.0230    1.8420 c3        1 3H4     -0.088200
      2 CAA        -1.9660   -2.3660    2.3060 c2        1 3H4     -0.158200
      3 CAB        -2.9930   -2.4960    3.1700 ce        1 3H4     -0.009100
      4 OAG        -3.5050   -3.6580    3.7000 os        1 3H4     -0.313900
      5 CAH        -2.9280   -4.8680    3.2010 c3        1 3H4      0.105700
      6 CAC        -3.7150   -1.3080    3.6550 c         1 3H4      0.798800
      7 OAI        -4.7740   -1.2440    4.3020 o         1 3H4     -0.717500
      8 OAD        -3.2340   -0.0650    3.3580 os        1 3H4     -0.449900
      9 CAE        -1.8670    0.0440    2.8770 c3        1 3H4      0.154100
     10 CAJ        -1.6920    1.4890    2.3730 c3        1 3H4     -0.036500
     11 CAK        -2.2940    1.7110    0.9980 c3        1 3H4     -0.100100
     12 CAL        -2.2850    2.4370    3.3540 c2        1 3H4     -0.121200
     13 CAM        -2.1470    3.7820    3.3980 ce        1 3H4     -0.118200
     14 CAO        -1.2400    4.5740    2.5380 c3        1 3H4     -0.070900
     15 CAN        -2.9430    4.5150    4.3740 ce        1 3H4      0.034000
     16 CAP        -4.2210    4.1500    4.6610 cf        1 3H4     -0.269000
     17 CAQ        -4.9120    3.1960    3.8480 cf        1 3H4      0.146000
     18 CAR        -5.7780    2.2090    4.2240 ce        1 3H4     -0.370200
     19 CAS        -6.1260    1.8860    5.5650 c         1 3H4      0.617300
     20 OAU        -6.2350    2.5430    6.6060 o         1 3H4     -0.585100
     21 N          -6.4210    0.3900    5.7760 ny        1 3H4     -0.688800
     22 CA         -7.3080    0.1220    6.9400 c3        1 3H4      0.071500
     23 CB         -7.7210   -1.3820    7.0570 c3        1 3H4     -0.048000
     24 CG1        -8.4740   -1.5430    8.3680 c3        1 3H4     -0.127433
     25 CBA        -8.6460   -1.7150    5.8950 c3        1 3H4     -0.127433
     26 CG2        -6.5100   -2.2970    7.0290 c3        1 3H4     -0.127433
     27 C          -6.6010    0.5640    8.2300 c         1 3H4      0.546100
     28 O          -5.4830    0.2340    8.5820 o         1 3H4     -0.366100
     29 NBB        -7.3830    1.5290    9.1010 ny        1 3H4     -0.546600
     30 CBC        -6.7980    1.7230   10.4220 c2        1 3H4     -0.128000
     31 CBE        -7.4620    1.9230   11.5700 c2        1 3H4     -0.069200
     32 CBF        -8.9200    2.0100   11.8030 c3        1 3H4     -0.094200
     33 CBG        -9.3110    1.5660   13.2150 c3        1 3H4      0.174100
     34 OBH        -9.4110    2.8240   13.9840 os        1 3H4     -0.419900
     35 CBM        -9.1380    2.7290   15.3050 c         1 3H4      0.628100
     36 OBO        -8.3990    1.9170   15.8340 o         1 3H4     -0.380000
     37 NBN        -9.7990    3.8170   16.0870 nz        1 3H4     -0.715400
     38 CBI       -10.6780    0.8930   13.2490 c3        1 3H4     -0.065200
     39 CBJ       -10.9940    0.3460   14.5890 c2        1 3H4     -0.292200
     40 CBK       -12.2240    0.0500   15.0270 c2        1 3H4     -0.075200
     41 CBL       -13.4890    0.2430   14.2990 c3        1 3H4     -0.096900
     42 H1         -2.0580   -0.8060    0.8650 hc        1 3H4      0.098700
     43 H2         -0.4360   -1.0070    1.6470 hc        1 3H4      0.098700
     44 H3         -1.4290   -3.2330    1.8890 ha        1 3H4      0.179000
     45 H4         -3.5070   -5.6630    3.7370 h1        1 3H4      0.064700
     46 H5         -1.8440   -4.9180    3.4640 h1        1 3H4      0.064700
     47 H6         -3.0740   -4.9440    2.0960 h1        1 3H4      0.064700
     48 H7         -1.2120   -0.1030    3.7860 h1        1 3H4      0.069700
     49 H8         -0.5760    1.6640    2.3070 hc        1 3H4      0.098700
     50 H9         -2.2910    2.8020    0.7540 hc        1 3H4      0.056033
     51 H10        -3.3440    1.3340    0.9620 hc        1 3H4      0.056033
     52 H11        -1.6930    1.1830    0.2180 hc        1 3H4      0.056033
     53 H12        -2.8960    1.9510    4.1400 ha        1 3H4      0.121000
     54 H13        -0.4720    3.9220    2.0520 hc        1 3H4      0.070033
     55 H14        -1.8220    5.0890    1.7310 hc        1 3H4      0.070033
     56 H15        -0.7110    5.3560    3.1400 hc        1 3H4      0.070033
     57 H16        -2.4560    5.3580    4.8980 ha        1 3H4      0.173000
     58 H17        -4.7720    4.6070    5.5000 ha        1 3H4      0.168000
     59 H18        -4.6910    3.2500    2.7550 ha        1 3H4      0.180000
     60 H19        -6.1790    1.5550    3.4250 ha        1 3H4      0.183000
     61 H20        -5.5110   -0.1050    5.8890 hn        1 3H4      0.501800
     62 H21        -8.2510    0.7290    6.7760 hx        1 3H4      0.116700
     63 H22        -9.3360   -0.8350    8.4270 hc        1 3H4      0.071367
     64 H23        -7.7960   -1.3900    9.2430 hc        1 3H4      0.071367
     65 H24        -8.8810   -2.5860    8.4340 hc        1 3H4      0.071367
     66 H25        -9.4930   -0.9910    5.8280 hc        1 3H4      0.071367
     67 H26        -9.0760   -2.7390    6.0510 hc        1 3H4      0.071367
     68 H27        -8.0950   -1.7370    4.9230 hc        1 3H4      0.071367
     69 H28        -6.8310   -3.3410    7.2800 hc        1 3H4      0.071367
     70 H29        -5.7450   -1.9810    7.7800 hc        1 3H4      0.071367
     71 H30        -6.0370   -2.3330    6.0140 hc        1 3H4      0.071367
     72 H31        -5.6840    1.7000   10.3950 hx        1 3H4      0.227000
     73 H32        -6.8280    2.0680   12.4730 ha        1 3H4      0.193000
     74 H34        -9.2480    3.0810   11.6530 hc        1 3H4      0.096200
     75 H35        -9.4970    1.3810   11.0730 hc        1 3H4      0.096200
     76 H36        -8.5200    0.9200   13.6880 h1        1 3H4      0.107700
     77 H37        -9.3820    3.8530   17.0310 hn        1 3H4      0.495133
     78 H38        -9.6790    4.7230   15.6170 hn        1 3H4      0.495133
     79 H39       -10.6650    0.0470   12.5060 hc        1 3H4      0.079700
     80 H40       -11.4600    1.6270   12.9150 hc        1 3H4      0.079700
     81 H41       -10.1190    0.1020   15.2170 ha        1 3H4      0.130000
     82 H42       -12.3400   -0.4080   16.0300 ha        1 3H4      0.152000
     83 H43       -13.9320   -0.7580   14.0520 hc        1 3H4      0.066700
     84 H44       -13.3630    0.8120   13.3470 hc        1 3H4      0.066700
     85 H45       -14.2280    0.7860   14.9430 hc        1 3H4      0.066700
     86 H46        -7.3740    2.4410    8.6040 hn        1 3H4      0.475300
     87 H2A        -6.8470   -0.0190    4.9270 hn        1 3H4      0.501800
     88 HBB2       -8.3510    1.1950    9.1740 hn        1 3H4      0.475300
     89 HBN3      -10.8060    3.6140   16.1670 hn        1 3H4      0.495133
@<TRIPOS>BOND
     1    1    2 1   
     2    1    9 1   
     3    1   42 1   
     4    1   43 1   
     5    2    3 2   
     6    2   44 1   
     7    3    4 1   
     8    3    6 1   
     9    4    5 1   
    10    5   45 1   
    11    5   46 1   
    12    5   47 1   
    13    6    7 2   
    14    6    8 1   
    15    8    9 1   
    16    9   10 1   
    17    9   48 1   
    18   10   11 1   
    19   10   12 1   
    20   10   49 1   
    21   11   50 1   
    22   11   51 1   
    23   11   52 1   
    24   12   13 2   
    25   12   53 1   
    26   13   14 1   
    27   13   15 1   
    28   14   54 1   
    29   14   55 1   
    30   14   56 1   
    31   15   16 2   
    32   15   57 1   
    33   16   17 1   
    34   16   58 1   
    35   17   18 2   
    36   17   59 1   
    37   18   19 1   
    38   18   60 1   
    39   19   20 2   
    40   19   21 1   
    41   21   22 1   
    42   21   61 1   
    43   21   87 1   
    44   22   23 1   
    45   22   27 1   
    46   22   62 1   
    47   23   24 1   
    48   23   25 1   
    49   23   26 1   
    50   24   63 1   
    51   24   64 1   
    52   24   65 1   
    53   25   66 1   
    54   25   67 1   
    55   25   68 1   
    56   26   69 1   
    57   26   70 1   
    58   26   71 1   
    59   27   28 2   
    60   27   29 1   
    61   29   30 1   
    62   29   86 1   
    63   29   88 1   
    64   30   31 2   
    65   30   72 1   
    66   31   32 1   
    67   31   73 1   
    68   32   33 1   
    69   32   74 1   
    70   32   75 1   
    71   33   34 1   
    72   33   38 1   
    73   33   76 1   
    74   34   35 1   
    75   35   36 2   
    76   35   37 1   
    77   37   77 1   
    78   37   78 1   
    79   37   89 1   
    80   38   39 1   
    81   38   79 1   
    82   38   80 1   
    83   39   40 2   
    84   39   81 1   
    85   40   41 1   
    86   40   82 1   
    87   41   83 1   
    88   41   84 1   
    89   41   85 1   
@<TRIPOS>SUBSTRUCTURE
     1 3H4         1 TEMP              0 ****  ****    0 ROOT
