@<TRIPOS>MOLECULE
3H4
   86    86     1     0     0
SMALL
bcc


@<TRIPOS>ATOM
      1 CAF         0.6360    1.0080    2.3720 c3        1 3H4     -0.072200
      2 CAA         1.7200    0.6990    3.3340 c2        1 3H4     -0.225200
      3 CAB         1.4590   -0.0810    4.3990 ce        1 3H4      0.018900
      4 OAG         2.3360   -0.4480    5.3940 os        1 3H4     -0.293900
      5 CAH         3.6690    0.0350    5.2470 c3        1 3H4      0.107700
      6 CAC         0.1160   -0.6750    4.6050 c         1 3H4      0.730800
      7 OAI        -0.2050   -1.5860    5.3620 o         1 3H4     -0.539500
      8 OAD        -0.9270   -0.2240    3.8320 os        1 3H4     -0.413900
      9 CAE        -0.7240    0.9730    3.0590 c3        1 3H4      0.148100
     10 CAJ        -1.8800    1.0500    2.0480 c3        1 3H4     -0.026500
     11 CAK        -2.0770   -0.2550    1.3010 c3        1 3H4     -0.087100
     12 CAL        -3.1360    1.4310    2.7520 c2        1 3H4     -0.162200
     13 CAM        -4.0810    2.2400    2.2410 ce        1 3H4     -0.092200
     14 CAO        -3.9600    2.8660    0.8980 c3        1 3H4     -0.060900
     15 CAN        -5.2780    2.6040    2.9880 ce        1 3H4     -0.102000
     16 CAP        -6.0770    1.7920    3.6970 cf        1 3H4     -0.146000
     17 CAQ        -5.9090    0.3620    3.8280 cf        1 3H4     -0.044000
     18 CAR        -6.6030   -0.4430    4.6480 ce        1 3H4     -0.237200
     19 CAS        -7.6570    0.0090    5.5870 c         1 3H4      0.668300
     20 OAU        -7.7140    1.1640    6.0610 o         1 3H4     -0.620100
     21 N          -8.6310   -0.9260    5.9130 n         1 3H4     -0.558900
     22 CA         -9.6360   -0.6680    6.9080 c3        1 3H4      0.047700
     23 CB        -11.0770   -1.0420    6.4540 c3        1 3H4     -0.052000
     24 CG1       -12.0030   -0.9430    7.6590 c3        1 3H4     -0.095433
     25 CBA       -11.5300   -0.0430    5.3990 c3        1 3H4     -0.095433
     26 CG2       -11.1430   -2.4480    5.8810 c3        1 3H4     -0.095433
     27 C          -9.2970   -1.4470    8.2090 c         1 3H4      0.641100
     28 O          -9.0740   -2.6720    8.1950 o         1 3H4     -0.600100
     29 NBB        -9.2400   -0.7120    9.3830 n         1 3H4     -0.479100
     30 CBC        -8.9190   -1.2820   10.6150 c2        1 3H4     -0.023400
     31 CBE        -8.8030   -0.6030   11.7730 c2        1 3H4     -0.250200
     32 CBF        -8.9830    0.8570   11.9160 c3        1 3H4     -0.047200
     33 CBG        -8.8500    1.3180   13.3680 c3        1 3H4      0.162100
     34 OBH        -7.4410    1.2520   13.6770 os        1 3H4     -0.444900
     35 CBM        -7.0870    0.6650   14.8730 c         1 3H4      0.743100
     36 OBO        -7.9620    0.3090   15.6820 o         1 3H4     -0.602000
     37 NBN        -5.7320    0.5270   15.0140 n         1 3H4     -0.649000
     38 CBI        -9.3000    2.7700   13.5240 c3        1 3H4     -0.066200
     39 CBJ        -9.4870    3.1520   14.9430 c2        1 3H4     -0.175200
     40 CBK        -9.9610    4.3320   15.3550 c2        1 3H4     -0.176200
     41 CBL       -10.3790    5.4460   14.4840 c3        1 3H4     -0.064900
     42 H1          0.7890    2.0280    1.9300 hc        1 3H4      0.069700
     43 H2          0.6660    0.2660    1.5270 hc        1 3H4      0.069700
     44 H3          2.7140    1.1160    3.1260 ha        1 3H4      0.147000
     45 H4          4.1930   -0.3810    6.1450 h1        1 3H4      0.049033
     46 H5          3.6850    1.1520    5.2600 h1        1 3H4      0.049033
     47 H6          4.1260   -0.3520    4.3050 h1        1 3H4      0.049033
     48 H7         -0.7980    1.8390    3.7780 h1        1 3H4      0.060700
     49 H8         -1.5990    1.8540    1.3080 hc        1 3H4      0.056700
     50 H9         -2.9210   -0.1530    0.5760 hc        1 3H4      0.045033
     51 H10        -2.3130   -1.0800    2.0170 hc        1 3H4      0.045033
     52 H11        -1.1530   -0.5270    0.7380 hc        1 3H4      0.045033
     53 H12        -3.2500    0.9930    3.7590 ha        1 3H4      0.147000
     54 H13        -3.6750    2.1010    0.1340 hc        1 3H4      0.044033
     55 H14        -4.9230    3.3360    0.5810 hc        1 3H4      0.044033
     56 H15        -3.1710    3.6600    0.9120 hc        1 3H4      0.044033
     57 H16        -5.5290    3.6810    2.9300 ha        1 3H4      0.130000
     58 H17        -6.9440    2.2240    4.2350 ha        1 3H4      0.160000
     59 H18        -5.1410   -0.0940    3.1720 ha        1 3H4      0.136000
     60 H19        -6.3850   -1.5250    4.6540 ha        1 3H4      0.140000
     61 H20        -8.5200   -1.8730    5.6350 hn        1 3H4      0.324500
     62 H21        -9.6350    0.4470    7.1150 h1        1 3H4      0.095700
     63 H22       -11.7860   -1.7600    8.3900 hc        1 3H4      0.043144
     64 H23       -13.0650   -1.0410    7.3290 hc        1 3H4      0.043144
     65 H24       -11.8800    0.0420    8.1690 hc        1 3H4      0.043144
     66 H25       -10.8530   -0.0680    4.5120 hc        1 3H4      0.043144
     67 H26       -12.5640   -0.2940    5.0610 hc        1 3H4      0.043144
     68 H27       -11.5330    0.9930    5.8160 hc        1 3H4      0.043144
     69 H28       -10.6700   -2.4900    4.8700 hc        1 3H4      0.043144
     70 H29       -10.6210   -3.1710    6.5560 hc        1 3H4      0.043144
     71 H30       -12.2100   -2.7640    5.7770 hc        1 3H4      0.043144
     72 H31        -8.7640   -2.3790   10.5710 h4        1 3H4      0.169000
     73 H32        -8.5430   -1.1580   12.6880 ha        1 3H4      0.146000
     74 H34       -10.0030    1.1580   11.5520 hc        1 3H4      0.054200
     75 H35        -8.2230    1.4020   11.2920 hc        1 3H4      0.054200
     76 H36        -9.4350    0.6440   14.0530 h1        1 3H4      0.092700
     77 H37        -5.1240    0.9160   14.3400 hn        1 3H4      0.328500
     78 H38        -5.3820    0.2310   15.8900 hn        1 3H4      0.328500
     79 H39        -8.5370    3.4410   13.0450 hc        1 3H4      0.059200
     80 H40       -10.2660    2.9020   12.9650 hc        1 3H4      0.059200
     81 H41        -9.1970    2.3800   15.6800 ha        1 3H4      0.145000
     82 H42       -10.0680    4.5290   16.4360 ha        1 3H4      0.120000
     83 H43       -10.1890    5.2290   13.4040 hc        1 3H4      0.039367
     84 H44       -11.4720    5.6460   14.6150 hc        1 3H4      0.039367
     85 H45        -9.8210    6.3770   14.7570 hc        1 3H4      0.039367
     86 H46        -9.3610    0.2740    9.3380 hn        1 3H4      0.318500
@<TRIPOS>BOND
     1    1    2 1   
     2    1    9 1   
     3    1   42 1   
     4    1   43 1   
     5    2    3 2   
     6    2   44 1   
     7    3    4 1   
     8    3    6 1   
     9    4    5 1   
    10    5   45 1   
    11    5   46 1   
    12    5   47 1   
    13    6    7 2   
    14    6    8 1   
    15    8    9 1   
    16    9   10 1   
    17    9   48 1   
    18   10   11 1   
    19   10   12 1   
    20   10   49 1   
    21   11   50 1   
    22   11   51 1   
    23   11   52 1   
    24   12   13 2   
    25   12   53 1   
    26   13   14 1   
    27   13   15 1   
    28   14   54 1   
    29   14   55 1   
    30   14   56 1   
    31   15   16 2   
    32   15   57 1   
    33   16   17 1   
    34   16   58 1   
    35   17   18 2   
    36   17   59 1   
    37   18   19 1   
    38   18   60 1   
    39   19   20 2   
    40   19   21 1   
    41   21   22 1   
    42   21   61 1   
    43   22   23 1   
    44   22   27 1   
    45   22   62 1   
    46   23   24 1   
    47   23   25 1   
    48   23   26 1   
    49   24   63 1   
    50   24   64 1   
    51   24   65 1   
    52   25   66 1   
    53   25   67 1   
    54   25   68 1   
    55   26   69 1   
    56   26   70 1   
    57   26   71 1   
    58   27   28 2   
    59   27   29 1   
    60   29   30 1   
    61   29   86 1   
    62   30   31 2   
    63   30   72 1   
    64   31   32 1   
    65   31   73 1   
    66   32   33 1   
    67   32   74 1   
    68   32   75 1   
    69   33   34 1   
    70   33   38 1   
    71   33   76 1   
    72   34   35 1   
    73   35   36 2   
    74   35   37 1   
    75   37   77 1   
    76   37   78 1   
    77   38   39 1   
    78   38   79 1   
    79   38   80 1   
    80   39   40 2   
    81   39   81 1   
    82   40   41 1   
    83   40   82 1   
    84   41   83 1   
    85   41   84 1   
    86   41   85 1   
@<TRIPOS>SUBSTRUCTURE
     1 3H4         1 TEMP              0 ****  ****    0 ROOT
