@<TRIPOS>MOLECULE
3H5
   32    32     1     0     0
SMALL
bcc


@<TRIPOS>ATOM
      1 C11        -0.8170   -1.0580    0.3980 c1        1 3H5      0.044000
      2 C13         2.2840   -0.2620    1.0100 c2        1 3H5     -0.018000
      3 C14         2.9160    0.0110    2.3530 c3        1 3H5     -0.146000
      4 C15         2.2170    1.0470    3.1490 c2        1 3H5      0.184000
      5 C16         1.1080    1.6730    2.8120 c1        1 3H5     -0.565000
      6 C02        -1.2600    0.0740   -4.5200 c2        1 3H5     -0.033000
      7 N03        -2.3550    0.3730   -5.2740 n2        1 3H5     -0.084000
      8 N04        -3.4250    0.3330   -4.4540 na        1 3H5     -0.108000
      9 C05        -4.7730    0.6050   -4.8960 c3        1 3H5     -0.064000
     10 C06        -3.0710    0.0110   -3.1500 c2        1 3H5     -0.068000
     11 C07        -1.6720   -0.1670   -3.1430 c2        1 3H5     -0.261000
     12 C08        -0.8000   -0.5090   -2.0310 c2        1 3H5      0.366000
     13 O09         0.4320   -0.6550   -2.1480 o         1 3H5     -0.350000
     14 N10        -1.3980   -0.6540   -0.7540 ns        1 3H5     -0.291000
     15 N12         2.4520    0.5360    0.0220 n2        1 3H5     -0.196000
     16 C17         0.0410    2.3010    2.4980 c1        1 3H5      0.200000
     17 C18         1.5160   -1.5470    0.9750 c2        1 3H5     -0.047000
     18 N19         0.3170   -1.7000    0.5810 n2        1 3H5     -0.171000
     19 H1          3.9870    0.3380    2.2140 hc        1 3H5      0.127000
     20 H2          2.9380   -0.9410    2.9550 hc        1 3H5      0.127000
     21 H3          2.7140    1.2790    4.1150 ha        1 3H5      0.122000
     22 H4          0.8270    0.3780   -4.2490 hc        1 3H5      0.104667
     23 H5          0.3790   -1.0760   -5.2360 hc        1 3H5      0.104667
     24 H6          0.2530    0.5840   -5.9700 hc        1 3H5      0.104667
     25 H7         -4.8400    1.6510   -5.2980 h1        1 3H5      0.104333
     26 H8         -5.0630   -0.1170   -5.7060 h1        1 3H5      0.104333
     27 H9         -5.4680    0.4910   -4.0240 h1        1 3H5      0.104333
     28 H10        -3.8100   -0.0680   -2.3510 h4        1 3H5      0.179000
     29 H11        -2.3600   -0.4090   -0.6610 hn        1 3H5      0.252000
     30 H12         1.9950    0.2890   -0.8350 hn        1 3H5      0.180000
     31 H13         2.0760   -2.4450    1.3080 h4        1 3H5      0.152000
     32 C01         0.1210   -0.0060   -5.0290 c3        1 3H5     -0.159000
@<TRIPOS>BOND
     1    1   14 1   
     2    1   18 1   
     3    2    3 1   
     4    2   15 1   
     5    2   17 1   
     6    3    4 1   
     7    3   19 1   
     8    3   20 1   
     9    4    5 1   
    10    4   21 1   
    11    5   16 1   
    12    6    7 1   
    13    6   11 1   
    14    6   32 1   
    15    7    8 1   
    16    8    9 1   
    17    8   10 1   
    18    9   25 1   
    19    9   26 1   
    20    9   27 1   
    21   10   11 1   
    22   10   28 1   
    23   11   12 1   
    24   12   13 1   
    25   12   14 1   
    26   14   29 1   
    27   15   30 1   
    28   17   18 1   
    29   17   31 1   
    30   22   32 1   
    31   23   32 1   
    32   24   32 1   
@<TRIPOS>SUBSTRUCTURE
     1 3H5         1 TEMP              0 ****  ****    0 ROOT
