@<TRIPOS>MOLECULE
3H5
   32    32     1     0     0
SMALL
bcc


@<TRIPOS>ATOM
      1 C11         1.5720    1.3600   -1.2130 c1        1 3H5      0.032000
      2 C13         2.3560   -0.1700    1.4310 c2        1 3H5     -0.019000
      3 C14         1.7190   -0.4810    2.7650 c3        1 3H5     -0.154000
      4 C15         0.2720   -0.7770    2.6670 c2        1 3H5      0.216000
      5 C16        -0.4880   -0.5600    1.6050 c1        1 3H5     -0.545000
      6 C02        -1.7140    0.2620   -4.8190 c2        1 3H5     -0.036000
      7 N03        -2.9540   -0.3000   -4.7480 n2        1 3H5     -0.092000
      8 N04        -3.1900   -0.5740   -3.4480 na        1 3H5     -0.112000
      9 C05        -4.4080   -1.1900   -2.9760 c3        1 3H5     -0.063000
     10 C06        -2.1300   -0.2020   -2.6320 c2        1 3H5     -0.066000
     11 C07        -1.1460    0.3480   -3.4810 c2        1 3H5     -0.278000
     12 C08         0.1640    0.8800   -3.1260 c2        1 3H5      0.412000
     13 O09         1.0540    1.1340   -3.9460 o         1 3H5     -0.282000
     14 N10         0.3600    1.1050   -1.7290 n         1 3H5     -0.284000
     15 N12         2.8580   -1.1060    0.7130 n2        1 3H5     -0.205000
     16 C17        -1.2200   -0.3550    0.5890 c1        1 3H5      0.120000
     17 C18         2.3140    1.2840    1.0940 c2        1 3H5     -0.105000
     18 N19         1.8660    1.7870    0.0090 n2        1 3H5     -0.159000
     19 H1          1.8500    0.4030    3.4540 hc        1 3H5      0.138000
     20 H2          2.2330   -1.3580    3.2540 hc        1 3H5      0.138000
     21 H3         -0.1740   -1.2050    3.5900 ha        1 3H5      0.133000
     22 H4         -0.5890   -0.1860   -6.5710 hc        1 3H5      0.103333
     23 H5         -0.2590    1.4400   -5.8360 hc        1 3H5      0.103333
     24 H6         -1.7960    1.1550   -6.7750 hc        1 3H5      0.103333
     25 H7         -4.5240   -2.2090   -3.4350 h1        1 3H5      0.102333
     26 H8         -4.3540   -1.2830   -1.8600 h1        1 3H5      0.102333
     27 H9         -5.2920   -0.5590   -3.2610 h1        1 3H5      0.102333
     28 H10        -2.1340   -0.3550   -1.5430 h4        1 3H5      0.215000
     29 H11        -0.4680    1.0440   -1.1590 hn        1 3H5      0.214000
     30 H12         3.2460   -0.8260   -0.1660 hn        1 3H5      0.170000
     31 H13         2.7300    1.9700    1.8570 h4        1 3H5      0.156000
     32 C01        -1.0610    0.6960   -6.0690 c3        1 3H5     -0.161000
@<TRIPOS>BOND
     1    1   14 1   
     2    1   18 1   
     3    2    3 1   
     4    2   15 1   
     5    2   17 1   
     6    3    4 1   
     7    3   19 1   
     8    3   20 1   
     9    4    5 1   
    10    4   21 1   
    11    5   16 1   
    12    6    7 1   
    13    6   11 1   
    14    6   32 1   
    15    7    8 1   
    16    8    9 1   
    17    8   10 1   
    18    9   25 1   
    19    9   26 1   
    20    9   27 1   
    21   10   11 1   
    22   10   28 1   
    23   11   12 1   
    24   12   13 1   
    25   12   14 1   
    26   14   29 1   
    27   15   30 1   
    28   17   18 1   
    29   17   31 1   
    30   22   32 1   
    31   23   32 1   
    32   24   32 1   
@<TRIPOS>SUBSTRUCTURE
     1 3H5         1 TEMP              0 ****  ****    0 ROOT
