@<TRIPOS>MOLECULE
3H6
   36    37     1     0     0
SMALL
bcc


@<TRIPOS>ATOM
      1 C11        -0.1850    1.0550    0.2660 c2        1 3H6     -0.122000
      2 C13        -4.9110    0.1730   -2.9810 c2        1 3H6     -0.053000
      3 C14        -5.9490   -0.3670   -2.3270 c2        1 3H6     -0.133000
      4 C17        -4.9260    0.4460   -4.4220 c2        1 3H6     -0.236000
      5 C18        -4.0030   -0.2230   -5.3340 c2        1 3H6     -0.108000
      6 C10         3.2010    0.9150    0.4980 c1        1 3H6      0.172000
      7 N12        -1.1850    1.1990   -0.6750 na        1 3H6     -0.198000
      8 O01        -2.9730    1.6520   -2.7360 oh        1 3H6     -0.310000
      9 C02        -3.6510    0.5340   -2.2770 c2        1 3H6      0.159000
     10 C04        -2.0690    0.0900   -0.5280 c2        1 3H6      0.010000
     11 N05        -1.6280   -0.7290    0.4870 n2        1 3H6     -0.097000
     12 C06        -0.4640   -0.1360    0.9760 c2        1 3H6     -0.151000
     13 C07         0.2990   -0.7040    2.1070 c3        1 3H6     -0.100000
     14 C08         1.7730   -0.6650    1.9820 c2        1 3H6      0.195000
     15 C09         2.4850    0.1480    1.2220 c1        1 3H6     -0.578000
     16 N15        -6.6330    1.9460   -5.3660 n1        1 3H6      0.021000
     17 N16        -5.8700    1.2430   -4.9210 n2        1 3H6      0.186000
     18 C19        -3.2350   -1.2850   -4.9060 c2        1 3H6     -0.001000
     19 C20        -2.3100   -1.9260   -5.7850 c2        1 3H6     -0.226000
     20 C21        -2.1890   -1.5080   -7.0830 c2        1 3H6      0.089000
     21 F22        -1.3240   -2.0880   -7.9380 f         1 3H6     -0.093000
     22 C23        -3.0190   -0.3820   -7.6080 c3        1 3H6     -0.202000
     23 C24        -3.9340    0.2430   -6.6730 c1        1 3H6     -0.122000
     24 H1         -5.9280   -0.5710   -1.2470 ha        1 3H6      0.137000
     25 H2          0.6480    1.7540    0.3610 h4        1 3H6      0.195000
     26 H3         -1.2690    1.9220   -1.3450 hn        1 3H6      0.267000
     27 H4         -3.3520    1.9330   -3.5830 ho        1 3H6      0.251000
     28 H6         -0.0180   -1.7730    2.2840 hc        1 3H6      0.128500
     29 H7          0.0340   -0.1310    3.0460 hc        1 3H6      0.128500
     30 H8          2.2980   -1.3930    2.6370 ha        1 3H6      0.123000
     31 H9         -6.8800   -0.6410   -2.8420 ha        1 3H6      0.137000
     32 H10        -3.3040   -1.6660   -3.8720 ha        1 3H6      0.158000
     33 H11        -1.7030   -2.7570   -5.3950 ha        1 3H6      0.160000
     34 H12        -3.6310   -0.7440   -8.4900 hc        1 3H6      0.178500
     35 H13        -2.3430    0.4280   -8.0180 hc        1 3H6      0.178500
     36 N03        -3.2320   -0.1690   -1.2690 n2        1 3H6     -0.141000
@<TRIPOS>BOND
     1    1    7 1   
     2    1   12 1   
     3    1   25 1   
     4    2    3 1   
     5    2    4 1   
     6    2    9 1   
     7    3   24 1   
     8    3   31 1   
     9    4    5 1   
    10    4   17 1   
    11    5   18 1   
    12    5   23 1   
    13    6   15 1   
    14    7   10 1   
    15    7   26 1   
    16    8    9 1   
    17    8   27 1   
    18    9   36 1   
    19   10   11 1   
    20   10   36 1   
    21   11   12 1   
    22   12   13 1   
    23   13   14 1   
    24   13   28 1   
    25   13   29 1   
    26   14   15 1   
    27   14   30 1   
    28   16   17 1   
    29   18   19 1   
    30   18   32 1   
    31   19   20 1   
    32   19   33 1   
    33   20   21 1   
    34   20   22 1   
    35   22   23 1   
    36   22   34 1   
    37   22   35 1   
@<TRIPOS>SUBSTRUCTURE
     1 3H6         1 TEMP              0 ****  ****    0 ROOT
