@<TRIPOS>MOLECULE
3H6
   36    35     1     0     0
SMALL
bcc


@<TRIPOS>ATOM
      1 C11        -0.3510    1.3060   -0.2680 c2        1 3H6     -0.139000
      2 C13        -5.5360    0.7800   -2.7980 c2        1 3H6     -0.024000
      3 C14        -6.5910    1.2920   -2.1530 c2        1 3H6     -0.165000
      4 C17        -5.6270   -0.0490   -4.0000 c2        1 3H6     -0.131000
      5 C18        -4.7410    0.1130   -5.0720 c1        1 3H6     -0.135000
      6 C10         1.0120   -2.4510   -1.2510 c1        1 3H6      0.140000
      7 N12        -1.4600    1.5240   -1.0620 na        1 3H6     -0.198000
      8 O01        -3.3690    1.8870   -3.0360 oh        1 3H6     -0.311000
      9 C02        -4.1530    1.0180   -2.2950 c2        1 3H6      0.169000
     10 C04        -2.4590    0.5910   -0.6590 c2        1 3H6      0.022000
     11 N05        -1.9890   -0.1850    0.3750 n2        1 3H6     -0.090000
     12 C06        -0.6870    0.2510    0.6110 c2        1 3H6     -0.145000
     13 C07         0.1960   -0.3510    1.6310 c3        1 3H6     -0.098000
     14 C08         0.8690   -1.5980    1.1930 c2        1 3H6      0.203000
     15 C09         0.9550   -2.0300   -0.0540 c1        1 3H6     -0.539000
     16 N15        -7.3340   -1.8240   -4.1180 n1        1 3H6      0.023000
     17 N16        -6.5410   -1.0220   -4.0560 n2        1 3H6      0.167000
     18 C19         0.5360   -2.9120   -4.4040 c2        1 3H6     -0.545000
     19 C20        -0.2150   -2.0930   -5.0700 c1        1 3H6      0.090000
     20 C21        -1.8890   -0.1080   -7.1290 c2        1 3H6      0.048000
     21 F22        -1.0770    0.0910   -8.1840 f         1 3H6     -0.112000
     22 C23        -3.1270    0.4420   -7.0800 c2        1 3H6     -0.165000
     23 C24        -3.9900    0.2490   -6.0000 c1        1 3H6     -0.079000
     24 H1         -6.4800    1.8830   -1.2330 ha        1 3H6      0.132500
     25 H2          0.5670    1.8830   -0.3660 h4        1 3H6      0.177000
     26 H3         -1.5370    2.1670   -1.8090 hn        1 3H6      0.268000
     27 H4         -3.7580    1.9830   -3.9210 ho        1 3H6      0.253000
     28 H6         -0.3930   -0.5740    2.5670 hc        1 3H6      0.126000
     29 H7          1.0000    0.3900    1.9120 hc        1 3H6      0.126000
     30 H8          1.3380   -2.1800    2.0140 ha        1 3H6      0.124000
     31 H9         -7.6230    1.1510   -2.5010 ha        1 3H6      0.132500
     32 H10         0.7080   -2.7850   -3.3010 ha        1 3H6      0.224500
     33 H11         1.0720   -3.7860   -4.7980 ha        1 3H6      0.224500
     34 H12        -1.4440   -0.7500   -6.3340 h4        1 3H6      0.207000
     35 H13        -3.5070    1.0670   -7.9080 ha        1 3H6      0.150000
     36 N03        -3.7500    0.4550   -1.1990 n2        1 3H6     -0.127000
@<TRIPOS>BOND
     1    1    7 1   
     2    1   12 1   
     3    1   25 1   
     4    2    3 1   
     5    2    4 1   
     6    2    9 1   
     7    3   24 1   
     8    3   31 1   
     9    4    5 1   
    10    4   17 1   
    11    5   23 1   
    12    6   15 1   
    13    7   10 1   
    14    7   26 1   
    15    8    9 1   
    16    8   27 1   
    17    9   36 1   
    18   10   11 1   
    19   10   36 1   
    20   11   12 1   
    21   12   13 1   
    22   13   14 1   
    23   13   28 1   
    24   13   29 1   
    25   14   15 1   
    26   14   30 1   
    27   16   17 1   
    28   18   19 1   
    29   18   32 1   
    30   18   33 1   
    31   20   21 1   
    32   20   22 1   
    33   20   34 1   
    34   22   23 1   
    35   22   35 1   
@<TRIPOS>SUBSTRUCTURE
     1 3H6         1 TEMP              0 ****  ****    0 ROOT
