@<TRIPOS>MOLECULE
3H7
   16    17     1     0     0
SMALL
bcc


@<TRIPOS>ATOM
      1 N01         0.0210    0.1620   -0.1320 nv        1 3H7     -0.857800
      2 C02         1.3940    0.0370    0.0280 cc        1 3H7      0.562100
      3 N03         2.0590    0.0570    1.1900 nd        1 3H7     -0.573100
      4 C04         3.4340    0.0440    0.9400 ca        1 3H7      0.064400
      5 C05         4.4560    0.0690    1.9290 ca        1 3H7      0.198900
      6 F06         4.1430    0.1280    3.2400 f         1 3H7     -0.114900
      7 C07         5.7960    0.0310    1.5350 ca        1 3H7     -0.205000
      8 C08         6.1310   -0.0310    0.1650 ca        1 3H7      0.150900
      9 F09         7.4390   -0.0670   -0.1880 f         1 3H7     -0.132900
     10 C10         5.1440   -0.0540   -0.8290 ca        1 3H7     -0.140000
     11 C11         3.8090   -0.0150   -0.4410 ca        1 3H7     -0.057100
     12 S12         2.4250   -0.0210   -1.4110 ss        1 3H7     -0.047100
     13 H1         -0.3570   -0.4430   -0.8290 hn        1 3H7      0.410800
     14 H2         -0.5090    0.1720    0.7160 hn        1 3H7      0.410800
     15 H3          6.5940    0.0500    2.2920 ha        1 3H7      0.168000
     16 H4          5.4300   -0.1000   -1.8890 ha        1 3H7      0.160000
@<TRIPOS>BOND
     1    1    2 1   
     2    1   13 1   
     3    1   14 1   
     4    2    3 2   
     5    2   12 1   
     6    3    4 1   
     7    4    5 ar  
     8    4   11 ar  
     9    5    6 1   
    10    5    7 ar  
    11    7    8 ar  
    12    7   15 1   
    13    8    9 1   
    14    8   10 ar  
    15   10   11 ar  
    16   10   16 1   
    17   11   12 1   
@<TRIPOS>SUBSTRUCTURE
     1 3H7         1 TEMP              0 ****  ****    0 ROOT
