@<TRIPOS>MOLECULE
3H7
   16    17     1     0     0
SMALL
bcc


@<TRIPOS>ATOM
      1 N01         0.0180    0.1670   -0.1080 nh        1 3H7     -0.857800
      2 C02         1.3920    0.0430    0.0390 cc        1 3H7      0.562100
      3 N03         2.0620   -0.0000    1.1980 nd        1 3H7     -0.573100
      4 C04         3.4360    0.0100    0.9430 ca        1 3H7      0.064400
      5 C05         4.4610   -0.0150    1.9280 ca        1 3H7      0.198900
      6 F06         4.1530   -0.0350    3.2420 f         1 3H7     -0.114900
      7 C07         5.8000   -0.0210    1.5280 ca        1 3H7     -0.205000
      8 C08         6.1300   -0.0000    0.1550 ca        1 3H7      0.150900
      9 F09         7.4370   -0.0070   -0.2030 f         1 3H7     -0.132900
     10 C10         5.1400    0.0280   -0.8340 ca        1 3H7     -0.140000
     11 C11         3.8060    0.0360   -0.4410 ca        1 3H7     -0.057100
     12 S12         2.4190    0.0760   -1.4050 ss        1 3H7     -0.047100
     13 H1         -0.3590   -0.3980   -0.8390 hn        1 3H7      0.410800
     14 H2         -0.5090    0.1230    0.7400 hn        1 3H7      0.410800
     15 H3          6.6010   -0.0410    2.2830 ha        1 3H7      0.168000
     16 H4          5.4220    0.0460   -1.8970 ha        1 3H7      0.160000
@<TRIPOS>BOND
     1    1    2 1   
     2    1   13 1   
     3    1   14 1   
     4    2    3 2   
     5    2   12 1   
     6    3    4 1   
     7    4    5 ar  
     8    4   11 ar  
     9    5    6 1   
    10    5    7 ar  
    11    7    8 ar  
    12    7   15 1   
    13    8    9 1   
    14    8   10 ar  
    15   10   11 ar  
    16   10   16 1   
    17   11   12 1   
@<TRIPOS>SUBSTRUCTURE
     1 3H7         1 TEMP              0 ****  ****    0 ROOT
