@<TRIPOS>MOLECULE
3H8
   51    52     1     0     0
SMALL
bcc


@<TRIPOS>ATOM
      1 C10        -0.0030    2.7780    0.5150 c1        1 3H8      0.196000
      2 C18         7.2550   -0.2470    1.6800 c2        1 3H8      0.397000
      3 C11         1.0880    2.2910    1.0930 c2        1 3H8     -0.459000
      4 C12         1.3190    0.8660    1.3380 c2        1 3H8      0.147000
      5 C13         0.2700   -0.0030    1.2930 c2        1 3H8     -0.203000
      6 C16         4.8980    0.3960    1.6650 c2        1 3H8     -0.038000
      7 C15         3.7980    1.1520    1.2110 c2        1 3H8     -0.163000
      8 C23        14.3390   -1.4540    1.9580 c1        1 3H8      0.405000
      9 C24        13.3290   -0.6510    1.6310 c2        1 3H8     -0.524000
     10 C22         9.6910   -2.0170    1.5090 c2        1 3H8     -0.183000
     11 C21         9.6770   -0.6710    1.5530 c2        1 3H8      0.009000
     12 C26        10.9280    0.1020    1.9220 c3        1 3H8     -0.046000
     13 C31        -4.5450   -0.3570    5.7200 c2        1 3H8     -0.045000
     14 C30        -3.8780   -0.1200    4.5070 c2        1 3H8     -0.215000
     15 N32        -3.9440   -0.6670    6.8790 n2        1 3H8     -0.161000
     16 C28         4.3000   -0.7630    2.3320 c2        1 3H8     -0.135000
     17 C02        -2.5880   -0.7560    6.8690 c2        1 3H8      0.012000
     18 C03        -1.8210   -0.5380    5.7100 c2        1 3H8     -0.239000
     19 C04        -2.4710   -0.2110    4.4920 c2        1 3H8      0.115000
     20 N05        -1.6850    0.0050    3.3530 n         1 3H8     -0.314000
     21 O07        -3.3330    0.4280    1.7830 o         1 3H8     -0.343000
     22 C08        -1.0740    0.4790    1.0160 c2        1 3H8     -0.120000
     23 C09        -1.4240    1.0510   -0.1550 c2        1 3H8     -0.106000
     24 N14         2.6450    0.4500    1.6140 na        1 3H8     -0.096000
     25 O19         7.0110   -1.3750    2.1610 o         1 3H8     -0.371000
     26 N20         8.5440    0.1160    1.2520 n         1 3H8     -0.330000
     27 C25        12.0460   -0.7800    2.1830 c1        1 3H8     -0.022000
     28 CL         11.2110    1.4200    0.7190 cl        1 3H8     -0.202000
     29 N29         2.9560   -0.6890    2.2700 n2        1 3H8     -0.064000
     30 H1         -0.7360    1.1170   -1.0120 ha        1 3H8      0.150500
     31 H2          1.8550    3.0090    1.4460 ha        1 3H8      0.197000
     32 H3          0.3820   -1.0850    1.4760 ha        1 3H8      0.178000
     33 H4          3.7470    2.0850    0.6540 h4        1 3H8      0.182000
     34 H5         10.6000   -2.5850    1.7490 ha        1 3H8      0.148000
     35 H6         13.5470    0.1450    0.8750 ha        1 3H8      0.199000
     36 H7          8.7940   -2.6120    1.2830 ha        1 3H8      0.148000
     37 H8         -5.6490   -0.2920    5.7610 h4        1 3H8      0.160000
     38 H9         -4.4560    0.1280    3.6040 ha        1 3H8      0.181000
     39 H10         4.8380   -1.5900    2.8080 h4        1 3H8      0.221000
     40 H11        -2.1110   -0.3430    8.9310 hc        1 3H8      0.092667
     41 H12        -2.2140   -2.1030    8.5100 hc        1 3H8      0.092667
     42 H13        -0.7760   -1.1280    7.9800 hc        1 3H8      0.092667
     43 H14        -0.7270   -0.6260    5.7620 ha        1 3H8      0.142000
     44 H15        -0.6990   -0.0810    3.4900 hn        1 3H8      0.245000
     45 H16        -2.4480    1.4190   -0.3280 ha        1 3H8      0.150500
     46 H17         6.4190    1.5330    0.9880 hn        1 3H8      0.222000
     47 H18         8.7280    1.0630    1.0040 hn        1 3H8      0.237000
     48 H19        10.7530    0.6650    2.8890 h1        1 3H8      0.165000
     49 C06        -2.1280    0.3020    2.0730 c2        1 3H8      0.348000
     50 N17         6.2390    0.7360    1.5590 n         1 3H8     -0.281000
     51 C01        -1.8810   -1.1010    8.1410 c3        1 3H8     -0.173000
@<TRIPOS>BOND
     1    1    3 1   
     2    2   25 1   
     3    2   26 1   
     4    2   50 1   
     5    3    4 1   
     6    3   31 1   
     7    4    5 1   
     8    4   24 1   
     9    5   22 1   
    10    5   32 1   
    11    6    7 1   
    12    6   16 1   
    13    6   50 1   
    14    7   24 1   
    15    7   33 1   
    16    8    9 1   
    17    9   27 1   
    18    9   35 1   
    19   10   11 1   
    20   10   34 1   
    21   10   36 1   
    22   11   12 1   
    23   11   26 1   
    24   12   27 1   
    25   12   28 1   
    26   12   48 1   
    27   13   14 1   
    28   13   15 1   
    29   13   37 1   
    30   14   19 1   
    31   14   38 1   
    32   15   17 1   
    33   16   29 1   
    34   16   39 1   
    35   17   18 1   
    36   17   51 1   
    37   18   19 1   
    38   18   43 1   
    39   19   20 1   
    40   20   44 1   
    41   20   49 1   
    42   21   49 1   
    43   22   23 1   
    44   22   49 1   
    45   23   30 1   
    46   23   45 1   
    47   24   29 1   
    48   26   47 1   
    49   40   51 1   
    50   41   51 1   
    51   42   51 1   
    52   46   50 1   
@<TRIPOS>SUBSTRUCTURE
     1 3H8         1 TEMP              0 ****  ****    0 ROOT
