@<TRIPOS>MOLECULE
3H8
   51    53     1     0     0
SMALL
bcc


@<TRIPOS>ATOM
      1 C10         0.1400    2.1650    0.0900 c1        1 3H8      0.208000
      2 C18         7.5220    0.2310    2.2890 c2        1 3H8      0.397000
      3 C11         1.2220    1.9230    0.8200 c2        1 3H8     -0.463000
      4 C12         1.5640    0.6060    1.3590 c2        1 3H8      0.133000
      5 C13         0.6140   -0.3670    1.4230 c2        1 3H8     -0.182000
      6 C16         5.1350    0.5790    1.9750 c2        1 3H8     -0.065000
      7 C15         4.0110    1.1020    1.3000 c2        1 3H8     -0.135000
      8 C23        10.9800   -2.1890    1.1030 c2        1 3H8     -0.166000
      9 C24        11.5570   -1.3790    0.2300 c1        1 3H8     -0.284000
     10 C22         9.8000   -1.5510    1.7920 c3        1 3H8     -0.125000
     11 C21         9.9240   -0.0320    1.7650 c2        1 3H8      0.169000
     12 C26        11.2070    0.6140    1.3090 c3        1 3H8     -0.066000
     13 C31        -4.5150   -0.3980    5.5020 c2        1 3H8     -0.044000
     14 C30        -3.7700   -0.3260    4.3130 c2        1 3H8     -0.213000
     15 N32        -3.9910   -0.4080    6.7370 n2        1 3H8     -0.159000
     16 C28         4.5960   -0.4520    2.8590 c2        1 3H8     -0.137000
     17 C02        -2.6370   -0.3440    6.8370 c2        1 3H8      0.013000
     18 C03        -1.7970   -0.2690    5.7120 c2        1 3H8     -0.239000
     19 C04        -2.3660   -0.2590    4.4120 c2        1 3H8      0.114000
     20 N05        -1.5060   -0.1810    3.3080 ns        1 3H8     -0.314000
     21 O07        -3.0430   -0.2470    1.5780 o         1 3H8     -0.339000
     22 C08        -0.7430   -0.0990    0.9690 c2        1 3H8     -0.128000
     23 C09        -1.0440    0.1920   -0.3140 c2        1 3H8     -0.100000
     24 N14         2.9010    0.3990    1.7960 na        1 3H8     -0.084000
     25 O19         7.3940   -0.8030    2.9680 o         1 3H8     -0.314000
     26 N20         8.8460    0.7400    2.0030 ns        1 3H8     -0.271000
     27 C25        11.5150   -0.0820   -0.0200 c1        1 3H8     -0.151000
     28 Cl         11.1320    2.3640    1.1630 cl        1 3H8     -0.088000
     29 N29         3.2560   -0.5250    2.7120 n2        1 3H8     -0.055000
     30 H1         -0.2950    0.1670   -1.1220 ha        1 3H8      0.152500
     31 H2          1.8850    2.7760    1.0670 ha        1 3H8      0.196000
     32 H3          0.8130   -1.3740    1.8250 ha        1 3H8      0.179000
     33 H4          3.9220    1.8750    0.5390 h4        1 3H8      0.189000
     34 H5          9.7710   -1.8830    2.8660 hc        1 3H8      0.122500
     35 H6         11.2780   -3.1930    1.4090 ha        1 3H8      0.149000
     36 H7          8.8240   -1.8570    1.3230 hc        1 3H8      0.122500
     37 H8         -5.6190   -0.4520    5.4550 h4        1 3H8      0.162000
     38 H9         -4.2880   -0.3240    3.3430 ha        1 3H8      0.181000
     39 H10         5.1590   -1.0950    3.5420 h4        1 3H8      0.217000
     40 H11        -2.3900    0.5080    8.8020 hc        1 3H8      0.093000
     41 H12        -2.2790   -1.3000    8.7350 hc        1 3H8      0.093000
     42 H13        -0.9040   -0.2840    8.1200 hc        1 3H8      0.093000
     43 H14        -0.7080   -0.2210    5.8540 ha        1 3H8      0.140000
     44 H15        -0.5330   -0.1280    3.5260 hn        1 3H8      0.242000
     45 H16        -2.0810    0.4010   -0.6240 ha        1 3H8      0.152500
     46 H17         6.6080    1.7300    1.1730 hn        1 3H8      0.247000
     47 H18         8.9580    1.7390    1.9390 hn        1 3H8      0.268000
     48 H19        12.0280    0.4050    2.0490 h1        1 3H8      0.181000
     49 C06        -1.8630   -0.1830    1.9680 c2        1 3H8      0.349000
     50 N17         6.4520    1.0050    1.8400 ns        1 3H8     -0.270000
     51 C01        -2.0160   -0.3550    8.1970 c3        1 3H8     -0.173000
@<TRIPOS>BOND
     1    1    3 1   
     2    2   25 1   
     3    2   26 1   
     4    2   50 1   
     5    3    4 1   
     6    3   31 1   
     7    4    5 1   
     8    4   24 1   
     9    5   22 1   
    10    5   32 1   
    11    6    7 1   
    12    6   16 1   
    13    6   50 1   
    14    7   24 1   
    15    7   33 1   
    16    8    9 1   
    17    8   10 1   
    18    8   35 1   
    19    9   27 1   
    20   10   11 1   
    21   10   34 1   
    22   10   36 1   
    23   11   12 1   
    24   11   26 1   
    25   12   27 1   
    26   12   28 1   
    27   12   48 1   
    28   13   14 1   
    29   13   15 1   
    30   13   37 1   
    31   14   19 1   
    32   14   38 1   
    33   15   17 1   
    34   16   29 1   
    35   16   39 1   
    36   17   18 1   
    37   17   51 1   
    38   18   19 1   
    39   18   43 1   
    40   19   20 1   
    41   20   44 1   
    42   20   49 1   
    43   21   49 1   
    44   22   23 1   
    45   22   49 1   
    46   23   30 1   
    47   23   45 1   
    48   24   29 1   
    49   26   47 1   
    50   40   51 1   
    51   41   51 1   
    52   42   51 1   
    53   46   50 1   
@<TRIPOS>SUBSTRUCTURE
     1 3H8         1 TEMP              0 ****  ****    0 ROOT
