@<TRIPOS>MOLECULE
3HA
   17    17     1     0     0
SMALL
bcc


@<TRIPOS>ATOM
      1 O8         -0.6910   -0.0380   -2.8500 o         1 3HA     -0.833800
      2 C7          0.1900   -0.1000   -1.9480 c         1 3HA      0.906200
      3 O9          1.4270   -0.2230   -2.1910 o         1 3HA     -0.833800
      4 C2         -0.2780   -0.0280   -0.4980 ca        1 3HA     -0.127600
      5 C1         -1.6530   -0.1060   -0.2500 ca        1 3HA     -0.132000
      6 C6         -2.1540   -0.0550    1.0460 ca        1 3HA     -0.139000
      7 C5         -1.2890    0.0850    2.1280 ca        1 3HA     -0.185000
      8 C4          0.0890    0.1710    1.8950 ca        1 3HA      0.109100
      9 O11         0.8740    0.3040    3.0240 oh        1 3HA     -0.533100
     10 C3          0.6210    0.1130    0.5800 ca        1 3HA      0.012600
     11 N10         2.0360    0.2160    0.4130 nh        1 3HA     -0.797200
     12 H1         -2.3250   -0.2070   -1.1180 ha        1 3HA      0.154000
     13 H6         -3.2370   -0.1210    1.2230 ha        1 3HA      0.107000
     14 H5         -1.6650    0.1290    3.1580 ha        1 3HA      0.121000
     15 H11         1.7910    0.4260    2.7380 ho        1 3HA      0.430000
     16 H101        2.3720   -0.6730    0.0760 hn        1 3HA      0.370300
     17 H102        2.2170    0.8760   -0.3290 hn        1 3HA      0.370300
@<TRIPOS>BOND
     1    1    2 1   
     2    2    3 1   
     3    2    4 1   
     4    4    5 ar  
     5    4   10 ar  
     6    5    6 ar  
     7    5   12 1   
     8    6    7 ar  
     9    6   13 1   
    10    7    8 ar  
    11    7   14 1   
    12    8    9 1   
    13    8   10 ar  
    14    9   15 1   
    15   10   11 1   
    16   11   16 1   
    17   11   17 1   
@<TRIPOS>SUBSTRUCTURE
     1 3HA         1 TEMP              0 ****  ****    0 ROOT
