@<TRIPOS>MOLECULE
3HA
   17    15     1     0     0
SMALL
bcc


@<TRIPOS>ATOM
      1 O8         -2.4700   -0.5140    2.0600 o         1 3HA     -0.568500
      2 C7         -1.2110   -0.5140    2.0600 c2        1 3HA      0.355000
      3 O9         -0.5810   -0.5140    3.1500 o         1 3HA     -0.568500
      4 C2         -0.4540   -0.5140    0.7500 c2        1 3HA     -0.107000
      5 C1         -0.1970   -1.7100    0.0980 c1        1 3HA     -0.132000
      6 C6          0.4960   -1.7100   -1.1030 c1        1 3HA     -0.162000
      7 C5          0.9320   -0.5140   -1.6510 c1        1 3HA     -0.162000
      8 C4          0.6750    0.6820   -0.9990 c1        1 3HA      0.064000
      9 O11         1.1380    1.8930   -1.5440 oh        1 3HA     -0.287000
     10 C3         -0.0180    0.6820    0.2010 c2        1 3HA     -0.069000
     11 N10        -0.2920    1.9070    0.8620 n3        1 3HA     -0.306000
     12 H1         -0.5040   -2.5520    0.4840 ha        1 3HA      0.154000
     13 H6          0.6600   -2.5510   -1.5710 ha        1 3HA      0.114000
     14 H5          1.4200   -0.5140   -2.4960 ha        1 3HA      0.114000
     15 H11         1.1560    1.8320   -2.4290 ho        1 3HA      0.229000
     16 H101        0.3520    2.3030    1.3720 hn        1 3HA      0.165500
     17 H102       -1.1020    2.3110    0.7560 hn        1 3HA      0.165500
@<TRIPOS>BOND
     1    1    2 1   
     2    2    3 1   
     3    2    4 1   
     4    4    5 1   
     5    4   10 1   
     6    5   12 1   
     7    6    7 1   
     8    6   13 1   
     9    7   14 1   
    10    8    9 1   
    11    8   10 1   
    12    9   15 1   
    13   10   11 1   
    14   11   16 1   
    15   11   17 1   
@<TRIPOS>SUBSTRUCTURE
     1 3HA         1 TEMP              0 ****  ****    0 ROOT
