@<TRIPOS>MOLECULE
3HA
   17    17     1     0     0
SMALL
bcc


@<TRIPOS>ATOM
      1 O8          0.1420   -0.0470   -0.0200 o         1 3HA     -0.833800
      2 C7          1.4040   -0.0300    0.0250 c         1 3HA      0.906200
      3 O9          2.0600   -0.0120    1.1090 o         1 3HA     -0.833800
      4 C2          2.1590   -0.0270   -1.3000 ca        1 3HA     -0.127600
      5 C1          1.4230    0.1820   -2.4710 ca        1 3HA     -0.132000
      6 C6          2.0420    0.2060   -3.7160 ca        1 3HA     -0.139000
      7 C5          3.4170    0.0140   -3.8190 ca        1 3HA     -0.185000
      8 C4          4.1660   -0.2030   -2.6560 ca        1 3HA      0.108100
      9 O11         5.5230   -0.3810   -2.8490 oh        1 3HA     -0.533100
     10 C3          3.5530   -0.2240   -1.3750 ca        1 3HA      0.013600
     11 N10         4.3750   -0.4600   -0.2310 nh        1 3HA     -0.797200
     12 H1          0.3330    0.3230   -2.3740 ha        1 3HA      0.154000
     13 H6          1.4490    0.3750   -4.6260 ha        1 3HA      0.107000
     14 H5          3.9240    0.0280   -4.7920 ha        1 3HA      0.121000
     15 H11         5.9200   -0.5990   -1.9940 ho        1 3HA      0.430000
     16 H101        4.4060    0.3920    0.3070 hn        1 3HA      0.370800
     17 H102        3.9100   -1.1380    0.3550 hn        1 3HA      0.370800
@<TRIPOS>BOND
     1    1    2 1   
     2    2    3 1   
     3    2    4 1   
     4    4    5 ar  
     5    4   10 ar  
     6    5    6 ar  
     7    5   12 1   
     8    6    7 ar  
     9    6   13 1   
    10    7    8 ar  
    11    7   14 1   
    12    8    9 1   
    13    8   10 ar  
    14    9   15 1   
    15   10   11 1   
    16   11   16 1   
    17   11   17 1   
@<TRIPOS>SUBSTRUCTURE
     1 3HA         1 TEMP              0 ****  ****    0 ROOT
