@<TRIPOS>MOLECULE
3HA
   18    18     1     0     0
SMALL
bcc


@<TRIPOS>ATOM
      1 O8          0.6090    0.8620    0.3480 o         1 3HA     -0.485000
      2 C7          1.5020    0.0790    0.0220 c         1 3HA      0.641700
      3 O9          1.8030   -0.8330    0.9950 oh        1 3HA     -0.585100
      4 C2          2.2270    0.0440   -1.2620 ca        1 3HA     -0.216600
      5 C1          1.4740    0.0060   -2.4420 ca        1 3HA     -0.072000
      6 C6          2.1000   -0.0250   -3.6810 ca        1 3HA     -0.143000
      7 C5          3.4930    0.0050   -3.7570 ca        1 3HA     -0.150000
      8 C4          4.2540    0.0670   -2.5910 ca        1 3HA      0.056100
      9 O11         5.6350    0.1330   -2.6170 oh        1 3HA     -0.509100
     10 C3          3.6410    0.0780   -1.3000 ca        1 3HA      0.161600
     11 N10         4.4020    0.0450   -0.1330 nh        1 3HA     -0.823200
     12 H1          0.3750    0.0070   -2.3710 ha        1 3HA      0.153000
     13 H6          1.5030   -0.0660   -4.6030 ha        1 3HA      0.144000
     14 H5          3.9930   -0.0110   -4.7370 ha        1 3HA      0.139000
     15 H11         5.9140    0.0920   -3.5430 ho        1 3HA      0.427000
     16 H101        3.9850    0.4980    0.6510 hn        1 3HA      0.411300
     17 H102        2.4330   -1.4870    0.6590 ho        1 3HA      0.440000
     18 H103        5.3670    0.2640   -0.2630 hn        1 3HA      0.411300
@<TRIPOS>BOND
     1    1    2 2   
     2    2    3 1   
     3    2    4 1   
     4    3   17 1   
     5    4    5 ar  
     6    4   10 ar  
     7    5    6 ar  
     8    5   12 1   
     9    6    7 ar  
    10    6   13 1   
    11    7    8 ar  
    12    7   14 1   
    13    8    9 1   
    14    8   10 ar  
    15    9   15 1   
    16   10   11 1   
    17   11   16 1   
    18   11   18 1   
@<TRIPOS>SUBSTRUCTURE
     1 3HA         1 TEMP              0 ****  ****    0 ROOT
