@<TRIPOS>MOLECULE
3HA
   17    17     1     0     0
SMALL
bcc


@<TRIPOS>ATOM
      1 O8          0.1330   -0.0190   -0.0300 o         1 3HA     -0.833800
      2 C7          1.3950   -0.0090    0.0210 c         1 3HA      0.906200
      3 O9          2.0470    0.0130    1.1060 o         1 3HA     -0.833800
      4 C2          2.1550   -0.0170   -1.3010 ca        1 3HA     -0.127600
      5 C1          1.4230    0.1810   -2.4780 ca        1 3HA     -0.132000
      6 C6          2.0460    0.1930   -3.7200 ca        1 3HA     -0.139000
      7 C5          3.4220    0.0000   -3.8160 ca        1 3HA     -0.185000
      8 C4          4.1670   -0.2050   -2.6490 ca        1 3HA      0.109100
      9 O11         5.5250   -0.3850   -2.8350 oh        1 3HA     -0.533100
     10 C3          3.5490   -0.2150   -1.3700 ca        1 3HA      0.013600
     11 N10         4.3670   -0.4390   -0.2200 nv        1 3HA     -0.797200
     12 H1          0.3330    0.3230   -2.3860 ha        1 3HA      0.154000
     13 H6          1.4570    0.3540   -4.6330 ha        1 3HA      0.107000
     14 H5          3.9330    0.0050   -4.7870 ha        1 3HA      0.121000
     15 H11         5.9190   -0.5910   -1.9750 ho        1 3HA      0.430000
     16 H101        3.9040   -1.1190    0.3650 hn        1 3HA      0.370300
     17 H102        4.3880    0.4150    0.3150 hn        1 3HA      0.370300
@<TRIPOS>BOND
     1    1    2 1   
     2    2    3 1   
     3    2    4 1   
     4    4    5 ar  
     5    4   10 ar  
     6    5    6 ar  
     7    5   12 1   
     8    6    7 ar  
     9    6   13 1   
    10    7    8 ar  
    11    7   14 1   
    12    8    9 1   
    13    8   10 ar  
    14    9   15 1   
    15   10   11 1   
    16   11   16 1   
    17   11   17 1   
@<TRIPOS>SUBSTRUCTURE
     1 3HA         1 TEMP              0 ****  ****    0 ROOT
