@<TRIPOS>MOLECULE
3HB
   15    15     1     0     0
SMALL
bcc


@<TRIPOS>ATOM
      1 C1'         1.9440   -0.3550    0.0360 c         1 3HB      0.907200
      2 O1'         2.1520   -1.6000    0.1100 o         1 3HB     -0.830300
      3 O2'         2.8570    0.5140   -0.0380 o         1 3HB     -0.830300
      4 C1          0.4990    0.1250    0.0370 ca        1 3HB     -0.092600
      5 C2         -0.5430   -0.7990    0.1170 ca        1 3HB     -0.182000
      6 C3         -1.8700   -0.3500    0.1170 ca        1 3HB      0.081100
      7 C4         -2.1730    1.0160    0.0380 ca        1 3HB     -0.185000
      8 C5         -1.1210    1.9290   -0.0420 ca        1 3HB     -0.137000
      9 C6          0.2010    1.4910   -0.0430 ca        1 3HB     -0.137000
     10 O3         -2.9430   -1.2230    0.1950 oh        1 3HB     -0.530100
     11 H2         -0.2960   -1.8710    0.1800 ha        1 3HB      0.153000
     12 H4         -3.2190    1.3460    0.0390 ha        1 3HB      0.119000
     13 H5         -1.3460    3.0030   -0.1050 ha        1 3HB      0.105000
     14 H6          1.0400    2.2020   -0.1050 ha        1 3HB      0.151000
     15 HO3        -2.5760   -2.1160    0.2440 ho        1 3HB      0.408000
@<TRIPOS>BOND
     1    1    2 1   
     2    1    3 1   
     3    1    4 1   
     4    4    5 ar  
     5    4    9 ar  
     6    5    6 ar  
     7    5   11 1   
     8    6    7 ar  
     9    6   10 1   
    10    7    8 ar  
    11    7   12 1   
    12    8    9 ar  
    13    8   13 1   
    14    9   14 1   
    15   10   15 1   
@<TRIPOS>SUBSTRUCTURE
     1 3HB         1 TEMP              0 ****  ****    0 ROOT
