@<TRIPOS>MOLECULE
3HB
   15    12     1     0     0
SMALL
bcc


@<TRIPOS>ATOM
      1 C1'         1.2390   -0.1950    2.1810 c1        1 3HB      0.356000
      2 O1'         0.6250   -0.3800    3.2640 o         1 3HB     -0.562000
      3 O2'         2.4850   -0.0090    2.1880 os        1 3HB     -0.568000
      4 C1          0.4830   -0.2050    0.8710 c2        1 3HB     -0.072000
      5 C2         -0.0270    0.9770    0.3560 c2        1 3HB     -0.182000
      6 C3         -0.7230    0.9680   -0.8420 c1        1 3HB      0.036000
      7 C4         -0.9090   -0.2230   -1.5260 c1        1 3HB     -0.161000
      8 C5         -0.3990   -1.4050   -1.0120 c1        1 3HB     -0.161000
      9 C6          0.2970   -1.3960    0.1870 c1        1 3HB     -0.137000
     10 O3         -1.2660    2.1630   -1.3490 oh        1 3HB     -0.284000
     11 H2          0.1040    1.8160    0.8380 ha        1 3HB      0.153000
     12 H4         -1.3830   -0.2270   -2.3800 ha        1 3HB      0.112000
     13 H5         -0.5300   -2.2430   -1.4940 ha        1 3HB      0.112000
     14 H6          0.6550   -2.2280    0.5490 ha        1 3HB      0.151000
     15 HO3        -0.6520    2.5870   -1.8320 ho        1 3HB      0.207000
@<TRIPOS>BOND
     1    1    2 1   
     2    1    4 1   
     3    4    5 1   
     4    4    9 1   
     5    5    6 1   
     6    5   11 1   
     7    6   10 1   
     8    7    8 1   
     9    7   12 1   
    10    8   13 1   
    11    9   14 1   
    12   10   15 1   
@<TRIPOS>SUBSTRUCTURE
     1 3HB         1 TEMP              0 ****  ****    0 ROOT
