@<TRIPOS>MOLECULE
3HB
   15    15     1     0     0
SMALL
bcc


@<TRIPOS>ATOM
      1 C1'         0.0320    0.0270   -0.0010 c         1 3HB      0.907200
      2 O1'         1.2910    0.1100   -0.0800 o         1 3HB     -0.830300
      3 O2'        -0.6070   -0.0670    1.0840 o         1 3HB     -0.830300
      4 C1         -0.7630    0.0410   -1.3000 ca        1 3HB     -0.092600
      5 C2         -0.0990    0.1440   -2.5220 ca        1 3HB     -0.182000
      6 C3         -0.8390    0.1560   -3.7130 ca        1 3HB      0.081100
      7 C4         -2.2360    0.0670   -3.7000 ca        1 3HB     -0.185000
      8 C5         -2.8860   -0.0350   -2.4700 ca        1 3HB     -0.137000
      9 C6         -2.1610   -0.0480   -1.2810 ca        1 3HB     -0.137000
     10 O3         -0.2320    0.2560   -4.9550 oh        1 3HB     -0.530100
     11 H2          1.0000    0.2130   -2.5240 ha        1 3HB      0.153000
     12 H4         -2.7950    0.0790   -4.6430 ha        1 3HB      0.119000
     13 H5         -3.9830   -0.1050   -2.4460 ha        1 3HB      0.105000
     14 H6         -2.6630   -0.1280   -0.3040 ha        1 3HB      0.151000
     15 HO3         0.7210    0.3080   -4.7990 ho        1 3HB      0.408000
@<TRIPOS>BOND
     1    1    2 1   
     2    1    3 1   
     3    1    4 1   
     4    4    5 ar  
     5    4    9 ar  
     6    5    6 ar  
     7    5   11 1   
     8    6    7 ar  
     9    6   10 1   
    10    7    8 ar  
    11    7   12 1   
    12    8    9 ar  
    13    8   13 1   
    14    9   14 1   
    15   10   15 1   
@<TRIPOS>SUBSTRUCTURE
     1 3HB         1 TEMP              0 ****  ****    0 ROOT
