@<TRIPOS>MOLECULE
3HD
   26    26     1     0     0
SMALL
bcc


@<TRIPOS>ATOM
      1 C1         -0.0640   -0.0820    0.1240 c3        1 3HD      0.095400
      2 C2          1.4580   -0.2320    0.1810 c3        1 3HD      0.086100
      3 O2          2.0950    0.6880   -0.6820 oh        1 3HD     -0.580800
      4 C3          1.9500   -0.1070    1.6300 c3        1 3HD      0.069100
      5 O3          3.3580    0.0960    1.7140 os        1 3HD     -0.423600
      6 CH3         4.1280   -0.9420    1.1300 c3        1 3HD      0.114700
      7 C4          1.3440    1.1220    2.3360 c3        1 3HD      0.123100
      8 O4          1.6020    1.0680    3.7280 oh        1 3HD     -0.594800
      9 C5         -0.1800    1.1370    2.1580 c3        1 3HD      0.094100
     10 O5         -0.5020    1.1080    0.7650 os        1 3HD     -0.423600
     11 C6         -0.7830    2.4340    2.7030 c3        1 3HD      0.141400
     12 O6         -2.1920    2.4010    2.6560 oh        1 3HD     -0.594800
     13 H1         -0.5560   -0.9750    0.5900 h1        1 3HD      0.065700
     14 HC1        -0.4030    0.0440   -0.9400 h1        1 3HD      0.065700
     15 H2          1.7500   -1.2400   -0.2330 h1        1 3HD      0.082700
     16 HO2         1.8960    1.5730   -0.3510 ho        1 3HD      0.411000
     17 H3          1.6750   -1.0430    2.1930 h1        1 3HD      0.058700
     18 H31         3.8320   -1.9380    1.5400 h1        1 3HD      0.041367
     19 H32         4.0130   -0.9270    0.0180 h1        1 3HD      0.041367
     20 H33         5.1810   -0.6950    1.4180 h1        1 3HD      0.041367
     21 H4          1.7950    2.0570    1.9000 h1        1 3HD      0.057700
     22 HO4         2.5610    0.9970    3.8240 ho        1 3HD      0.424000
     23 H5         -0.6400    0.2500    2.6730 h1        1 3HD      0.070700
     24 H61        -0.5190    2.5330    3.7900 h1        1 3HD      0.062700
     25 H62        -0.3920    3.3120    2.1240 h1        1 3HD      0.062700
     26 HO6        -2.4420    2.2770    1.7310 ho        1 3HD      0.410000
@<TRIPOS>BOND
     1    1    2 1   
     2    1   10 1   
     3    1   13 1   
     4    1   14 1   
     5    2    3 1   
     6    2    4 1   
     7    2   15 1   
     8    3   16 1   
     9    4    5 1   
    10    4    7 1   
    11    4   17 1   
    12    5    6 1   
    13    6   18 1   
    14    6   19 1   
    15    6   20 1   
    16    7    8 1   
    17    7    9 1   
    18    7   21 1   
    19    8   22 1   
    20    9   10 1   
    21    9   11 1   
    22    9   23 1   
    23   11   12 1   
    24   11   24 1   
    25   11   25 1   
    26   12   26 1   
@<TRIPOS>SUBSTRUCTURE
     1 3HD         1 TEMP              0 ****  ****    0 ROOT
