@<TRIPOS>MOLECULE
3HD
   26    26     1     0     0
SMALL
bcc


@<TRIPOS>ATOM
      1 C1         -0.0500   -0.0750    0.1080 c3        1 3HD      0.095400
      2 C2          1.4730   -0.2130    0.1730 c3        1 3HD      0.086100
      3 O2          2.1070    0.7230   -0.6750 oh        1 3HD     -0.580800
      4 C3          1.9550   -0.1020    1.6260 c3        1 3HD      0.069100
      5 O3          3.3610    0.1130    1.7210 os        1 3HD     -0.423600
      6 CH3         4.1440   -0.9110    1.1290 c3        1 3HD      0.114700
      7 C4          1.3340    1.1130    2.3440 c3        1 3HD      0.123100
      8 O4          1.5840    1.0430    3.7360 oh        1 3HD     -0.594800
      9 C5         -0.1890    1.1170    2.1570 c3        1 3HD      0.094100
     10 O5         -0.5020    1.1020    0.7620 os        1 3HD     -0.423600
     11 C6         -0.8070    2.4020    2.7150 c3        1 3HD      0.141400
     12 O6         -2.2150    2.3570    2.6590 oh        1 3HD     -0.594800
     13 H1         -0.5370   -0.9790    0.5600 h1        1 3HD      0.065700
     14 HC1        -0.3840    0.0610   -0.9550 h1        1 3HD      0.065700
     15 H2          1.7760   -1.2120   -0.2530 h1        1 3HD      0.082700
     16 HO2         1.8980    1.6030   -0.3340 ho        1 3HD      0.411000
     17 H3          1.6850   -1.0470    2.1760 h1        1 3HD      0.058700
     18 H31         4.0340   -0.8850    0.0160 h1        1 3HD      0.041367
     19 H32         3.8540   -1.9150    1.5260 h1        1 3HD      0.041367
     20 H33         5.1930   -0.6580    1.4250 h1        1 3HD      0.041367
     21 H4          1.7800    2.0570    1.9220 h1        1 3HD      0.057700
     22 HO4         2.5440    0.9800    3.8370 ho        1 3HD      0.424000
     23 H5         -0.6440    0.2190    2.6580 h1        1 3HD      0.070700
     24 H61        -0.5500    2.4890    3.8050 h1        1 3HD      0.062700
     25 H62        -0.4200    3.2900    2.1500 h1        1 3HD      0.062700
     26 HO6        -2.4580    2.2420    1.7310 ho        1 3HD      0.410000
@<TRIPOS>BOND
     1    1    2 1   
     2    1   10 1   
     3    1   13 1   
     4    1   14 1   
     5    2    3 1   
     6    2    4 1   
     7    2   15 1   
     8    3   16 1   
     9    4    5 1   
    10    4    7 1   
    11    4   17 1   
    12    5    6 1   
    13    6   18 1   
    14    6   19 1   
    15    6   20 1   
    16    7    8 1   
    17    7    9 1   
    18    7   21 1   
    19    8   22 1   
    20    9   10 1   
    21    9   11 1   
    22    9   23 1   
    23   11   12 1   
    24   11   24 1   
    25   11   25 1   
    26   12   26 1   
@<TRIPOS>SUBSTRUCTURE
     1 3HD         1 TEMP              0 ****  ****    0 ROOT
