@<TRIPOS>MOLECULE
3HD
   26    26     1     0     0
SMALL
bcc


@<TRIPOS>ATOM
      1 C1         -0.2330    1.7160   -0.9370 c3        1 3HD      0.095400
      2 C2          1.1180    1.1370   -0.5100 c3        1 3HD      0.086100
      3 O2          1.5350    1.6740    0.7290 oh        1 3HD     -0.580800
      4 C3          1.0560   -0.3960   -0.4880 c3        1 3HD      0.069100
      5 O3          2.1530   -0.9790    0.2110 os        1 3HD     -0.423600
      6 CH3         3.4230   -0.6480   -0.3270 c3        1 3HD      0.114700
      7 C4         -0.1900   -0.9080    0.2610 c3        1 3HD      0.123100
      8 O4         -0.3600   -2.2970    0.0440 oh        1 3HD     -0.594800
      9 C5         -1.4500   -0.2090   -0.2660 c3        1 3HD      0.094100
     10 O5         -1.2990    1.2080   -0.1470 os        1 3HD     -0.423600
     11 C6         -2.6740   -0.5750    0.5780 c3        1 3HD      0.141400
     12 O6         -3.8540   -0.0350    0.0250 oh        1 3HD     -0.594800
     13 H1         -0.2600    2.8230   -0.7480 h1        1 3HD      0.065700
     14 HC1        -0.4190    1.4990   -2.0210 h1        1 3HD      0.065700
     15 H2          1.9140    1.4750   -1.2330 h1        1 3HD      0.082700
     16 HO2         0.8940    1.3890    1.3930 ho        1 3HD      0.411000
     17 H3          1.0450   -0.7780   -1.5470 h1        1 3HD      0.058700
     18 H31         4.1360   -1.2980    0.2390 h1        1 3HD      0.041367
     19 H32         3.4650   -0.8760   -1.4200 h1        1 3HD      0.041367
     20 H33         3.6490    0.4320   -0.1450 h1        1 3HD      0.041367
     21 H4         -0.0660   -0.7060    1.3630 h1        1 3HD      0.057700
     22 HO4         0.4630   -2.7190    0.3240 ho        1 3HD      0.424000
     23 H5         -1.6250   -0.4840   -1.3420 h1        1 3HD      0.070700
     24 H61        -2.8130   -1.6890    0.5590 h1        1 3HD      0.062700
     25 H62        -2.5350   -0.2150    1.6320 h1        1 3HD      0.062700
     26 HO6        -3.7400    0.9230   -0.0040 ho        1 3HD      0.410000
@<TRIPOS>BOND
     1    1    2 1   
     2    1   10 1   
     3    1   13 1   
     4    1   14 1   
     5    2    3 1   
     6    2    4 1   
     7    2   15 1   
     8    3   16 1   
     9    4    5 1   
    10    4    7 1   
    11    4   17 1   
    12    5    6 1   
    13    6   18 1   
    14    6   19 1   
    15    6   20 1   
    16    7    8 1   
    17    7    9 1   
    18    7   21 1   
    19    8   22 1   
    20    9   10 1   
    21    9   11 1   
    22    9   23 1   
    23   11   12 1   
    24   11   24 1   
    25   11   25 1   
    26   12   26 1   
@<TRIPOS>SUBSTRUCTURE
     1 3HD         1 TEMP              0 ****  ****    0 ROOT
