@<TRIPOS>MOLECULE
3HD
   26    26     1     0     0
SMALL
bcc


@<TRIPOS>ATOM
      1 C1         -1.2670   -0.5670   -1.5450 c3        1 3HD      0.094400
      2 C2          0.2540   -0.5670   -1.5450 c3        1 3HD      0.085100
      3 O2          0.7190    0.6040   -2.2380 oh        1 3HD     -0.578800
      4 C3          0.8160   -0.5670   -0.1780 c3        1 3HD      0.076100
      5 O3          2.2610   -0.3820   -0.2610 os        1 3HD     -0.398600
      6 CH3         3.0090   -1.5610    0.0080 c3        1 3HD      0.109700
      7 C4          0.2400    0.5130    0.6650 c3        1 3HD      0.118100
      8 O4          0.6940    0.3400    2.0130 oh        1 3HD     -0.570800
      9 C5         -1.2800    0.5080    0.6530 c3        1 3HD      0.059100
     10 O5         -1.8310    0.5010   -0.7030 os        1 3HD     -0.417600
     11 C6         -1.7760    1.7270    1.3710 c3        1 3HD      0.139400
     12 O6         -3.1860    1.7980    1.2640 oh        1 3HD     -0.595800
     13 H1         -1.5820   -1.4300   -1.2140 h1        1 3HD      0.064700
     14 HC1        -1.5820   -0.4460   -2.4610 h1        1 3HD      0.064700
     15 H2          0.5710   -1.3610   -2.0170 h1        1 3HD      0.081700
     16 HO2         0.8830    0.4000   -3.0860 ho        1 3HD      0.412000
     17 H3          0.6300   -1.4290    0.2410 h1        1 3HD      0.041700
     18 H31         2.6910   -2.2860   -0.5620 h1        1 3HD      0.040033
     19 H32         3.9540   -1.3950   -0.1730 h1        1 3HD      0.040033
     20 H33         2.8970   -1.8110    0.9450 h1        1 3HD      0.040033
     21 H4          0.5560    1.3750    0.3330 h1        1 3HD      0.101700
     22 HO4         0.3100   -0.3780    2.3650 ho        1 3HD      0.399000
     23 H5         -1.5960   -0.2860    1.1250 h1        1 3HD      0.053700
     24 H61        -1.5240    1.6740    2.3130 h1        1 3HD      0.065200
     25 H62        -1.3780    2.5240    0.9720 h1        1 3HD      0.065200
     26 HO6        -3.4820    2.5030    1.7160 ho        1 3HD      0.410000
@<TRIPOS>BOND
     1    1    2 1   
     2    1   10 1   
     3    1   13 1   
     4    1   14 1   
     5    2    3 1   
     6    2    4 1   
     7    2   15 1   
     8    3   16 1   
     9    4    5 1   
    10    4    7 1   
    11    4   17 1   
    12    5    6 1   
    13    6   18 1   
    14    6   19 1   
    15    6   20 1   
    16    7    8 1   
    17    7    9 1   
    18    7   21 1   
    19    8   22 1   
    20    9   10 1   
    21    9   11 1   
    22    9   23 1   
    23   11   12 1   
    24   11   24 1   
    25   11   25 1   
    26   12   26 1   
@<TRIPOS>SUBSTRUCTURE
     1 3HD         1 TEMP              0 ****  ****    0 ROOT
