@<TRIPOS>MOLECULE
3HE
   43    39     1     0     0
SMALL
bcc


@<TRIPOS>ATOM
      1 C1         -1.3480    1.5550   -0.2050 c3        1 3HE     -0.254000
      2 C2          2.9330   -0.1050    0.1520 c2        1 3HE     -0.178000
      3 C3          2.8320   -1.3180    0.7040 c2        1 3HE     -0.175000
      4 C4          1.5760   -1.7860    1.3430 c2        1 3HE      0.289000
      5 C5          0.8670   -0.7590    2.1880 c3        1 3HE     -0.127000
      6 C6          0.0350    1.7950    0.1270 c1        1 3HE     -0.086000
      7 C12        -2.4770   -7.1820    4.9930 c2        1 3HE      0.310000
      8 N          -3.7640   -7.0070    4.4730 n         1 3HE     -0.384000
      9 C11        -4.3400   -5.9610    3.7550 c2        1 3HE      0.283000
     10 O1         -5.5010   -6.1370    3.3370 o         1 3HE     -0.345000
     11 C10        -3.6310   -4.6500    3.5030 c3        1 3HE     -0.279000
     12 C13        -1.4120   -6.1310    4.8940 c3        1 3HE     -0.251000
     13 C9         -3.4650   -3.7400    4.6010 c1        1 3HE     -0.069000
     14 C7         -0.2550   -1.2680    2.9140 c1        1 3HE     -0.204000
     15 O3         -0.6650   -4.6740    2.1040 oh        1 3HE     -0.441000
     16 O           1.1600   -2.9410    1.1840 o         1 3HE     -0.330000
     17 C14         3.9410   -2.3020    0.7040 c3        1 3HE     -0.180000
     18 C          -2.1390    2.6940   -0.7940 c3        1 3HE     -0.239000
     19 H1          0.4330    2.8040   -0.0580 ha        1 3HE      0.049000
     20 H2          2.1020    0.6210    0.1460 ha        1 3HE      0.133500
     21 H3         -1.8400    1.1860    0.7460 hc        1 3HE      0.153500
     22 H4          3.8570    0.2300   -0.3390 ha        1 3HE      0.133500
     23 H5          0.5300    0.0810    1.4980 hc        1 3HE      0.147500
     24 H6         -1.3600    0.6660   -0.9060 hc        1 3HE      0.153500
     25 H7          1.6160   -0.3160    2.9040 hc        1 3HE      0.147500
     26 H9         -2.6260   -4.8220    3.0030 hc        1 3HE      0.202000
     27 H10        -4.2410   -4.0800    2.7280 hc        1 3HE      0.202000
     28 H11        -1.1070   -5.9710    3.8270 hc        1 3HE      0.121667
     29 H12        -1.7530   -5.1620    5.3330 hc        1 3HE      0.121667
     30 H13        -0.5170   -6.4830    5.4670 hc        1 3HE      0.121667
     31 H16        -0.0700   -4.8350    1.3650 ho        1 3HE      0.218500
     32 H17        -0.4700   -3.7630    2.3580 ho        1 3HE      0.218500
     33 H18         4.3380   -2.4350    1.7420 hc        1 3HE      0.089333
     34 H19         3.5700   -3.2950    0.3430 hc        1 3HE      0.089333
     35 H20         4.7790   -1.9690    0.0450 hc        1 3HE      0.089333
     36 H21        -3.1900    2.3780   -0.9990 hc        1 3HE      0.079333
     37 H22        -1.6830    3.0370   -1.7540 hc        1 3HE      0.079333
     38 H23        -2.1660    3.5610   -0.0900 hc        1 3HE      0.079333
     39 C8         -1.2000   -1.6830    3.5220 c1        1 3HE     -0.201000
     40 H8         -4.3650   -7.8050    4.5910 hn        1 3HE      0.247000
     41 O2         -2.2550   -8.2720    5.5520 o         1 3HE     -0.338000
     42 H14        -2.0420   -2.0800    4.0520 ha        1 3HE      0.261000
     43 H15        -3.8810   -4.0110    5.5820 ha        1 3HE      0.062000
@<TRIPOS>BOND
     1    1    6 1   
     2    1   18 1   
     3    1   21 1   
     4    1   24 1   
     5    2    3 1   
     6    2   20 1   
     7    2   22 1   
     8    3    4 1   
     9    3   17 1   
    10    4    5 1   
    11    4   16 1   
    12    5   14 1   
    13    5   23 1   
    14    5   25 1   
    15    6   19 1   
    16    7    8 1   
    17    7   12 1   
    18    7   41 1   
    19    8    9 1   
    20    8   40 1   
    21    9   10 1   
    22    9   11 1   
    23   11   13 1   
    24   11   26 1   
    25   11   27 1   
    26   12   28 1   
    27   12   29 1   
    28   12   30 1   
    29   13   43 1   
    30   14   39 1   
    31   15   31 1   
    32   15   32 1   
    33   17   33 1   
    34   17   34 1   
    35   17   35 1   
    36   18   36 1   
    37   18   37 1   
    38   18   38 1   
    39   39   42 1   
@<TRIPOS>SUBSTRUCTURE
     1 3HE         1 TEMP              0 ****  ****    0 ROOT
