@<TRIPOS>MOLECULE
3HE
   43    40     1     0     0
SMALL
bcc


@<TRIPOS>ATOM
      1 C1         -0.0310    1.7340   -0.7360 c1        1 3HE      0.147000
      2 C2          2.8690    0.8210    0.8210 c2        1 3HE     -0.249000
      3 C3          3.4060    1.3450    1.9210 c2        1 3HE     -0.156000
      4 C4          0.8060   -2.1610    0.9350 c2        1 3HE      0.190000
      5 C5         -0.3960   -1.8970    1.8050 c3        1 3HE     -0.209000
      6 C6         -1.3360   -0.9590    1.0770 c3        1 3HE     -0.218000
      7 C12        -3.0000   -7.4530    3.8170 c2        1 3HE      0.323000
      8 N          -3.7240   -6.8910    4.8760 n         1 3HE     -0.371000
      9 C11        -4.1960   -5.6020    5.0890 c2        1 3HE      0.333000
     10 O1         -4.8160   -5.3860    6.1490 o         1 3HE     -0.352000
     11 C10        -3.9980   -4.4750    4.0980 c3        1 3HE     -0.241000
     12 C13        -2.8280   -6.7630    2.4970 c3        1 3HE     -0.242000
     13 C9         -2.5900   -4.1650    3.8990 c1        1 3HE     -0.035000
     14 C7         -1.0830   -3.2020    2.2270 c3        1 3HE      0.067000
     15 O3         -1.6780   -3.8680    1.1220 oh        1 3HE     -0.348000
     16 O           1.0450   -3.2560    0.4230 o         1 3HE     -0.305000
     17 C14         4.7900    1.0970    2.3700 c3        1 3HE     -0.193000
     18 C          -0.2040    2.6640   -1.6310 c2        1 3HE     -0.538000
     19 H1         -2.0910   -0.5470    1.7900 hc        1 3HE      0.093000
     20 H2         -1.8770   -1.5100    0.2700 hc        1 3HE      0.093000
     21 H3          1.8320    1.0300    0.5150 ha        1 3HE      0.117500
     22 H4          3.4250    0.1540    0.1490 ha        1 3HE      0.117500
     23 H5          1.4710   -1.2800    0.7770 h4        1 3HE      0.113000
     24 H6         -0.7710   -0.1040    0.6230 hc        1 3HE      0.093000
     25 H7         -0.0220   -1.3900    2.7400 hc        1 3HE      0.115000
     26 H9         -4.4640   -4.7450    3.1060 hc        1 3HE      0.146500
     27 H10        -4.5760   -3.5860    4.4910 hc        1 3HE      0.146500
     28 H11        -3.8100   -6.4340    2.0820 hc        1 3HE      0.117667
     29 H12        -2.1430   -5.8790    2.5950 hc        1 3HE      0.117667
     30 H13        -2.3620   -7.4870    1.7820 hc        1 3HE      0.117667
     31 H16        -0.3150   -3.8790    2.7010 h1        1 3HE      0.106000
     32 H17        -0.9580   -4.1300    0.5310 ho        1 3HE      0.230000
     33 H18         4.7870    0.6380    3.3900 hc        1 3HE      0.082333
     34 H19         5.3360    0.4110    1.6770 hc        1 3HE      0.082333
     35 H20         5.3540    2.0630    2.4260 hc        1 3HE      0.082333
     36 H21         2.8190    2.0150    2.5730 ha        1 3HE      0.117000
     37 H22         0.5860    3.3690   -1.9400 ha        1 3HE      0.196500
     38 H23        -1.1540    2.8320   -2.1640 ha        1 3HE      0.196500
     39 C8         -2.2190   -2.9320    3.2190 c3        1 3HE     -0.220000
     40 H8         -3.8360   -7.5040    5.6660 hn        1 3HE      0.247000
     41 O2         -2.5380   -8.5930    4.0120 o         1 3HE     -0.343000
     42 H14        -1.8340   -2.2410    4.0260 hc        1 3HE      0.116000
     43 H15        -3.0570   -2.4070    2.6840 hc        1 3HE      0.116000
@<TRIPOS>BOND
     1    1   18 1   
     2    2    3 1   
     3    2   21 1   
     4    2   22 1   
     5    3   17 1   
     6    3   36 1   
     7    4    5 1   
     8    4   16 1   
     9    4   23 1   
    10    5    6 1   
    11    5   14 1   
    12    5   25 1   
    13    6   19 1   
    14    6   20 1   
    15    6   24 1   
    16    7    8 1   
    17    7   12 1   
    18    7   41 1   
    19    8    9 1   
    20    8   40 1   
    21    9   10 1   
    22    9   11 1   
    23   11   13 1   
    24   11   26 1   
    25   11   27 1   
    26   12   28 1   
    27   12   29 1   
    28   12   30 1   
    29   13   39 1   
    30   14   15 1   
    31   14   31 1   
    32   14   39 1   
    33   15   32 1   
    34   17   33 1   
    35   17   34 1   
    36   17   35 1   
    37   18   37 1   
    38   18   38 1   
    39   39   42 1   
    40   39   43 1   
@<TRIPOS>SUBSTRUCTURE
     1 3HE         1 TEMP              0 ****  ****    0 ROOT
