@<TRIPOS>MOLECULE
3HF
   90    79     1     0     0
SMALL
bcc


@<TRIPOS>ATOM
      1 C1          2.5230   -0.3680   -4.5650 c1        1 3HF     -0.128500
      2 C2         -3.3730    0.3730    4.3530 c1        1 3HF     -0.128500
      3 C3          1.1880   -0.2590   -4.8830 c1        1 3HF     -0.128500
      4 C4          3.0020    0.1740   -3.3700 c1        1 3HF     -0.128500
      5 C5         -2.7710   -0.4770    5.2940 c1        1 3HF     -0.128500
      6 C6         -2.3690    5.9740   -8.2690 c1        1 3HF     -0.128500
      7 C7         -2.7850    0.5580    3.1060 c1        1 3HF     -0.128500
      8 C8          0.3130    0.3940   -4.0090 c1        1 3HF     -0.128500
      9 C9          2.1460    0.8120   -2.5170 c1        1 3HF     -0.125000
     10 C10        -2.1230    6.0380   -6.9030 c1        1 3HF     -0.128500
     11 C11        -1.5870   -1.1310    4.9780 c1        1 3HF     -0.128500
     12 C12        -2.1110    4.8030   -8.9680 c1        1 3HF     -0.154000
     13 C13        -1.3570    3.7500   -6.9200 c1        1 3HF     -0.200000
     14 C14         0.1500   -1.1130    1.8050 c1        1 3HF      0.034000
     15 C15        -1.5800   -0.1110    2.7870 c1        1 3HF     -0.020000
     16 C16        -0.8810   -0.2130    1.6130 c1        1 3HF     -0.207000
     17 C17         0.7830    0.9240   -2.8420 c1        1 3HF     -0.079000
     18 C18        -1.6140    4.9150   -6.2260 c1        1 3HF     -0.037000
     19 C19        -0.9900   -0.9420    3.7070 c1        1 3HF     -0.020000
     20 C20        -1.6060    3.6890   -8.3030 c1        1 3HF      0.078000
     21 C21        -0.2630    0.6440    0.4410 c1        1 3HF      0.384000
     22 C22         0.9200   -2.6080    3.6850 c1        1 3HF      0.405000
     23 C23        -0.4430   -7.7920    4.6540 c3        1 3HF     -0.211500
     24 C24         5.4870   -2.7910    6.6750 c3        1 3HF     -0.211500
     25 C25        -0.6650    1.9020   -9.4360 c3        1 3HF     -0.079000
     26 C26        -0.6030    1.4340   -2.4760 c3        1 3HF     -0.143000
     27 C27        -0.7220    4.9790   -4.9410 c3        1 3HF     -0.030000
     28 C28        -0.7450   -6.5010    5.4990 c3        1 3HF     -0.155500
     29 C29         4.1080   -2.0070    6.4090 c3        1 3HF     -0.155500
     30 C30         0.2980   -5.4530    5.1870 c3        1 3HF     -0.191000
     31 C31         3.0090   -3.0360    5.9060 c3        1 3HF     -0.191000
     32 C32        -0.3000   -4.0140    5.4250 c3        1 3HF     -0.038000
     33 C33         1.6550   -2.4750    6.1290 c3        1 3HF     -0.038000
     34 C34        -0.6850    4.4810   -2.5740 c3        1 3HF     -0.098000
     35 C35        -0.5090    2.3650   -1.2930 c3        1 3HF      0.001000
     36 C36        -1.3660    3.6060   -1.5660 c3        1 3HF      0.021000
     37 N37         0.0840   -1.5630    3.0930 n1        1 3HF     -0.196000
     38 N38        -0.9900    1.6980   -0.1100 n3        1 3HF     -0.377000
     39 N39        -1.5580    4.6720   -3.7310 n3        1 3HF     -0.321000
     40 N40         0.7270   -2.9890    5.0770 n3        1 3HF     -0.298000
     41 O41         0.8190    0.3800    0.0140 o         1 3HF     -0.397000
     42 O42         1.7580   -3.1560    3.0230 o         1 3HF     -0.337000
     43 O43        -2.5970    3.2060   -2.0650 oh        1 3HF     -0.329000
     44 O44        -1.7030    2.7700   -9.3660 os        1 3HF     -0.211000
     45 H1          3.1140   -0.8080   -5.1540 ha        1 3HF      0.135300
     46 H2         -4.2230    0.8430    4.5770 ha        1 3HF      0.135300
     47 H3          0.8480   -0.6420   -5.7290 ha        1 3HF      0.135300
     48 H4          3.9680    0.0960   -3.1380 ha        1 3HF      0.135300
     49 H5         -3.1810   -0.6060    6.1690 ha        1 3HF      0.135300
     50 H6         -2.7370    6.7860   -8.7570 ha        1 3HF      0.135300
     51 H7         -3.2210    1.1740    2.4230 ha        1 3HF      0.135300
     52 H8         -0.6160    0.4700   -4.2300 ha        1 3HF      0.135300
     53 H9          2.4770    1.1860   -1.6920 ha        1 3HF      0.168000
     54 H10        -2.2980    6.8290   -6.4330 ha        1 3HF      0.135300
     55 H11        -1.1810   -1.7010    5.6080 ha        1 3HF      0.135300
     56 H12        -2.2790    4.7620   -9.9000 ha        1 3HF      0.149000
     57 H13        -0.9930    2.9480   -6.4390 ha        1 3HF      0.139000
     58 H14         0.7530   -1.4220    1.1320 DU        1 3HF      0.201000
     59 H23        -1.1720   -8.4830    4.8170 hc        1 3HF      0.075167
     60 H23A        0.3890   -8.1470    4.9120 hc        1 3HF      0.075167
     61 H23B       -0.4140   -7.5540    3.6690 hc        1 3HF      0.075167
     62 H24         6.1990   -2.1380    6.9130 hc        1 3HF      0.075167
     63 H24A        5.3670   -3.4220    7.4080 hc        1 3HF      0.075167
     64 H24B        5.7500   -3.2850    5.8560 hc        1 3HF      0.075167
     65 H25        -0.8570    1.2040  -10.1410 h1        1 3HF      0.084000
     66 H25A       -0.5430    1.4620   -8.5600 h1        1 3HF      0.084000
     67 H25B        0.1430    2.3830   -9.6690 h1        1 3HF      0.084000
     68 H26        -1.1860    0.6680   -2.2480 hc        1 3HF      0.100500
     69 H26A       -0.9970    1.9350   -3.2660 hc        1 3HF      0.100500
     70 H27         0.0060    4.3210   -5.0130 h1        1 3HF      0.079000
     71 H27A       -0.3340    5.8960   -4.8530 h1        1 3HF      0.079000
     72 H28        -0.7150   -6.7240    6.4620 hc        1 3HF      0.080500
     73 H28A       -1.6070   -6.1680    5.2790 hc        1 3HF      0.080500
     74 H29         3.8100   -1.5850    7.2340 hc        1 3HF      0.080500
     75 H29A        4.2500   -1.3130    5.7160 hc        1 3HF      0.080500
     76 H30         1.0940   -5.5890    5.7800 hc        1 3HF      0.091500
     77 H30A        0.5710   -5.5360    4.2510 hc        1 3HF      0.091500
     78 H31         3.1340   -3.2010    4.9640 hc        1 3HF      0.091500
     79 H31A        3.0990   -3.8640    6.3920 hc        1 3HF      0.091500
     80 H32        -1.1100   -3.8860    4.8400 h1        1 3HF      0.103250
     81 H32A       -0.5640   -3.9130    6.3920 h1        1 3HF      0.103250
     82 H33         1.3350   -2.7410    6.9940 h1        1 3HF      0.103250
     83 H33A        1.6950   -1.4830    6.0820 h1        1 3HF      0.103250
     84 H34         0.1460    4.0610   -2.8600 h1        1 3HF      0.081500
     85 H34A       -0.4880    5.3520   -2.1670 h1        1 3HF      0.081500
     86 H35         0.4510    2.6400   -1.1550 h1        1 3HF      0.133000
     87 H36        -1.4920    4.0990   -0.7490 h1        1 3HF      0.115000
     88 HN38       -1.7680    1.9640    0.2780 hn        1 3HF      0.238000
     89 HN39       -2.0380    3.9120   -3.8780 hn        1 3HF      0.168000
     90 HO43       -3.2640    3.6770   -1.6470 ho        1 3HF      0.219000
@<TRIPOS>BOND
     1    1    4 1   
     2    1   45 1   
     3    2    7 1   
     4    2   46 1   
     5    3    8 1   
     6    3   47 1   
     7    4   48 1   
     8    5   11 1   
     9    5   49 1   
    10    6   10 1   
    11    6   50 1   
    12    7   51 1   
    13    8   52 1   
    14    9   17 1   
    15    9   53 1   
    16   10   54 1   
    17   11   55 1   
    18   12   20 1   
    19   12   56 1   
    20   13   18 1   
    21   13   57 1   
    22   14   16 1   
    23   14   37 1   
    24   15   19 1   
    25   17   26 1   
    26   18   27 1   
    27   20   44 1   
    28   21   38 1   
    29   21   41 1   
    30   22   40 1   
    31   22   42 1   
    32   23   28 1   
    33   23   59 1   
    34   23   60 1   
    35   23   61 1   
    36   24   29 1   
    37   24   62 1   
    38   24   63 1   
    39   24   64 1   
    40   25   44 1   
    41   25   65 1   
    42   25   66 1   
    43   25   67 1   
    44   26   35 1   
    45   26   68 1   
    46   26   69 1   
    47   27   39 1   
    48   27   70 1   
    49   27   71 1   
    50   28   30 1   
    51   28   72 1   
    52   28   73 1   
    53   29   31 1   
    54   29   74 1   
    55   29   75 1   
    56   30   32 1   
    57   30   76 1   
    58   30   77 1   
    59   31   33 1   
    60   31   78 1   
    61   31   79 1   
    62   32   40 1   
    63   32   80 1   
    64   32   81 1   
    65   33   40 1   
    66   33   82 1   
    67   33   83 1   
    68   34   36 1   
    69   34   39 1   
    70   34   84 1   
    71   34   85 1   
    72   35   36 1   
    73   35   38 1   
    74   35   86 1   
    75   36   43 1   
    76   36   87 1   
    77   38   88 1   
    78   39   89 1   
    79   43   90 1   
@<TRIPOS>SUBSTRUCTURE
     1 3HF         1 TEMP              0 ****  ****    0 ROOT
