@<TRIPOS>MOLECULE
3HF
   90    83     1     0     0
SMALL
bcc


@<TRIPOS>ATOM
      1 C1          5.7090   -0.5860   -1.1270 c1        1 3HF     -0.132000
      2 C2          3.4570    6.2210    4.8230 c1        1 3HF     -0.278000
      3 C3          4.6970   -0.0490   -0.7660 c1        1 3HF     -0.342000
      4 C4         -3.8480   -0.3090    0.9170 c2        1 3HF     -0.168000
      5 C5          3.4280    7.3770    5.1400 c1        1 3HF     -0.278000
      6 C6          1.7810    4.1830    8.4630 c2        1 3HF     -0.063000
      7 C7          3.3790    3.4180    3.9360 c1        1 3HF     -0.447000
      8 C8          3.4960    0.6250   -0.3770 c3        1 3HF      0.114000
      9 C9         -3.2410   -0.5720    2.0320 c1        1 3HF     -0.127000
     10 C10         2.2980    3.8150    7.1020 c3        1 3HF     -0.149000
     11 C11         6.1950    4.9770    3.0480 c2        1 3HF     -0.121000
     12 C12         2.4430    3.5870    9.4470 c1        1 3HF     -0.238000
     13 C13         4.4680    3.2880    8.2800 c2        1 3HF     -0.175000
     14 C14         5.5800    1.9960    1.3580 c2        1 3HF      0.101000
     15 C15         4.2800    3.0760    3.0380 c2        1 3HF     -0.118000
     16 C16         4.3980    1.9060    2.0890 c2        1 3HF     -0.288000
     17 C17        -2.6460   -0.8600    3.1620 c2        1 3HF     -0.030000
     18 C18         3.7830    3.5770    7.1500 c2        1 3HF     -0.097000
     19 C19         5.4830    3.8600    2.7450 c2        1 3HF      0.051000
     20 C20         3.6480    3.0120    9.4640 c2        1 3HF      0.086000
     21 C23        10.0190    5.6090    0.9800 cv        1 3HF     -0.184000
     22 C24         8.6890   -2.7550   -2.3640 c3        1 3HF     -0.254000
     23 C25         3.3800    1.1870   10.8760 c1        1 3HF     -0.053000
     24 C26        -1.7480   -0.0080    3.8240 c1        1 3HF     -0.096000
     25 C28        11.0870    5.5090    0.1560 cv        1 3HF     -0.137000
     26 C29         8.3680   -1.4420   -1.8510 c1        1 3HF     -0.114000
     27 C30        10.5480    4.2140   -0.4510 cv        1 3HF     -0.184000
     28 C31         9.3590   -0.4470   -1.6690 c2        1 3HF     -0.266000
     29 C32         9.4530    4.2880    0.3730 cv        1 3HF     -0.006000
     30 C33         9.0180    0.7630   -1.1790 c2        1 3HF      0.000000
     31 C35        -0.9830    0.7050    4.4100 c1        1 3HF     -0.198000
     32 C36        -0.0880    1.5800    5.1220 c3        1 3HF      0.085000
     33 N37         6.2370    3.1510    1.7180 na        1 3HF     -0.198000
     34 N38         2.7590    0.4480    3.1190 n3        1 3HF     -0.271000
     35 N40         8.3460    3.5150    0.5730 n2        1 3HF     -0.233000
     36 O42         7.3850    5.0080    2.2610 os        1 3HF     -0.162000
     37 O43         1.1610    0.9680    5.4020 oh        1 3HF     -0.365000
     38 O44         4.1710    2.1420   10.4230 os        1 3HF     -0.116000
     39 H1         -4.8270    0.1930    0.8860 ha        1 3HF      0.139000
     40 H2          3.4800    5.1580    4.5220 ha        1 3HF      0.250500
     41 H3          3.6300    1.7430   -0.3790 h1        1 3HF      0.130000
     42 H4         -3.4210   -0.5750   -0.0610 ha        1 3HF      0.139000
     43 H5          3.4030    8.3980    5.4210 ha        1 3HF      0.250500
     44 H6          2.1030    4.6840    6.4100 hc        1 3HF      0.140500
     45 H7          2.4580    2.9210    4.2170 ha        1 3HF      0.087000
     46 H8          2.6270    0.3300   -1.0360 h1        1 3HF      0.130000
     47 H9         -2.8420   -1.8290    3.6640 ha        1 3HF      0.157000
     48 H10         1.8030    2.9110    6.6480 hc        1 3HF      0.140500
     49 H11         6.0700    5.8290    3.7080 h4        1 3HF      0.224000
     50 H12         1.0190    4.9600    8.5690 ha        1 3HF      0.150000
     51 H13         5.5550    3.1610    8.3310 ha        1 3HF      0.150000
     52 H14         6.0270    1.2950    0.6370 h4        1 3HF      0.193000
     53 H23        12.6020    4.0000   -3.3160 ha        1 3HF      0.002083
     54 H23A       12.4780    3.4300   -2.9710 ha        1 3HF      0.002083
     55 H23B        9.6150    6.2500    1.7460 ha        1 3HF      0.165000
     56 H24         8.0810   -2.9230   -3.2940 hc        1 3HF      0.106000
     57 H24A        8.3540   -3.5170   -1.6090 hc        1 3HF      0.106000
     58 H24B        9.7680   -2.9380   -2.6030 hc        1 3HF      0.106000
     59 H25         1.8970    2.8410   11.7070 ha        1 3HF      0.002083
     60 H25A        3.9530    0.6480   11.6730 ha        1 3HF      0.043000
     61 H25B        2.0680    2.5160   12.2810 ha        1 3HF      0.002083
     62 H26         3.4670    0.6000    6.0540 ha        1 3HF      0.002083
     63 H26A        3.4280    1.2780    6.0690 ha        1 3HF      0.002083
     64 H27         1.5060    0.8180   10.1310 h4        1 3HF      0.278000
     65 H27A        4.2750    3.6480    6.1600 ha        1 3HF      0.183000
     66 H28        10.9280    3.5650   -1.2230 ha        1 3HF      0.165000
     67 H28A       11.9880    6.0610   -0.0580 ha        1 3HF      0.159000
     68 H29         7.4540   -0.6620    1.3380 ha        1 3HF      0.002083
     69 H29A        7.6100   -0.6650    0.6780 ha        1 3HF      0.002083
     70 H30        12.3490    1.5890   -1.6300 ha        1 3HF      0.002083
     71 H30A       11.7980    1.3180   -1.9180 ha        1 3HF      0.002083
     72 H31         6.6710   -1.0360   -1.4490 ha        1 3HF      0.314000
     73 H31A       10.4160   -0.6540   -1.9250 ha        1 3HF      0.108000
     74 H32        10.4040    2.7010   -3.4230 ha        1 3HF      0.002083
     75 H32A        9.9880    2.2260   -3.1750 ha        1 3HF      0.002083
     76 H33         7.9780    1.0140   -0.9130 ha        1 3HF      0.136500
     77 H33A        9.7550    1.5660   -1.0120 ha        1 3HF      0.136500
     78 H34        -1.6330    0.6050    9.9200 h1        1 3HF      0.109000
     79 H34A       -0.9860   -1.1130   10.0050 h1        1 3HF      0.109000
     80 H35         2.0050   -0.1990    3.0440 hn        1 3HF      0.281500
     81 H36         0.1750    2.4770    4.4890 h1        1 3HF      0.115500
     82 HN38        2.8940    0.9180    4.0020 hn        1 3HF      0.281500
     83 HN39       -0.5720    1.9250    6.0790 h1        1 3HF      0.115500
     84 HO43        1.0210    0.3130    6.0980 ho        1 3HF      0.234000
     85 C34        -0.7740   -0.0650    9.7120 cx        1 3HF     -0.223000
     86 C21         3.4250    0.8650    2.0380 c2        1 3HF      0.373000
     87 N39         0.0390    0.1820    8.5020 n2        1 3HF     -0.154000
     88 C22         7.4170    3.8590    1.4360 c2        1 3HF      0.258000
     89 C27         0.6020    0.4500    9.6280 cu        1 3HF     -0.140000
     90 O41         3.0250    0.1920    0.9210 os        1 3HF     -0.225000
@<TRIPOS>BOND
     1    1    3 1   
     2    1   72 1   
     3    2    5 1   
     4    2   40 1   
     5    3    8 1   
     6    4    9 1   
     7    4   39 1   
     8    4   42 1   
     9    5   43 1   
    10    6   10 1   
    11    6   12 1   
    12    6   50 1   
    13    7   15 1   
    14    7   45 1   
    15    8   41 1   
    16    8   46 1   
    17    8   90 1   
    18    9   17 1   
    19   10   18 1   
    20   10   44 1   
    21   10   48 1   
    22   11   19 1   
    23   11   36 1   
    24   11   49 1   
    25   12   20 1   
    26   13   18 1   
    27   13   20 1   
    28   13   51 1   
    29   14   16 1   
    30   14   33 1   
    31   14   52 1   
    32   15   16 1   
    33   15   19 1   
    34   16   86 1   
    35   17   24 1   
    36   17   47 1   
    37   18   65 1   
    38   19   33 1   
    39   20   38 1   
    40   21   25 1   
    41   21   29 1   
    42   21   55 1   
    43   22   26 1   
    44   22   56 1   
    45   22   57 1   
    46   22   58 1   
    47   23   38 1   
    48   23   60 1   
    49   24   31 1   
    50   25   27 1   
    51   25   67 1   
    52   26   28 1   
    53   27   29 1   
    54   27   66 1   
    55   28   30 1   
    56   28   73 1   
    57   29   35 1   
    58   30   76 1   
    59   30   77 1   
    60   31   32 1   
    61   32   37 1   
    62   32   81 1   
    63   32   83 1   
    64   33   88 1   
    65   34   80 1   
    66   34   82 1   
    67   34   86 1   
    68   35   88 1   
    69   36   88 1   
    70   37   84 1   
    71   53   54 1   
    72   59   61 1   
    73   62   63 1   
    74   64   89 1   
    75   68   69 1   
    76   70   71 1   
    77   74   75 1   
    78   78   85 1   
    79   79   85 1   
    80   85   87 1   
    81   85   89 1   
    82   86   90 1   
    83   87   89 1   
@<TRIPOS>SUBSTRUCTURE
     1 3HF         1 TEMP              0 ****  ****    0 ROOT
