@<TRIPOS>MOLECULE
3HF
   90    93     1     0     0
SMALL
bcc


@<TRIPOS>ATOM
      1 C1          1.5450    3.5220   -4.4180 ca        1 3HF     -0.130000
      2 C2          2.3770    1.3900    4.6180 ca        1 3HF     -0.146000
      3 C3          1.4600    2.1500   -4.6480 ca        1 3HF     -0.127000
      4 C4          0.5990    4.1490   -3.6060 ca        1 3HF     -0.127000
      5 C5          3.4470    0.4880    4.7200 ca        1 3HF     -0.117000
      6 C6         -7.4870   -1.0790    3.5450 ca        1 3HF     -0.098000
      7 C7          1.6150    1.4780    3.4590 ca        1 3HF     -0.078000
      8 C8          0.4350    1.4050   -4.0680 ca        1 3HF     -0.123500
      9 C9         -0.4290    3.4070   -3.0280 ca        1 3HF     -0.123500
     10 C10        -6.4560   -0.3560    2.9520 ca        1 3HF     -0.157000
     11 C11         3.7990   -0.3520    3.6690 ca        1 3HF     -0.122000
     12 C12        -8.7530   -1.1240    2.9600 ca        1 3HF     -0.201000
     13 C13        -7.9400    0.3090    1.1580 ca        1 3HF     -0.137000
     14 C14         2.1270   -0.5100    0.4170 cc        1 3HF     -0.014400
     15 C15         1.9340    0.6470    2.3880 ca        1 3HF     -0.060800
     16 C16         1.3670    0.4600    1.0630 cd        1 3HF     -0.185400
     17 C17        -0.5180    2.0270   -3.2530 ca        1 3HF     -0.072300
     18 C18        -6.6830    0.3400    1.7580 ca        1 3HF     -0.065300
     19 C19         3.0430   -0.2690    2.4940 ca        1 3HF      0.005600
     20 C20        -8.9730   -0.4290    1.7660 ca        1 3HF      0.119100
     21 C23         4.7950   -6.4300   -3.1120 c3        1 3HF     -0.093100
     22 C24         7.7070    1.3050   -1.5420 c3        1 3HF     -0.093100
     23 C25       -11.2480   -1.1250    1.6810 c3        1 3HF      0.113700
     24 C26        -1.6270    1.2360   -2.6580 c3        1 3HF     -0.048100
     25 C28         5.2860   -5.6370   -1.9280 c3        1 3HF     -0.079400
     26 C29         6.4090    0.6140   -1.8710 c3        1 3HF     -0.079400
     27 C30         4.5520   -4.3180   -1.8070 c3        1 3HF     -0.099400
     28 C31         6.1180   -0.5040   -0.8930 c3        1 3HF     -0.099400
     29 C32         5.0870   -3.5410   -0.6030 c3        1 3HF      0.066000
     30 C33         4.8010   -1.1910   -1.2570 c3        1 3HF      0.066000
     31 C35        -1.6240    1.2560   -1.1180 c3        1 3HF      0.078700
     32 C36        -2.9000    0.5570   -0.5700 c3        1 3HF      0.067100
     33 N37         3.1610   -0.9550    1.2590 n         1 3HF     -0.246200
     34 N38        -0.4190    0.6690   -0.5810 n         1 3HF     -0.556900
     35 N40         4.3860   -2.2800   -0.3920 n         1 3HF     -0.440800
     36 O42         4.6370   -2.5860    1.9220 o         1 3HF     -0.576100
     37 O43        -3.0600   -0.7420   -1.1100 oh        1 3HF     -0.597800
     38 O44       -10.1790   -0.3980    1.0900 os        1 3HF     -0.327900
     39 H1          2.3550    4.1100   -4.8740 ha        1 3HF      0.131000
     40 H2          2.1400    2.0390    5.4750 ha        1 3HF      0.134000
     41 H3          2.2030    1.6530   -5.2890 ha        1 3HF      0.131000
     42 H4          0.6630    5.2310   -3.4210 ha        1 3HF      0.131000
     43 H5          4.0240    0.4430    5.6570 ha        1 3HF      0.134000
     44 H6         -7.3050   -1.6230    4.4840 ha        1 3HF      0.132000
     45 H7          0.7770    2.1870    3.3650 ha        1 3HF      0.163000
     46 H8          0.3740    0.3220   -4.2550 ha        1 3HF      0.130000
     47 H9         -1.1720    3.9050   -2.3870 ha        1 3HF      0.130000
     48 H10        -5.4620   -0.3320    3.4230 ha        1 3HF      0.135000
     49 H11         4.6300   -1.0670    3.7550 ha        1 3HF      0.161000
     50 H12        -9.5560   -1.7000    3.4400 ha        1 3HF      0.136000
     51 H13        -8.1390    0.8500    0.2220 ha        1 3HF      0.162000
     52 H14         2.0040   -0.9330   -0.5850 h4        1 3HF      0.181000
     53 H23         4.9550   -5.8630   -4.0610 hc        1 3HF      0.035700
     54 H23A        5.3440   -7.3990   -3.1830 hc        1 3HF      0.035700
     55 H23B        3.7040   -6.6490   -3.0150 hc        1 3HF      0.035700
     56 H24         8.5600    0.5840   -1.5820 hc        1 3HF      0.035700
     57 H24A        7.9040    2.1260   -2.2730 hc        1 3HF      0.035700
     58 H24B        7.6700    1.7460   -0.5170 hc        1 3HF      0.035700
     59 H25       -12.1010   -0.9540    0.9770 h1        1 3HF      0.043367
     60 H25A      -11.0000   -2.2130    1.7420 h1        1 3HF      0.043367
     61 H25B      -11.4880   -0.7220    2.6950 h1        1 3HF      0.043367
     62 H26        -2.6050    1.6680   -3.0050 hc        1 3HF      0.053200
     63 H26A       -1.5790    0.1740   -3.0210 hc        1 3HF      0.053200
     64 H27        -5.8300    2.2440    1.2620 h1        1 3HF      0.042700
     65 H27A       -4.6250    0.9680    1.7380 h1        1 3HF      0.042700
     66 H28         5.1410   -6.2350   -0.9890 hc        1 3HF      0.041950
     67 H28A        6.3870   -5.4470   -2.0320 hc        1 3HF      0.041950
     68 H29         5.5700    1.3590   -1.8500 hc        1 3HF      0.041950
     69 H29A        6.4570    0.1980   -2.9130 hc        1 3HF      0.041950
     70 H30         4.6880   -3.7260   -2.7490 hc        1 3HF      0.049700
     71 H30A        3.4530   -4.5070   -1.6870 hc        1 3HF      0.049700
     72 H31         6.9590   -1.2460   -0.9080 hc        1 3HF      0.049700
     73 H31A        6.0580   -0.0880    0.1470 hc        1 3HF      0.049700
     74 H32         4.9740   -4.1880    0.3150 h1        1 3HF      0.060450
     75 H32A        6.1910   -3.3540   -0.7500 h1        1 3HF      0.060450
     76 H33         3.9860   -0.4120   -1.2780 h1        1 3HF      0.060450
     77 H33A        4.8880   -1.6150   -2.2980 h1        1 3HF      0.060450
     78 H34        -3.9600    2.4460   -0.3750 h1        1 3HF      0.059700
     79 H34A       -4.3150    1.5350   -1.9150 h1        1 3HF      0.059700
     80 H35        -1.6610    2.3350   -0.7740 h1        1 3HF      0.096700
     81 H36        -2.7730    0.3710    0.5370 h1        1 3HF      0.088700
     82 HN38       -0.2420   -0.2740   -0.8340 hn        1 3HF      0.308500
     83 HN39       -5.4640   -0.0800   -0.4720 hn        1 3HF      0.371800
     84 HO43       -3.3370   -0.6430   -2.0300 ho        1 3HF      0.399000
     85 C34        -4.1520    1.4240   -0.8050 c3        1 3HF      0.131800
     86 C21         0.2060    1.1930    0.5430 c         1 3HF      0.702300
     87 N39        -5.3860    0.9010   -0.2710 n3        1 3HF     -0.814200
     88 C22         4.1170   -1.9650    0.9740 c         1 3HF      0.773100
     89 C27        -5.5740    1.1490    1.1490 c3        1 3HF      0.202100
     90 O41        -0.1960    2.2560    1.0610 o         1 3HF     -0.612100
@<TRIPOS>BOND
     1    1    3 ar  
     2    1    4 ar  
     3    1   39 1   
     4    2    5 ar  
     5    2    7 ar  
     6    2   40 1   
     7    3    8 ar  
     8    3   41 1   
     9    4    9 ar  
    10    4   42 1   
    11    5   11 ar  
    12    5   43 1   
    13    6   10 ar  
    14    6   12 ar  
    15    6   44 1   
    16    7   15 ar  
    17    7   45 1   
    18    8   17 ar  
    19    8   46 1   
    20    9   17 ar  
    21    9   47 1   
    22   10   18 ar  
    23   10   48 1   
    24   11   19 ar  
    25   11   49 1   
    26   12   20 ar  
    27   12   50 1   
    28   13   18 ar  
    29   13   20 ar  
    30   13   51 1   
    31   14   16 2   
    32   14   33 1   
    33   14   52 1   
    34   15   16 1   
    35   15   19 ar  
    36   16   86 1   
    37   17   24 1   
    38   18   89 1   
    39   19   33 1   
    40   20   38 1   
    41   21   25 1   
    42   21   53 1   
    43   21   54 1   
    44   21   55 1   
    45   22   26 1   
    46   22   56 1   
    47   22   57 1   
    48   22   58 1   
    49   23   38 1   
    50   23   59 1   
    51   23   60 1   
    52   23   61 1   
    53   24   31 1   
    54   24   62 1   
    55   24   63 1   
    56   25   27 1   
    57   25   66 1   
    58   25   67 1   
    59   26   28 1   
    60   26   68 1   
    61   26   69 1   
    62   27   29 1   
    63   27   70 1   
    64   27   71 1   
    65   28   30 1   
    66   28   72 1   
    67   28   73 1   
    68   29   35 1   
    69   29   74 1   
    70   29   75 1   
    71   30   35 1   
    72   30   76 1   
    73   30   77 1   
    74   31   32 1   
    75   31   34 1   
    76   31   80 1   
    77   32   37 1   
    78   32   81 1   
    79   32   85 1   
    80   33   88 1   
    81   34   82 1   
    82   34   86 1   
    83   35   88 1   
    84   36   88 2   
    85   37   84 1   
    86   64   89 1   
    87   65   89 1   
    88   78   85 1   
    89   79   85 1   
    90   83   87 1   
    91   85   87 1   
    92   86   90 2   
    93   87   89 1   
@<TRIPOS>SUBSTRUCTURE
     1 3HF         1 TEMP              0 ****  ****    0 ROOT
