@<TRIPOS>MOLECULE
3HG
   16    15     1     0     0
SMALL
bcc


@<TRIPOS>ATOM
      1 O2         -0.2930   -0.1470    1.8410 oh        1 3HG     -0.671800
      2 O1         -2.7910   -0.6420    0.6650 o         1 3HG     -0.876550
      3 C1         -2.4250    0.1060   -0.2970 c         1 3HG      0.905100
      4 O3         -3.2020    0.3610   -1.2680 o         1 3HG     -0.876550
      5 C2         -1.0500    0.7740   -0.2820 c3        1 3HG     -0.195900
      6 C3          0.0490    0.0220    0.4620 c3        1 3HG      0.171100
      7 C4          1.3710    0.7850    0.4450 c3        1 3HG     -0.195900
      8 C5          2.4430    0.2320   -0.4990 c         1 3HG      0.905100
      9 O4          2.5260   -1.0100   -0.7290 o         1 3HG     -0.876550
     10 O5          3.2700    1.0650   -0.9900 o         1 3HG     -0.876550
     11 HO2        -1.1860   -0.5220    1.8550 ho        1 3HG      0.428000
     12 H21        -1.1860    1.7820    0.1880 hc        1 3HG      0.026450
     13 H22        -0.7180    0.9290   -1.3400 hc        1 3HG      0.026450
     14 H3          0.1920   -0.9970    0.0030 h1        1 3HG      0.055700
     15 H41         1.1880    1.8580    0.1850 hc        1 3HG      0.026450
     16 H42         1.8110    0.7600    1.4770 hc        1 3HG      0.026450
@<TRIPOS>BOND
     1    1    6 1   
     2    1   11 1   
     3    2    3 1   
     4    3    4 1   
     5    3    5 1   
     6    5    6 1   
     7    5   12 1   
     8    5   13 1   
     9    6    7 1   
    10    6   14 1   
    11    7    8 1   
    12    7   15 1   
    13    7   16 1   
    14    8    9 1   
    15    8   10 1   
@<TRIPOS>SUBSTRUCTURE
     1 3HG         1 TEMP              0 ****  ****    0 ROOT
