@<TRIPOS>MOLECULE
3HG
   16    15     1     0     0
SMALL
bcc


@<TRIPOS>ATOM
      1 O2         -1.5070   -0.3610   -0.2010 oh        1 3HG     -0.671800
      2 O1         -0.7990    1.2970   -2.9460 o         1 3HG     -0.876550
      3 C1          0.2070    0.8610   -2.3270 c         1 3HG      0.905100
      4 O3          1.1240    0.2690   -2.9550 o         1 3HG     -0.876550
      5 C2          0.3140    1.0470   -0.8300 c3        1 3HG     -0.195900
      6 C3         -0.1060   -0.2280   -0.1320 c3        1 3HG      0.171100
      7 C4          0.3250   -0.1750    1.3170 c3        1 3HG     -0.195900
      8 C5          0.0560   -1.5120    1.9730 c         1 3HG      0.905100
      9 O4          0.9020   -2.4390    1.8820 o         1 3HG     -0.876550
     10 O5         -1.0150   -1.6970    2.6080 o         1 3HG     -0.876550
     11 HO2        -1.8910    0.3470    0.1740 ho        1 3HG      0.428000
     12 H21         1.2390    1.2580   -0.5930 hc        1 3HG      0.026450
     13 H22        -0.2700    1.7790   -0.5500 hc        1 3HG      0.026450
     14 H3          0.3160   -0.9940   -0.5700 h1        1 3HG      0.055700
     15 H41        -0.1780    0.5230    1.7820 hc        1 3HG      0.026450
     16 H42         1.2810    0.0250    1.3660 hc        1 3HG      0.026450
@<TRIPOS>BOND
     1    1    6 1   
     2    1   11 1   
     3    2    3 1   
     4    3    4 1   
     5    3    5 1   
     6    5    6 1   
     7    5   12 1   
     8    5   13 1   
     9    6    7 1   
    10    6   14 1   
    11    7    8 1   
    12    7   15 1   
    13    7   16 1   
    14    8    9 1   
    15    8   10 1   
@<TRIPOS>SUBSTRUCTURE
     1 3HG         1 TEMP              0 ****  ****    0 ROOT
