@<TRIPOS>MOLECULE
3HG
   16    15     1     0     0
SMALL
bcc


@<TRIPOS>ATOM
      1 O2         -0.2820    0.1530    0.2830 oh        1 3HG     -0.671800
      2 O1          3.0250    2.0710   -2.4670 o         1 3HG     -0.876550
      3 C1          2.2430    1.1290   -2.1200 c         1 3HG      0.905100
      4 O3          2.0800    0.0970   -2.8350 o         1 3HG     -0.876550
      5 C2          1.4470    1.3220   -0.8270 c3        1 3HG     -0.195900
      6 C3          1.1010    0.0440   -0.0660 c3        1 3HG      0.171100
      7 C4          1.9650   -0.1260    1.1790 c3        1 3HG     -0.195900
      8 C5          1.6750   -1.3640    2.0290 c         1 3HG      0.905100
      9 O4          0.5050   -1.8610    2.0680 o         1 3HG     -0.876550
     10 O5          2.6220   -1.8430    2.7270 o         1 3HG     -0.876550
     11 HO2        -0.4740   -0.5960    0.8670 ho        1 3HG      0.428000
     12 H21         2.0150    2.0200   -0.1610 hc        1 3HG      0.026450
     13 H22         0.4910    1.8370   -1.1130 hc        1 3HG      0.026450
     14 H3          1.2290   -0.8470   -0.7440 h1        1 3HG      0.055700
     15 H41         3.0390   -0.1530    0.8640 hc        1 3HG      0.026450
     16 H42         1.8240    0.7640    1.8460 hc        1 3HG      0.026450
@<TRIPOS>BOND
     1    1    6 1   
     2    1   11 1   
     3    2    3 1   
     4    3    4 1   
     5    3    5 1   
     6    5    6 1   
     7    5   12 1   
     8    5   13 1   
     9    6    7 1   
    10    6   14 1   
    11    7    8 1   
    12    7   15 1   
    13    7   16 1   
    14    8    9 1   
    15    8   10 1   
@<TRIPOS>SUBSTRUCTURE
     1 3HG         1 TEMP              0 ****  ****    0 ROOT
