@<TRIPOS>MOLECULE
3HG
   16    15     1     0     0
SMALL
bcc


@<TRIPOS>ATOM
      1 O2         -0.2830    0.2380   -0.0630 oh        1 3HG     -0.671800
      2 O1          2.6520    1.4860   -2.9290 o         1 3HG     -0.876550
      3 C1          1.7020    1.0790   -2.1920 c         1 3HG      0.905100
      4 O3          0.5570    0.8110   -2.6770 o         1 3HG     -0.876550
      5 C2          1.9520    0.9760   -0.6870 c3        1 3HG     -0.195900
      6 C3          1.1120   -0.0550    0.0590 c3        1 3HG      0.171100
      7 C4          1.4140   -0.0570    1.5560 c3        1 3HG     -0.195900
      8 C5          2.2490   -1.2360    2.0620 c         1 3HG      0.905100
      9 O4          2.1550   -2.3780    1.5220 o         1 3HG     -0.876550
     10 O5          2.9920   -1.0300    3.0740 o         1 3HG     -0.876550
     11 HO2        -0.4530    0.3590   -1.0090 ho        1 3HG      0.428000
     12 H21         3.0330    0.7390   -0.5210 hc        1 3HG      0.026200
     13 H22         1.7520    1.9920   -0.2570 hc        1 3HG      0.026200
     14 H3          1.2990   -1.0810   -0.3670 h1        1 3HG      0.055700
     15 H41         1.9320    0.8930    1.8410 hc        1 3HG      0.026200
     16 H42         0.4420   -0.0900    2.1160 hc        1 3HG      0.026200
@<TRIPOS>BOND
     1    1    6 1   
     2    1   11 1   
     3    2    3 1   
     4    3    4 1   
     5    3    5 1   
     6    5    6 1   
     7    5   12 1   
     8    5   13 1   
     9    6    7 1   
    10    6   14 1   
    11    7    8 1   
    12    7   15 1   
    13    7   16 1   
    14    8    9 1   
    15    8   10 1   
@<TRIPOS>SUBSTRUCTURE
     1 3HG         1 TEMP              0 ****  ****    0 ROOT
