@<TRIPOS>MOLECULE
3HH
   82    76     1     0     0
SMALL
bcc


@<TRIPOS>ATOM
      1 C1         -3.2350   -0.4700    3.4520 c1        1 3HH     -0.029000
      2 F1         -5.7100   -1.8470   -4.9590 f         1 3HH     -0.100000
      3 N1         -0.1490    1.3430    3.4130 n2        1 3HH     -0.191000
      4 C2         -0.2920    1.1500    2.0590 c1        1 3HH      0.003000
      5 F2         -6.3330    2.3420   -2.9210 f         1 3HH     -0.100000
      6 N2         -5.8030   -1.8670    5.6300 n1        1 3HH     -0.040000
      7 C3         -1.4650    0.4440    1.8470 c1        1 3HH     -0.179000
      8 C4         -2.0460    0.2010    3.0810 c1        1 3HH     -0.053000
      9 C5         -1.5940    0.6510    5.4110 c1        1 3HH     -0.144000
     10 C6         -1.2370    0.7550    4.0480 c1        1 3HH      0.027000
     11 C7         -4.8550   -1.3140    5.2740 c1        1 3HH     -0.092000
     12 C8          2.4400    5.9480    8.4380 c3        1 3HH     -0.211000
     13 C9         -2.7680   -0.0120    5.7770 c1        1 3HH     -0.081000
     14 C10        -3.5870   -0.5720    4.7970 c1        1 3HH     -0.035000
     15 C11         0.8920    2.1240    4.0570 c1        1 3HH      0.398000
     16 N12         0.9230    2.2410    5.5230 n3        1 3HH     -0.288000
     17 C13         1.4860    1.1720    6.3150 c3        1 3HH     -0.104000
     18 C14         0.5900    3.5130    6.1560 c3        1 3HH     -0.042000
     19 C15         1.8350    4.0670    6.8820 c3        1 3HH     -0.191000
     20 C18         1.6240    5.5570    7.1940 c3        1 3HH     -0.155000
     21 O33         1.7400    2.6800    3.3840 o         1 3HH     -0.339000
     22 C34        -1.9890   -0.0430    0.4970 c1        1 3HH      0.381000
     23 N35        -1.3340    0.3760   -0.7210 n3        1 3HH     -0.367000
     24 C36        -1.4260   -0.4270   -1.8930 c3        1 3HH      0.038000
     25 C37        -0.0910   -1.0590   -2.1720 c3        1 3HH      0.008000
     26 C38        -0.2090   -1.9980   -3.3820 c3        1 3HH     -0.113000
     27 N39         1.1150   -2.5050   -3.7380 n3        1 3HH     -0.312000
     28 C42         1.0860   -3.0060   -5.0870 c3        1 3HH     -0.036000
     29 C43         2.4930   -3.0950   -5.6230 c2        1 3HH     -0.062000
     30 O46        -3.0350   -0.6530    0.4400 o         1 3HH     -0.378000
     31 C48        -1.8340    0.4540   -3.0830 c3        1 3HH     -0.138000
     32 C50        -3.3500    0.3400   -3.3100 ca        1 3HH     -0.014000
     33 C53        -4.1930    1.3630   -2.9010 ca        1 3HH     -0.178500
     34 C54        -5.5470    1.2930   -3.1780 ca        1 3HH      0.121000
     35 C55        -6.0590    0.2020   -3.8620 ca        1 3HH     -0.209000
     36 C56        -5.2200   -0.8140   -4.2680 ca        1 3HH      0.121000
     37 C57        -3.8640   -0.7470   -3.9920 ca        1 3HH     -0.178500
     38 O63         0.8480   -0.0610   -2.4470 oh        1 3HH     -0.340000
     39 C67         3.3560   -4.2010   -5.5870 c2        1 3HH     -0.150000
     40 C68         4.6210   -4.1180   -6.1700 c1        1 3HH      0.078000
     41 C69         5.0300   -2.9320   -6.7910 c2        1 3HH     -0.199000
     42 C70         4.1680   -1.8250   -6.8280 c1        1 3HH     -0.099000
     43 C71         2.9020   -1.9070   -6.2440 c1        1 3HH     -0.146000
     44 O76         5.5310   -5.2480   -6.0930 o         1 3HH     -0.211000
     45 C77         5.8000   -5.8700   -7.3680 c3        1 3HH     -0.076000
     46 H1         -3.8480   -0.8070    2.7560 ha        1 3HH      0.183000
     47 H2          0.3130    1.4840    1.3630 DU        1 3HH      0.192000
     48 H5         -1.0220    1.0430    6.0960 ha        1 3HH      0.155000
     49 H8          2.1730    5.3880    9.1920 hc        1 3HH      0.075000
     50 H8A         3.3820    5.8230    8.2600 hc        1 3HH      0.075000
     51 H8B         2.2690    6.9020    8.6590 hc        1 3HH      0.075000
     52 H9         -3.0190   -0.0850    6.7350 ha        1 3HH      0.146000
     53 H13         0.7930    0.8020    6.9060 h1        1 3HH      0.091333
     54 H13A        1.8150    0.4790    5.7320 h1        1 3HH      0.091333
     55 H13B        2.2230    1.5200    6.8550 h1        1 3HH      0.091333
     56 H14        -0.1290    3.3790    6.8020 h1        1 3HH      0.107500
     57 H14A        0.2970    4.1560    5.4670 h1        1 3HH      0.107500
     58 H15         2.6100    3.9620    6.3150 hc        1 3HH      0.092000
     59 H15A        1.9710    3.5770    7.7170 hc        1 3HH      0.092000
     60 H18         1.9180    6.0950    6.4280 hc        1 3HH      0.081500
     61 H18A        0.6900    5.7190    7.3610 hc        1 3HH      0.081500
     62 HN35       -0.8800    1.1760   -0.7470 hn        1 3HH      0.230000
     63 H36        -2.1030   -1.1310   -1.7570 h1        1 3HH      0.133000
     64 H37         0.2020   -1.5760   -1.3810 h1        1 3HH      0.089000
     65 H38        -0.5900   -1.5000   -4.1490 h1        1 3HH      0.084500
     66 H38A       -0.7960   -2.7490   -3.1570 h1        1 3HH      0.084500
     67 HN39        1.3470   -3.1820   -3.1640 hn        1 3HH      0.162000
     68 H42         0.6670   -3.9130   -5.0960 h1        1 3HH      0.082000
     69 H42A        0.5650   -2.4030   -5.6450 h1        1 3HH      0.082000
     70 H48        -1.5970    1.3960   -2.8890 hc        1 3HH      0.108000
     71 H48A       -1.3590    0.1560   -3.8940 hc        1 3HH      0.108000
     72 H53        -3.8190    2.1720   -2.5020 ha        1 3HH      0.153000
     73 H55        -6.9990    0.1820   -4.1100 ha        1 3HH      0.165000
     74 H57        -3.2670   -1.4090   -4.3570 ha        1 3HH      0.153000
     75 HO63        1.6120   -0.2330   -1.9930 ho        1 3HH      0.221000
     76 H67         3.0620   -5.0540   -5.1400 ha        1 3HH      0.150000
     77 H69         5.9150   -2.8750   -7.1980 ha        1 3HH      0.138000
     78 H70         4.4630   -0.9710   -7.2740 ha        1 3HH      0.133000
     79 H71         2.2840   -1.1150   -6.2700 ha        1 3HH      0.144000
     80 H77         6.4020   -5.2860   -7.9020 h1        1 3HH      0.084333
     81 H77A        4.9600   -6.0000   -7.8520 h1        1 3HH      0.084333
     82 H77B        6.2370   -6.7490   -7.2210 h1        1 3HH      0.084333
@<TRIPOS>BOND
     1    1    8 1   
     2    1   46 1   
     3    2   36 1   
     4    3    4 1   
     5    3   10 1   
     6    4    7 1   
     7    5   34 1   
     8    6   11 1   
     9    7    8 1   
    10    9   10 1   
    11    9   48 1   
    12   12   20 1   
    13   12   49 1   
    14   12   50 1   
    15   12   51 1   
    16   13   14 1   
    17   13   52 1   
    18   15   16 1   
    19   15   21 1   
    20   16   17 1   
    21   16   18 1   
    22   17   53 1   
    23   17   54 1   
    24   17   55 1   
    25   18   19 1   
    26   18   56 1   
    27   18   57 1   
    28   19   20 1   
    29   19   58 1   
    30   19   59 1   
    31   20   60 1   
    32   20   61 1   
    33   22   23 1   
    34   22   30 1   
    35   23   24 1   
    36   23   62 1   
    37   24   25 1   
    38   24   31 1   
    39   24   63 1   
    40   25   26 1   
    41   25   38 1   
    42   25   64 1   
    43   26   27 1   
    44   26   65 1   
    45   26   66 1   
    46   27   28 1   
    47   27   67 1   
    48   28   29 1   
    49   28   68 1   
    50   28   69 1   
    51   29   39 1   
    52   29   43 1   
    53   31   32 1   
    54   31   70 1   
    55   31   71 1   
    56   32   33 1   
    57   32   37 1   
    58   33   34 1   
    59   33   72 1   
    60   34   35 1   
    61   35   36 1   
    62   35   73 1   
    63   36   37 1   
    64   37   74 1   
    65   38   75 1   
    66   39   40 1   
    67   39   76 1   
    68   40   41 1   
    69   41   42 1   
    70   41   77 1   
    71   42   78 1   
    72   43   79 1   
    73   44   45 1   
    74   45   80 1   
    75   45   81 1   
    76   45   82 1   
@<TRIPOS>SUBSTRUCTURE
     1 3HH         1 TEMP              0 ****  ****    0 ROOT
