@<TRIPOS>MOLECULE
3HH
   85    88     1     0     0
SMALL
bcc


@<TRIPOS>ATOM
      1 C1          0.9770   -0.6550   -1.2710 ca        1 3HH     -0.095000
      2 F1         -2.0920    2.3840   -3.6680 f         1 3HH     -0.089900
      3 N1          3.4750   -1.7920    1.1120 n         1 3HH     -0.238200
      4 C2          4.3090   -1.5660    0.0120 cc        1 3HH      0.050600
      5 F2          1.6610    4.7520   -1.9270 f         1 3HH     -0.089900
      6 N2         -2.4430   -0.1200   -1.7100 n1        1 3HH     -0.233800
      7 C3          3.5600   -1.0670   -1.0640 cd        1 3HH     -0.211400
      8 C4          2.1680   -0.9940   -0.6410 ca        1 3HH     -0.083800
      9 C5          0.9440   -1.5090    1.4540 ca        1 3HH     -0.086000
     10 C6          2.1360   -1.4440    0.7300 ca        1 3HH      0.016600
     11 C8          6.2360    0.5570    6.2860 c3        1 3HH     -0.103100
     12 C9         -0.2330   -1.1450    0.8020 ca        1 3HH     -0.039000
     13 C10        -0.2190   -0.7320   -0.5450 ca        1 3HH      0.061000
     14 C11         3.8000   -2.2590    2.3970 c         1 3HH      0.653100
     15 N12         5.1960   -2.7910    2.6640 n4        1 3HH     -0.566200
     16 C13         5.1190   -3.9440    3.6110 c3        1 3HH      0.084100
     17 C14         6.0820   -1.6900    3.1990 c3        1 3HH      0.113800
     18 C15         5.7000   -1.1700    4.5780 c3        1 3HH     -0.111400
     19 C18         6.5580    0.0410    4.9060 c3        1 3HH     -0.075400
     20 O33         2.9990   -2.2680    3.3290 o         1 3HH     -0.394100
     21 C34         4.1570   -0.7410   -2.3370 c         1 3HH      0.607300
     22 N35         3.5230    0.3670   -3.1380 n4        1 3HH     -0.674800
     23 C36         3.0370   -0.0170   -4.5160 c3        1 3HH      0.120500
     24 C37         4.1890   -0.6020   -5.3890 c3        1 3HH      0.110100
     25 C38         3.7870   -0.6190   -6.8810 c3        1 3HH      0.092800
     26 N39         4.8620   -1.1480   -7.7590 n4        1 3HH     -0.771000
     27 C42         4.4810   -1.0750   -9.2260 c3        1 3HH      0.189100
     28 C43         5.5250   -1.7360  -10.0510 ca        1 3HH     -0.175300
     29 O46         5.1760   -1.2280   -2.8250 o         1 3HH     -0.473100
     30 C48         2.3890    1.2070   -5.1900 c3        1 3HH     -0.062100
     31 C50         1.4790    1.9810   -4.3000 ca        1 3HH     -0.116300
     32 C53         2.0100    2.9850   -3.4820 ca        1 3HH     -0.215000
     33 C54         1.1430    3.7900   -2.7170 ca        1 3HH      0.196400
     34 C55        -0.2490    3.5980   -2.7690 ca        1 3HH     -0.176000
     35 C56        -0.7630    2.5850   -3.5960 ca        1 3HH      0.196400
     36 C57         0.1030    1.7670   -4.3570 ca        1 3HH     -0.215000
     37 O63         5.3360    0.2190   -5.2790 oh        1 3HH     -0.603800
     38 C67         5.5790   -3.1340  -10.0840 ca        1 3HH     -0.165000
     39 C68         6.5280   -3.7640  -10.9090 ca        1 3HH      0.156100
     40 C69         7.4040   -2.9960  -11.6980 ca        1 3HH     -0.141000
     41 C70         7.3310   -1.6070  -11.6500 ca        1 3HH     -0.074000
     42 C71         6.4030   -0.9690  -10.8240 ca        1 3HH     -0.126000
     43 O76         6.5180   -5.1330  -10.8540 os        1 3HH     -0.321900
     44 C77         7.3540   -5.8210  -11.7900 c3        1 3HH      0.104700
     45 H1          0.9420   -0.3500   -2.3280 ha        1 3HH      0.138000
     46 H2          5.3920   -1.7450    0.0380 h4        1 3HH      0.199000
     47 H5          0.9140   -1.8370    2.5090 ha        1 3HH      0.199000
     48 H8          6.4390   -0.2210    7.0610 hc        1 3HH      0.061033
     49 H8A         5.1630    0.8590    6.3600 hc        1 3HH      0.061033
     50 H8B         6.8700    1.4500    6.5120 hc        1 3HH      0.061033
     51 H9         -1.1940   -1.1880    1.3500 ha        1 3HH      0.203000
     52 H13         4.5580   -4.7880    3.1270 hx        1 3HH      0.128033
     53 H13A        4.5850   -3.6310    4.5530 hx        1 3HH      0.128033
     54 H13B        6.1670   -4.2670    3.8630 hx        1 3HH      0.128033
     55 H14         7.1290   -2.1150    3.2380 hx        1 3HH      0.103700
     56 H14A        6.0520   -0.8500    2.4470 hx        1 3HH      0.103700
     57 H15         4.6150   -0.8830    4.6130 hc        1 3HH      0.080700
     58 H15A        5.8690   -1.9630    5.3540 hc        1 3HH      0.080700
     59 H18         7.6440   -0.2390    4.8540 hc        1 3HH      0.053200
     60 H18A        6.3790    0.8490    4.1490 hc        1 3HH      0.053200
     61 HN35        4.2320    1.1100   -3.2690 hn        1 3HH      0.486300
     62 H36         2.2590   -0.8260   -4.3720 hx        1 3HH      0.116700
     63 H37         4.4010   -1.6530   -5.0380 h1        1 3HH      0.085700
     64 H38         2.8640   -1.2530   -7.0110 hx        1 3HH      0.124700
     65 H38A        3.5730    0.4330   -7.2330 hx        1 3HH      0.124700
     66 HN39        5.7220   -0.6020   -7.6100 hn        1 3HH      0.458800
     67 H42         4.3690    0.0140   -9.4960 hx        1 3HH      0.111700
     68 H42A        3.4870   -1.5950   -9.3410 hx        1 3HH      0.111700
     69 H48         3.1990    1.8870   -5.5760 hc        1 3HH      0.100700
     70 H48A        1.8000    0.8260   -6.0710 hc        1 3HH      0.100700
     71 H53         3.0830    3.2250   -3.4920 ha        1 3HH      0.156500
     72 H55        -0.9280    4.2500   -2.1910 ha        1 3HH      0.207000
     73 H57        -0.3340    1.0020   -5.0160 ha        1 3HH      0.156500
     74 HO63        5.9930   -0.2400   -4.7320 ho        1 3HH      0.454000
     75 H67         4.8750   -3.7550   -9.5130 ha        1 3HH      0.143000
     76 H69         8.1370   -3.4860  -12.3600 ha        1 3HH      0.176000
     77 H70         8.0100   -1.0030  -12.2750 ha        1 3HH      0.173000
     78 H71         6.3520    0.1300  -10.8100 ha        1 3HH      0.146000
     79 H77         8.4290   -5.6110  -11.5750 h1        1 3HH      0.067367
     80 H77A        7.0890   -5.5360  -12.8370 h1        1 3HH      0.067367
     81 H77B        7.1110   -6.8980  -11.5980 h1        1 3HH      0.067367
     82 C7         -1.4420   -0.3940   -1.1870 cg        1 3HH      0.164800
     83 H121        5.6140   -3.1350    1.7900 hn        1 3HH      0.449800
     84 H352        2.7240    0.7760   -2.6200 hn        1 3HH      0.486300
     85 H392        5.0690   -2.1290   -7.5320 hn        1 3HH      0.458800
@<TRIPOS>BOND
     1    1    8 ar  
     2    1   13 ar  
     3    1   45 1   
     4    2   35 1   
     5    3    4 1   
     6    3   10 1   
     7    3   14 1   
     8    4    7 2   
     9    4   46 1   
    10    5   33 1   
    11    6   82 3   
    12    7    8 1   
    13    7   21 1   
    14    8   10 ar  
    15    9   10 ar  
    16    9   12 ar  
    17    9   47 1   
    18   11   19 1   
    19   11   48 1   
    20   11   49 1   
    21   11   50 1   
    22   12   13 ar  
    23   12   51 1   
    24   13   82 1   
    25   14   15 1   
    26   14   20 2   
    27   15   16 1   
    28   15   17 1   
    29   15   83 1   
    30   16   52 1   
    31   16   53 1   
    32   16   54 1   
    33   17   18 1   
    34   17   55 1   
    35   17   56 1   
    36   18   19 1   
    37   18   57 1   
    38   18   58 1   
    39   19   59 1   
    40   19   60 1   
    41   21   22 1   
    42   21   29 2   
    43   22   23 1   
    44   22   61 1   
    45   22   84 1   
    46   23   24 1   
    47   23   30 1   
    48   23   62 1   
    49   24   25 1   
    50   24   37 1   
    51   24   63 1   
    52   25   26 1   
    53   25   64 1   
    54   25   65 1   
    55   26   27 1   
    56   26   66 1   
    57   26   85 1   
    58   27   28 1   
    59   27   67 1   
    60   27   68 1   
    61   28   38 ar  
    62   28   42 ar  
    63   30   31 1   
    64   30   69 1   
    65   30   70 1   
    66   31   32 ar  
    67   31   36 ar  
    68   32   33 ar  
    69   32   71 1   
    70   33   34 ar  
    71   34   35 ar  
    72   34   72 1   
    73   35   36 ar  
    74   36   73 1   
    75   37   74 1   
    76   38   39 ar  
    77   38   75 1   
    78   39   40 ar  
    79   39   43 1   
    80   40   41 ar  
    81   40   76 1   
    82   41   42 ar  
    83   41   77 1   
    84   42   78 1   
    85   43   44 1   
    86   44   79 1   
    87   44   80 1   
    88   44   81 1   
@<TRIPOS>SUBSTRUCTURE
     1 3HH         1 TEMP              0 ****  ****    0 ROOT
