@<TRIPOS>MOLECULE
3HH
   82    85     1     0     0
SMALL
bcc


@<TRIPOS>ATOM
      1 C1         -3.4650    1.7130   -2.4150 ca        1 3HH     -0.032000
      2 F1         -0.1330    6.5950    0.5310 f         1 3HH     -0.133400
      3 N1         -3.6990   -1.3210   -0.4450 n         1 3HH     -0.247200
      4 C2         -2.4080   -0.9050   -0.0770 cc        1 3HH     -0.024400
      5 F2         -2.4270    4.3040    4.0220 f         1 3HH     -0.133400
      6 N2         -5.2230    3.7200   -4.6750 n1        1 3HH     -0.367800
      7 C3         -2.0810    0.2810   -0.7280 cd        1 3HH     -0.176400
      8 C4         -3.2210    0.6510   -1.5490 ca        1 3HH     -0.070800
      9 C5         -5.4730   -0.2810   -1.9770 ca        1 3HH     -0.125000
     10 C6         -4.2290   -0.3580   -1.3360 ca        1 3HH      0.028600
     11 C8         -6.5900   -7.6150    0.1220 c3        1 3HH     -0.093100
     12 C9         -5.6940    0.7890   -2.8310 ca        1 3HH     -0.082000
     13 C10        -4.7070    1.7740   -3.0540 ca        1 3HH     -0.037000
     14 C11        -4.4090   -2.4590    0.0360 c         1 3HH      0.780100
     15 N12        -3.7000   -3.5420    0.5890 n         1 3HH     -0.455800
     16 C13        -2.4110   -3.9370    0.0870 c3        1 3HH      0.063300
     17 C14        -4.4990   -4.5850    1.2090 c3        1 3HH      0.089000
     18 C15        -5.1650   -5.5730    0.2530 c3        1 3HH     -0.111400
     19 C18        -5.9190   -6.6250    1.0380 c3        1 3HH     -0.076400
     20 O33        -5.6570   -2.4370    0.0150 o         1 3HH     -0.581100
     21 C34        -0.8330    1.0520   -0.6480 c         1 3HH      0.707300
     22 N35        -0.0080    0.8060    0.4380 n         1 3HH     -0.567900
     23 C36         1.2920    1.4150    0.5800 c3        1 3HH      0.079700
     24 C37         2.4150    0.3470    0.4520 c3        1 3HH      0.106100
     25 C38         3.7960    1.0120    0.3240 c3        1 3HH      0.139800
     26 N39         4.8130    0.0730   -0.0980 n3        1 3HH     -0.825200
     27 C42         6.1560    0.6200   -0.0350 c3        1 3HH      0.210100
     28 C43         7.2340   -0.4210   -0.1170 ca        1 3HH     -0.068300
     29 O46        -0.5290    1.9080   -1.5040 o         1 3HH     -0.604100
     30 C48         1.4310    2.1790    1.9110 c3        1 3HH     -0.056100
     31 C50         0.4730    3.3120    2.0280 ca        1 3HH     -0.024300
     32 C53        -0.5490    3.2670    2.9790 ca        1 3HH     -0.176500
     33 C54        -1.4370    4.3520    3.1000 ca        1 3HH      0.157900
     34 C55        -1.3100    5.4830    2.2790 ca        1 3HH     -0.206000
     35 C56        -0.2750    5.5110    1.3300 ca        1 3HH      0.157900
     36 C57         0.6170    4.4310    1.2020 ca        1 3HH     -0.176500
     37 O63         2.3810   -0.5770    1.5240 oh        1 3HH     -0.600800
     38 C67         7.1890   -1.4070   -1.1010 ca        1 3HH     -0.136000
     39 C68         8.2320   -2.3500   -1.1760 ca        1 3HH      0.121100
     40 C69         9.3090   -2.3040   -0.2840 ca        1 3HH     -0.201000
     41 C70         9.3360   -1.3070    0.6920 ca        1 3HH     -0.097000
     42 C71         8.3090   -0.3720    0.7810 ca        1 3HH     -0.161000
     43 O76         8.0890   -3.2870   -2.1820 os        1 3HH     -0.325900
     44 C77         9.1400   -4.2370   -2.3090 c3        1 3HH      0.113700
     45 H1         -2.6830    2.4730   -2.5840 ha        1 3HH      0.179000
     46 H2         -1.8190   -1.4900    0.6370 h4        1 3HH      0.179000
     47 H5         -6.2480   -1.0410   -1.7940 ha        1 3HH      0.171000
     48 H8         -7.1430   -8.3800    0.7190 hc        1 3HH      0.036033
     49 H8A        -7.3170   -7.0990   -0.5510 hc        1 3HH      0.036033
     50 H8B        -5.8360   -8.1400   -0.5130 hc        1 3HH      0.036033
     51 H9         -6.6640    0.8760   -3.3470 ha        1 3HH      0.148000
     52 H13        -1.6340   -3.7230    0.8710 h1        1 3HH      0.049367
     53 H13A       -2.3980   -5.0410   -0.1280 h1        1 3HH      0.049367
     54 H13B       -2.1340   -3.4010   -0.8580 h1        1 3HH      0.049367
     55 H14        -3.8110   -5.1440    1.9060 h1        1 3HH      0.066200
     56 H14A       -5.3010   -4.0840    1.8240 h1        1 3HH      0.066200
     57 H15        -5.8740   -5.0200   -0.4190 hc        1 3HH      0.053700
     58 H15A       -4.3970   -6.0680   -0.3970 hc        1 3HH      0.053700
     59 H18        -6.6900   -6.1270    1.6850 hc        1 3HH      0.041200
     60 H18A       -5.2110   -7.1640    1.7220 hc        1 3HH      0.041200
     61 HN35       -0.2290    0.0810    1.0760 hn        1 3HH      0.311500
     62 H36         1.4260    2.1550   -0.2680 h1        1 3HH      0.103700
     63 H37         2.2150   -0.2920   -0.4590 h1        1 3HH      0.103700
     64 H38         3.7370    1.8250   -0.4540 h1        1 3HH      0.036200
     65 H38A        4.0560    1.5020    1.3110 h1        1 3HH      0.036200
     66 HN39        4.7410   -0.7850    0.4180 hn        1 3HH      0.374800
     67 H42         6.2680    1.3200   -0.9150 h1        1 3HH      0.040200
     68 H42A        6.3160    1.2370    0.9010 h1        1 3HH      0.040200
     69 H48         1.2910    1.4710    2.7720 hc        1 3HH      0.056200
     70 H48A        2.4760    2.5860    1.9700 hc        1 3HH      0.056200
     71 H53        -0.6720    2.3930    3.6340 ha        1 3HH      0.152000
     72 H55        -2.0060    6.3280    2.3740 ha        1 3HH      0.167000
     73 H57         1.4130    4.4710    0.4450 ha        1 3HH      0.152000
     74 HO63        2.6760   -0.1160    2.3190 ho        1 3HH      0.398000
     75 H67         6.3580   -1.4600   -1.8190 ha        1 3HH      0.164000
     76 H69        10.1260   -3.0360   -0.3400 ha        1 3HH      0.138000
     77 H70        10.1790   -1.2640    1.3970 ha        1 3HH      0.132000
     78 H71         8.3440    0.4070    1.5560 ha        1 3HH      0.132000
     79 H77         8.8190   -4.8660   -3.1770 h1        1 3HH      0.044367
     80 H77A       10.1090   -3.7270   -2.5300 h1        1 3HH      0.044367
     81 H77B        9.2260   -4.8570   -1.3840 h1        1 3HH      0.044367
     82 C7         -4.9890    2.8450   -3.9450 cg        1 3HH      0.237800
@<TRIPOS>BOND
     1    1    8 ar  
     2    1   13 ar  
     3    1   45 1   
     4    2   35 1   
     5    3    4 1   
     6    3   10 1   
     7    3   14 1   
     8    4    7 2   
     9    4   46 1   
    10    5   33 1   
    11    6   82 3   
    12    7    8 1   
    13    7   21 1   
    14    8   10 ar  
    15    9   10 ar  
    16    9   12 ar  
    17    9   47 1   
    18   11   19 1   
    19   11   48 1   
    20   11   49 1   
    21   11   50 1   
    22   12   13 ar  
    23   12   51 1   
    24   13   82 1   
    25   14   15 1   
    26   14   20 2   
    27   15   16 1   
    28   15   17 1   
    29   16   52 1   
    30   16   53 1   
    31   16   54 1   
    32   17   18 1   
    33   17   55 1   
    34   17   56 1   
    35   18   19 1   
    36   18   57 1   
    37   18   58 1   
    38   19   59 1   
    39   19   60 1   
    40   21   22 1   
    41   21   29 2   
    42   22   23 1   
    43   22   61 1   
    44   23   24 1   
    45   23   30 1   
    46   23   62 1   
    47   24   25 1   
    48   24   37 1   
    49   24   63 1   
    50   25   26 1   
    51   25   64 1   
    52   25   65 1   
    53   26   27 1   
    54   26   66 1   
    55   27   28 1   
    56   27   67 1   
    57   27   68 1   
    58   28   38 ar  
    59   28   42 ar  
    60   30   31 1   
    61   30   69 1   
    62   30   70 1   
    63   31   32 ar  
    64   31   36 ar  
    65   32   33 ar  
    66   32   71 1   
    67   33   34 ar  
    68   34   35 ar  
    69   34   72 1   
    70   35   36 ar  
    71   36   73 1   
    72   37   74 1   
    73   38   39 ar  
    74   38   75 1   
    75   39   40 ar  
    76   39   43 1   
    77   40   41 ar  
    78   40   76 1   
    79   41   42 ar  
    80   41   77 1   
    81   42   78 1   
    82   43   44 1   
    83   44   79 1   
    84   44   80 1   
    85   44   81 1   
@<TRIPOS>SUBSTRUCTURE
     1 3HH         1 TEMP              0 ****  ****    0 ROOT
