@<TRIPOS>MOLECULE
3HI
   77    80     1     0     0
SMALL
bcc


@<TRIPOS>ATOM
      1 N1          0.8160   -0.7890   -0.5420 na        1 3HI     -0.026100
      2 C5          2.1760   -0.5160   -0.2820 cc        1 3HI     -0.031300
      3 C6         -1.2300   -1.6450    0.7170 c3        1 3HI     -0.035400
      4 C7          0.1560   -0.5320   -1.8050 c3        1 3HI      0.013300
      5 C8         -0.2580   -1.7820   -2.5820 c3        1 3HI     -0.102400
      6 C10        -2.4800   -1.8620   -3.8180 c3        1 3HI     -0.122400
      7 C13        -1.8890   -0.9140    1.8690 c3        1 3HI     -0.108100
      8 C15         4.9360   -0.3960   -2.8250 ca        1 3HI     -0.169000
      9 C17        -0.6380   -0.6410    5.1860 ca        1 3HI     -0.062000
     10 C20        -1.6550    0.1130    5.7580 ca        1 3HI     -0.135000
     11 C21         3.0470    1.3320   -1.6860 ca        1 3HI     -0.080000
     12 C22         5.7510    0.4980    2.2460 ca        1 3HI     -0.124000
     13 C24         3.9350    1.8230   -2.6370 ca        1 3HI     -0.169000
     14 C26         0.5870    1.4090    4.7140 ca        1 3HI      0.154100
     15 C28         6.1580   -0.5210    3.1070 ca        1 3HI     -0.124000
     16 O7         -4.4810   -0.3010   -0.4260 o         1 3HI     -0.848800
     17 O6         -4.4050   -2.2750    0.6090 o         1 3HI     -0.848800
     18 C35        -3.9060   -2.2310   -1.7470 c3        1 3HI     -0.240400
     19 C11        -3.2690   -1.2140   -2.6830 c3        1 3HI      0.172100
     20 O3         -4.2560   -0.3810   -3.2770 oh        1 3HI     -0.636800
     21 C9         -1.0320   -1.3790   -3.8410 c3        1 3HI      0.147100
     22 O4         -0.3150   -1.9530   -4.9320 oh        1 3HI     -0.615800
     23 C27         3.0970   -0.0120   -1.2940 ca        1 3HI     -0.061000
     24 C30         4.8860    0.9570   -3.2090 ca        1 3HI      0.144900
     25 F1          5.7560    1.4280   -4.1320 f         1 3HI     -0.132900
     26 C18         4.0400   -0.8720   -1.8730 ca        1 3HI     -0.080000
     27 C12         0.2150   -1.2830    0.6030 cc        1 3HI      0.086400
     28 C14        -1.4020   -3.1470    0.8530 c3        1 3HI     -0.108100
     29 C2          1.2060   -1.3170    1.6260 cd        1 3HI     -0.327600
     30 C1          2.4440   -0.8210    1.0610 cd        1 3HI     -0.068000
     31 C31         3.7080   -0.7150    1.7550 ca        1 3HI     -0.037000
     32 C25         4.5350    0.4040    1.5720 ca        1 3HI     -0.140500
     33 C19         5.3460   -1.6410    3.2890 ca        1 3HI     -0.124000
     34 C16         4.1280   -1.7390    2.6210 ca        1 3HI     -0.140500
     35 C3          1.0240   -1.7700    2.9690 c         1 3HI      0.654700
     36 O1          0.5660   -2.7980    3.4460 o         1 3HI     -0.455100
     37 N2          1.5640   -0.7810    4.0290 n4        1 3HI     -0.547200
     38 C32         0.4980   -0.0020    4.6490 ca        1 3HI     -0.072400
     39 C23        -0.4490    2.1580    5.2910 ca        1 3HI     -0.196000
     40 C29        -1.5660    1.5080    5.8050 ca        1 3HI     -0.043000
     41 H6         -1.7900   -1.3290   -0.2200 hc        1 3HI      0.110700
     42 H7         -0.7570    0.0990   -1.5880 h1        1 3HI      0.084200
     43 H7A         0.8620    0.0770   -2.4410 h1        1 3HI      0.084200
     44 H8         -0.9000   -2.4440   -1.9430 hc        1 3HI      0.074200
     45 H8A         0.6500   -2.3690   -2.8810 hc        1 3HI      0.074200
     46 H10        -2.4970   -2.9780   -3.7160 hc        1 3HI      0.059700
     47 H10A       -2.9660   -1.6030   -4.7960 hc        1 3HI      0.059700
     48 H13        -2.9970   -1.1210    1.8190 hc        1 3HI      0.058367
     49 H13A       -1.4880   -1.2650    2.8510 hc        1 3HI      0.058367
     50 H13B       -1.7310    0.1870    1.7830 hc        1 3HI      0.058367
     51 H15         5.6760   -1.0670   -3.2840 ha        1 3HI      0.157000
     52 H17        -0.7340   -1.7410    5.1360 ha        1 3HI      0.177000
     53 H20        -2.5470   -0.3960    6.1580 ha        1 3HI      0.170000
     54 H21         2.2980    2.0060   -1.2410 ha        1 3HI      0.148000
     55 H22         6.3940    1.3780    2.0910 ha        1 3HI      0.141500
     56 H24         3.8990    2.8770   -2.9510 ha        1 3HI      0.157000
     57 H28         7.1220   -0.4470    3.6320 ha        1 3HI      0.142000
     58 H35        -4.8210   -2.6670   -2.2180 hc        1 3HI      0.046700
     59 H35A       -3.1900   -3.0610   -1.5260 hc        1 3HI      0.046700
     60 H11        -2.5870   -0.5490   -2.0740 h1        1 3HI      0.015700
     61 HO3        -4.7730   -0.0220   -2.5360 ho        1 3HI      0.449000
     62 H9         -1.0220   -0.2580   -3.9710 h1        1 3HI      0.037700
     63 HO4        -0.8960   -1.9270   -5.7000 ho        1 3HI      0.407000
     64 H18         4.0730   -1.9310   -1.5740 ha        1 3HI      0.148000
     65 H14        -0.9310   -3.6780   -0.0080 hc        1 3HI      0.058367
     66 H14A       -0.9470   -3.5200    1.8010 hc        1 3HI      0.058367
     67 H14B       -2.5060   -3.3660    0.8600 hc        1 3HI      0.058367
     68 H25         4.2210    1.2000    0.8770 ha        1 3HI      0.142500
     69 H19         5.6750   -2.4570    3.9500 ha        1 3HI      0.141500
     70 H16         3.5100   -2.6430    2.7330 ha        1 3HI      0.142500
     71 HN2         2.0500   -1.3060    4.7630 hn        1 3HI      0.459300
     72 HO2         1.6040    2.9520    4.2020 ho        1 3HI      0.453000
     73 H23        -0.3750    3.2550    5.3240 ha        1 3HI      0.157000
     74 H29        -2.3870    2.0960    6.2450 ha        1 3HI      0.161000
     75 C36        -4.3080   -1.5570   -0.4280 c         1 3HI      0.897600
     76 H221        2.2330   -0.1410    3.5730 hn        1 3HI      0.459300
     77 O2          1.7270    1.9900    4.2120 oh        1 3HI     -0.516100
@<TRIPOS>BOND
     1    1    2 1   
     2    1    4 1   
     3    1   27 1   
     4    2   23 1   
     5    2   30 2   
     6    3    7 1   
     7    3   27 1   
     8    3   28 1   
     9    3   41 1   
    10    4    5 1   
    11    4   42 1   
    12    4   43 1   
    13    5   21 1   
    14    5   44 1   
    15    5   45 1   
    16    6   19 1   
    17    6   21 1   
    18    6   46 1   
    19    6   47 1   
    20    7   48 1   
    21    7   49 1   
    22    7   50 1   
    23    8   24 ar  
    24    8   26 ar  
    25    8   51 1   
    26    9   10 ar  
    27    9   38 ar  
    28    9   52 1   
    29   10   40 ar  
    30   10   53 1   
    31   11   13 ar  
    32   11   23 ar  
    33   11   54 1   
    34   12   15 ar  
    35   12   32 ar  
    36   12   55 1   
    37   13   24 ar  
    38   13   56 1   
    39   14   38 ar  
    40   14   39 ar  
    41   14   77 1   
    42   15   33 ar  
    43   15   57 1   
    44   16   75 1   
    45   17   75 1   
    46   18   19 1   
    47   18   58 1   
    48   18   59 1   
    49   18   75 1   
    50   19   20 1   
    51   19   60 1   
    52   20   61 1   
    53   21   22 1   
    54   21   62 1   
    55   22   63 1   
    56   23   26 ar  
    57   24   25 1   
    58   26   64 1   
    59   27   29 2   
    60   28   65 1   
    61   28   66 1   
    62   28   67 1   
    63   29   30 1   
    64   29   35 1   
    65   30   31 1   
    66   31   32 ar  
    67   31   34 ar  
    68   32   68 1   
    69   33   34 ar  
    70   33   69 1   
    71   34   70 1   
    72   35   36 2   
    73   35   37 1   
    74   37   38 1   
    75   37   71 1   
    76   37   76 1   
    77   39   40 ar  
    78   39   73 1   
    79   40   74 1   
    80   72   77 1   
@<TRIPOS>SUBSTRUCTURE
     1 3HI         1 TEMP              0 ****  ****    0 ROOT
