@<TRIPOS>MOLECULE
3HI
   76    79     1     0     0
SMALL
bcc


@<TRIPOS>ATOM
      1 N1         -0.3620   -0.0790    0.4410 na        1 3HI     -0.030100
      2 C5          0.3230    1.1200    0.1960 cc        1 3HI     -0.059300
      3 C6          0.0780   -2.5830    0.3070 c3        1 3HI     -0.005400
      4 C7         -1.7320   -0.1730    0.8850 c3        1 3HI      0.022300
      5 C8         -2.7370   -0.5860   -0.1880 c3        1 3HI     -0.099400
      6 C10        -5.1490   -1.1370   -0.6060 c3        1 3HI     -0.122400
      7 C13         1.0600   -3.3520    1.1690 c3        1 3HI     -0.096100
      8 C15        -1.0920    4.4930   -0.6500 ca        1 3HI     -0.168000
      9 C17         5.7160   -2.6180   -0.8180 ca        1 3HI     -0.143000
     10 C20         7.0140   -3.1230   -0.8580 ca        1 3HI     -0.135000
     11 C21        -0.5900    2.9350    1.6220 ca        1 3HI     -0.082000
     12 C22         3.8920    3.8090   -0.1850 ca        1 3HI     -0.132500
     13 C24        -1.1420    4.2030    1.7720 ca        1 3HI     -0.168000
     14 C26         6.3550   -1.2090    1.0450 ca        1 3HI      0.064100
     15 C28         4.6990    3.5520   -1.2920 ca        1 3HI     -0.136000
     16 O7         -9.0300   -2.6100    0.6340 o         1 3HI     -0.844300
     17 O6         -8.8860   -4.1430   -0.9840 o         1 3HI     -0.844300
     18 C35        -7.3270   -2.3130   -1.0460 c3        1 3HI     -0.236400
     19 C11        -6.4130   -1.7300    0.0180 c3        1 3HI      0.172100
     20 O3         -7.0460   -0.6830    0.7420 oh        1 3HI     -0.676800
     21 C9         -4.1190   -0.7510    0.4480 c3        1 3HI      0.157100
     22 O4         -4.4300    0.4840    1.0790 oh        1 3HI     -0.638800
     23 C27        -0.2800    2.4380    0.3490 ca        1 3HI     -0.034000
     24 C30        -1.3930    4.9880    0.6320 ca        1 3HI      0.130900
     25 F1         -1.9240    6.2260    0.7700 f         1 3HI     -0.143900
     26 C18        -0.5420    3.2220   -0.7830 ca        1 3HI     -0.082000
     27 C12         0.4880   -1.1530    0.1730 cc        1 3HI     -0.024600
     28 C14        -0.0510   -3.2250   -1.0630 c3        1 3HI     -0.096100
     29 C2          1.7380   -0.6280   -0.2210 cd        1 3HI     -0.228600
     30 C1          1.6380    0.8080   -0.2100 cd        1 3HI     -0.075000
     31 C31         2.6800    1.7430   -0.5720 ca        1 3HI     -0.009000
     32 C25         2.8880    2.9130    0.1740 ca        1 3HI     -0.119000
     33 C19         4.5000    2.3920   -2.0410 ca        1 3HI     -0.132500
     34 C16         3.4980    1.4910   -1.6850 ca        1 3HI     -0.119000
     35 C3          2.9500   -1.3910   -0.5680 c         1 3HI      0.723700
     36 O1          2.9880   -2.2280   -1.4910 o         1 3HI     -0.606100
     37 N2          4.0570   -1.1030    0.2280 n         1 3HI     -0.459100
     38 C32         5.3440   -1.6440    0.1320 ca        1 3HI      0.069600
     39 C23         7.6520   -1.7230    0.9920 ca        1 3HI     -0.187000
     40 C29         7.9830   -2.6830    0.0370 ca        1 3HI     -0.134000
     41 H6         -0.9330   -2.6410    0.8100 hc        1 3HI      0.058700
     42 H7         -1.7750   -0.9130    1.7350 h1        1 3HI      0.077200
     43 H7A        -2.0430    0.8360    1.2890 h1        1 3HI      0.077200
     44 H8         -2.7880    0.1940   -0.9900 hc        1 3HI      0.056700
     45 H8A        -2.4380   -1.5570   -0.6600 hc        1 3HI      0.056700
     46 H10        -4.7070   -1.8980   -1.2980 hc        1 3HI      0.052200
     47 H10A       -5.4230   -0.2300   -1.2030 hc        1 3HI      0.052200
     48 H13         2.0670   -3.3820    0.6860 hc        1 3HI      0.045200
     49 H13A        1.1580   -2.8770    2.1740 hc        1 3HI      0.045200
     50 H13B        0.7010   -4.4010    1.3020 hc        1 3HI      0.045200
     51 H15        -1.3010    5.1100   -1.5360 ha        1 3HI      0.148000
     52 H17         4.9750   -2.9910   -1.5450 ha        1 3HI      0.178000
     53 H20         7.2670   -3.8820   -1.6130 ha        1 3HI      0.132000
     54 H21        -0.3960    2.3170    2.5120 ha        1 3HI      0.146500
     55 H22         4.0440    4.7230    0.4070 ha        1 3HI      0.127500
     56 H24        -1.3910    4.5930    2.7690 ha        1 3HI      0.148000
     57 H28         5.4900    4.2610   -1.5750 ha        1 3HI      0.124000
     58 H35        -6.7490   -3.0010   -1.7100 hc        1 3HI      0.037700
     59 H35A       -7.7520   -1.4890   -1.6720 hc        1 3HI      0.037700
     60 H11        -6.1290   -2.5420    0.7480 h1        1 3HI      0.028700
     61 HO3        -7.9320   -1.0100    0.9890 ho        1 3HI      0.468000
     62 H9         -4.0720   -1.5500    1.2440 h1        1 3HI      0.031700
     63 HO4        -5.3860    0.4900    1.2380 ho        1 3HI      0.445000
     64 H18        -0.3080    2.8290   -1.7850 ha        1 3HI      0.146500
     65 H14        -0.3660   -4.2900   -0.9490 hc        1 3HI      0.045200
     66 H14A       -0.8160   -2.6890   -1.6750 hc        1 3HI      0.045200
     67 H14B        0.9260   -3.1930   -1.6040 hc        1 3HI      0.045200
     68 H25         2.2440    3.1200    1.0430 ha        1 3HI      0.142000
     69 H19         5.1340    2.1840   -2.9150 ha        1 3HI      0.127500
     70 H16         3.3420    0.5740   -2.2760 ha        1 3HI      0.142000
     71 HN2         3.9460   -0.3780    0.9070 hn        1 3HI      0.340500
     72 HO2         6.7960   -0.0010    2.4610 ho        1 3HI      0.419000
     73 H23         8.4080   -1.3670    1.7060 ha        1 3HI      0.127000
     74 H29         9.0040   -3.0860   -0.0020 ha        1 3HI      0.128000
     75 C36        -8.5010   -3.0850   -0.4180 c         1 3HI      0.910600
     76 O2          5.9940   -0.2670    1.9910 oh        1 3HI     -0.511100
@<TRIPOS>BOND
     1    1    2 1   
     2    1    4 1   
     3    1   27 1   
     4    2   23 1   
     5    2   30 2   
     6    3    7 1   
     7    3   27 1   
     8    3   28 1   
     9    3   41 1   
    10    4    5 1   
    11    4   42 1   
    12    4   43 1   
    13    5   21 1   
    14    5   44 1   
    15    5   45 1   
    16    6   19 1   
    17    6   21 1   
    18    6   46 1   
    19    6   47 1   
    20    7   48 1   
    21    7   49 1   
    22    7   50 1   
    23    8   24 ar  
    24    8   26 ar  
    25    8   51 1   
    26    9   10 ar  
    27    9   38 ar  
    28    9   52 1   
    29   10   40 ar  
    30   10   53 1   
    31   11   13 ar  
    32   11   23 ar  
    33   11   54 1   
    34   12   15 ar  
    35   12   32 ar  
    36   12   55 1   
    37   13   24 ar  
    38   13   56 1   
    39   14   38 ar  
    40   14   39 ar  
    41   14   76 1   
    42   15   33 ar  
    43   15   57 1   
    44   16   75 1   
    45   17   75 1   
    46   18   19 1   
    47   18   58 1   
    48   18   59 1   
    49   18   75 1   
    50   19   20 1   
    51   19   60 1   
    52   20   61 1   
    53   21   22 1   
    54   21   62 1   
    55   22   63 1   
    56   23   26 ar  
    57   24   25 1   
    58   26   64 1   
    59   27   29 2   
    60   28   65 1   
    61   28   66 1   
    62   28   67 1   
    63   29   30 1   
    64   29   35 1   
    65   30   31 1   
    66   31   32 ar  
    67   31   34 ar  
    68   32   68 1   
    69   33   34 ar  
    70   33   69 1   
    71   34   70 1   
    72   35   36 2   
    73   35   37 1   
    74   37   38 1   
    75   37   71 1   
    76   39   40 ar  
    77   39   73 1   
    78   40   74 1   
    79   72   76 1   
@<TRIPOS>SUBSTRUCTURE
     1 3HI         1 TEMP              0 ****  ****    0 ROOT
