@<TRIPOS>MOLECULE
3HI
   76    67     1     0     0
SMALL
bcc


@<TRIPOS>ATOM
      1 N1         -0.4650    0.5070   -0.5580 n2        1 3HI     -0.100000
      2 C5          0.8970    0.6090   -0.6640 c2        1 3HI     -0.033000
      3 C6         -2.2370    0.3740    1.1510 c3        1 3HI     -0.051000
      4 C7         -1.4160    0.6560   -1.6440 c2        1 3HI     -0.038000
      5 C8         -1.8060   -0.7300   -2.1780 c3        1 3HI     -0.178000
      6 C10        -3.2020   -1.9390   -3.8400 c3        1 3HI     -0.201000
      7 C13        -2.4940    1.5280    2.0970 c3        1 3HI     -0.214500
      8 C15         3.0950    0.2680   -3.5870 c1        1 3HI     -0.131700
      9 C17         2.7390    1.5570    5.6290 c1        1 3HI     -0.131700
     10 C20         2.8850    1.6270    7.0090 c1        1 3HI     -0.131700
     11 C21         1.7070    2.2490   -2.2280 c1        1 3HI     -0.088000
     12 C22         4.8930    1.5190    1.3550 c1        1 3HI     -0.131700
     13 C24         2.5070    2.5810   -3.3140 c1        1 3HI     -0.166000
     14 C26         1.2260   -0.2880    5.8820 c1        1 3HI      0.100000
     15 C28         5.4760    0.2860    1.6090 c1        1 3HI     -0.131700
     16 O7         -7.3930   -2.4190   -4.9990 o         1 3HI     -0.557000
     17 C36        -6.4120   -2.8460   -5.6620 c1        1 3HI      0.330000
     18 O6         -6.5540   -3.1330   -6.8840 os        1 3HI     -0.600000
     19 C35        -5.0830   -3.0880   -4.9750 c3        1 3HI     -0.265000
     20 C11        -4.3390   -1.7760   -4.8380 c3        1 3HI      0.061000
     21 O3         -3.8160   -1.4030   -6.0830 oh        1 3HI     -0.405000
     22 C9         -2.7410   -0.5710   -3.3720 c3        1 3HI      0.046000
     23 O4         -2.0630    0.0730   -4.4130 oh        1 3HI     -0.367000
     24 C27         1.6020    0.9260   -1.8230 c1        1 3HI     -0.032000
     25 C30         3.1990    1.5940   -3.9920 c1        1 3HI      0.096000
     26 F1          3.9960    1.9190   -5.0170 f         1 3HI     -0.109000
     27 C18         2.2960   -0.0640   -2.5040 c1        1 3HI     -0.131700
     28 C12        -0.7770    0.3550    0.7640 c2        1 3HI      0.020000
     29 C14        -2.5940   -0.9240    1.8320 c3        1 3HI     -0.214500
     30 C2          0.4040    0.3630    1.4870 c1        1 3HI     -0.210000
     31 C1          1.4330    0.5190    0.6090 c2        1 3HI     -0.085000
     32 C31         2.7920    0.4410    0.9210 c1        1 3HI     -0.012000
     33 C25         3.5480    1.5950    1.0100 c1        1 3HI     -0.131700
     34 C19         4.7190   -0.8690    1.5200 c1        1 3HI     -0.131700
     35 C16         3.3750   -0.7930    1.1750 c1        1 3HI     -0.110000
     36 C3          0.5200    0.3560    3.0170 c1        1 3HI      0.392000
     37 O1         -0.4850    0.3410    3.7020 o         1 3HI     -0.391000
     38 N2          1.8090    0.4860    3.6390 n3        1 3HI     -0.330000
     39 C32         1.9090    0.6000    5.0670 c1        1 3HI     -0.003000
     40 O2          1.4140   -1.6500    5.5920 oh        1 3HI     -0.269000
     41 C23         1.3730   -0.2180    7.2650 c1        1 3HI     -0.131700
     42 C29         2.2000    0.7370    7.8250 c1        1 3HI     -0.131700
     43 H6         -2.7840    0.4820    0.3500 hc        1 3HI      0.096000
     44 H7         -1.0090    1.1790   -2.3630 ha        1 3HI      0.117500
     45 H7A        -2.2120    1.1150   -1.3180 ha        1 3HI      0.117500
     46 H8         -1.0010   -1.2110   -2.4550 hc        1 3HI      0.096500
     47 H8A        -2.2590   -1.2330   -1.4750 hc        1 3HI      0.096500
     48 H10        -3.5140   -2.4570   -3.0720 hc        1 3HI      0.092000
     49 H10A       -2.4580   -2.4050   -4.2660 hc        1 3HI      0.092000
     50 H13        -1.6770    2.0600    2.1920 hc        1 3HI      0.085500
     51 H13A       -2.7600    1.1790    2.9740 hc        1 3HI      0.085500
     52 H13B       -3.2120    2.0930    1.7380 hc        1 3HI      0.085500
     53 H15         3.6210   -0.3200   -4.1610 ha        1 3HI      0.135100
     54 H17         3.2200    2.1830    5.0560 ha        1 3HI      0.135100
     55 H20         3.4690    2.3000    7.4040 ha        1 3HI      0.135100
     56 H21         1.3590    3.1180   -1.9470 ha        1 3HI      0.142000
     57 H22         5.4210    2.3360    1.4430 ha        1 3HI      0.135100
     58 H24         2.7480    3.4680   -3.6430 ha        1 3HI      0.148000
     59 H28         6.4220    0.2330    1.8520 ha        1 3HI      0.135100
     60 H35        -4.5500   -3.7110   -5.5080 hc        1 3HI      0.077000
     61 H35A       -5.2390   -3.4700   -4.0860 hc        1 3HI      0.077000
     62 H11        -4.9540   -1.0850   -4.5220 h1        1 3HI      0.068000
     63 HO3        -4.4090   -0.9020   -6.5150 ho        1 3HI      0.268000
     64 H9         -3.5200   -0.0360   -3.1090 h1        1 3HI      0.071000
     65 HO4        -2.5980    0.6770   -4.7860 ho        1 3HI      0.245000
     66 H18         2.6530   -0.9770   -2.5030 ha        1 3HI      0.135100
     67 H14        -2.7280   -0.7640    2.7900 hc        1 3HI      0.085500
     68 H14A       -3.4200   -1.2820    1.4420 hc        1 3HI      0.085500
     69 H14B       -1.8660   -1.5700    1.7070 hc        1 3HI      0.085500
     70 H25         3.1430    2.4620    0.8100 ha        1 3HI      0.135100
     71 H19         5.1270   -1.7350    1.7050 ha        1 3HI      0.135100
     72 H16         2.8400   -1.6100    1.1120 ha        1 3HI      0.142000
     73 HN2         2.5630    0.4820    3.1280 hn        1 3HI      0.240000
     74 HO2         2.2430   -1.8880    5.8090 ho        1 3HI      0.251000
     75 H23         0.8990   -0.8510    7.8390 ha        1 3HI      0.135100
     76 H29         2.3040    0.7860    8.7960 ha        1 3HI      0.135100
@<TRIPOS>BOND
     1    1    2 1   
     2    1   28 1   
     3    2   24 1   
     4    2   31 1   
     5    3    7 1   
     6    3   28 1   
     7    3   29 1   
     8    3   43 1   
     9    4    5 1   
    10    4   44 1   
    11    4   45 1   
    12    5   22 1   
    13    5   46 1   
    14    5   47 1   
    15    6   20 1   
    16    6   22 1   
    17    6   48 1   
    18    6   49 1   
    19    7   50 1   
    20    7   51 1   
    21    7   52 1   
    22    8   27 1   
    23    8   53 1   
    24    9   10 1   
    25    9   54 1   
    26   10   55 1   
    27   11   24 1   
    28   11   56 1   
    29   12   33 1   
    30   12   57 1   
    31   13   25 1   
    32   13   58 1   
    33   14   39 1   
    34   14   40 1   
    35   15   34 1   
    36   15   59 1   
    37   16   17 1   
    38   17   19 1   
    39   19   20 1   
    40   19   60 1   
    41   19   61 1   
    42   20   21 1   
    43   20   62 1   
    44   21   63 1   
    45   22   23 1   
    46   22   64 1   
    47   23   65 1   
    48   25   26 1   
    49   27   66 1   
    50   28   30 1   
    51   29   67 1   
    52   29   68 1   
    53   29   69 1   
    54   30   31 1   
    55   31   32 1   
    56   32   35 1   
    57   33   70 1   
    58   34   71 1   
    59   35   72 1   
    60   36   37 1   
    61   36   38 1   
    62   38   39 1   
    63   38   73 1   
    64   40   74 1   
    65   41   42 1   
    66   41   75 1   
    67   42   76 1   
@<TRIPOS>SUBSTRUCTURE
     1 3HI         1 TEMP              0 ****  ****    0 ROOT
