@<TRIPOS>MOLECULE
3HI
   76    79     1     0     0
SMALL
bcc


@<TRIPOS>ATOM
      1 N1          0.1630   -0.1190   -0.0430 na        1 3HI     -0.031100
      2 C5          1.5520    0.0130    0.0900 cc        1 3HI     -0.060300
      3 C6         -1.8780   -0.3710    1.4450 c3        1 3HI     -0.008400
      4 C7         -0.5570   -0.1760   -1.2910 c3        1 3HI      0.023300
      5 C8         -0.8880   -1.5820   -1.7900 c3        1 3HI     -0.098400
      6 C10        -2.1020   -2.8680   -3.5710 c3        1 3HI     -0.122400
      7 C13        -2.5280    0.9860    1.6420 c3        1 3HI     -0.092100
      8 C15         4.2550   -0.8240   -2.3760 ca        1 3HI     -0.168000
      9 C17         0.1570    0.4120    6.6100 ca        1 3HI     -0.140000
     10 C20         0.0230    0.7710    7.9490 ca        1 3HI     -0.134000
     11 C21         2.4580    1.2590   -1.8560 ca        1 3HI     -0.082000
     12 C22         5.3640    1.2310    2.1070 ca        1 3HI     -0.135500
     13 C24         3.3430    1.3720   -2.9230 ca        1 3HI     -0.168000
     14 C26        -0.0610    2.7430    5.9950 ca        1 3HI      0.064100
     15 C28         5.7420    0.4230    3.1790 ca        1 3HI     -0.136000
     16 O7         -5.2840   -3.3390   -6.4730 o         1 3HI     -0.844300
     17 O6         -5.9200   -5.1740   -5.3690 o         1 3HI     -0.844300
     18 C35        -3.7560   -4.2620   -4.8540 c3        1 3HI     -0.236400
     19 C11        -3.3170   -2.8510   -4.5000 c3        1 3HI      0.172100
     20 O3         -2.9430   -2.1090   -5.6540 oh        1 3HI     -0.676800
     21 C9         -1.7800   -1.4810   -3.0280 c3        1 3HI      0.156100
     22 O4         -1.0830   -0.6810   -3.9740 oh        1 3HI     -0.638800
     23 C27         2.4630    0.1190   -1.0420 ca        1 3HI     -0.033000
     24 C30         4.2490    0.3270   -3.1840 ca        1 3HI      0.129900
     25 F1          5.1190    0.4310   -4.2180 f         1 3HI     -0.144900
     26 C18         3.3620   -0.9220   -1.3140 ca        1 3HI     -0.082000
     27 C12        -0.4090   -0.2170    1.2280 cc        1 3HI     -0.045600
     28 C14        -2.1790   -1.2880    2.6140 c3        1 3HI     -0.092100
     29 C2          0.6290   -0.1230    2.1780 cd        1 3HI     -0.222600
     30 C1          1.8710    0.0200    1.4660 cd        1 3HI     -0.063000
     31 C31         3.1880    0.1570    2.0490 ca        1 3HI     -0.008000
     32 C25         4.0970    1.1000    1.5430 ca        1 3HI     -0.119000
     33 C19         4.8450   -0.5160    3.6870 ca        1 3HI     -0.135500
     34 C16         3.5760   -0.6510    3.1290 ca        1 3HI     -0.119000
     35 C3          0.4940   -0.1560    3.6470 c         1 3HI      0.728700
     36 O1          0.6000   -1.2030    4.3120 o         1 3HI     -0.600100
     37 N2          0.2410    1.0850    4.2280 ns        1 3HI     -0.460100
     38 C32         0.1210    1.3840    5.5900 ca        1 3HI      0.067600
     39 C23        -0.1950    3.0880    7.3410 ca        1 3HI     -0.186000
     40 C29        -0.1510    2.1000    8.3220 ca        1 3HI     -0.133000
     41 H6         -2.3360   -0.8460    0.5250 hc        1 3HI      0.065700
     42 H7         -1.5150    0.4060   -1.1640 h1        1 3HI      0.077200
     43 H7A         0.0630    0.3400   -2.0820 h1        1 3HI      0.077200
     44 H8          0.0540   -2.1270   -2.0540 hc        1 3HI      0.056700
     45 H8A        -1.4260   -2.1720   -1.0060 hc        1 3HI      0.056700
     46 H10        -2.3190   -3.5610   -2.7190 hc        1 3HI      0.052700
     47 H10A       -1.2140   -3.2600   -4.1310 hc        1 3HI      0.052700
     48 H13        -2.0980    1.5050    2.5320 hc        1 3HI      0.042533
     49 H13A       -2.3680    1.6290    0.7430 hc        1 3HI      0.042533
     50 H13B       -3.6260    0.8590    1.8010 hc        1 3HI      0.042533
     51 H15         4.9610   -1.6390   -2.5930 ha        1 3HI      0.148000
     52 H17         0.2950   -0.6530    6.3530 ha        1 3HI      0.178000
     53 H20         0.0580   -0.0150    8.7180 ha        1 3HI      0.132000
     54 H21         1.7470    2.0740   -1.6510 ha        1 3HI      0.146500
     55 H22         6.0670    1.9730    1.7020 ha        1 3HI      0.126500
     56 H24         3.3370    2.2620   -3.5670 ha        1 3HI      0.148000
     57 H28         6.7420    0.5270    3.6220 ha        1 3HI      0.123000
     58 H35        -3.8670   -4.8710   -3.9240 hc        1 3HI      0.037700
     59 H35A       -2.9850   -4.7450   -5.5050 hc        1 3HI      0.037700
     60 H11        -4.1710   -2.3130   -3.9950 h1        1 3HI      0.028700
     61 HO3        -3.6470   -2.2480   -6.3150 ho        1 3HI      0.468000
     62 H9         -2.7380   -0.9490   -2.7570 h1        1 3HI      0.031700
     63 HO4        -1.4940   -0.8360   -4.8370 ho        1 3HI      0.445000
     64 H18         3.3620   -1.8220   -0.6800 ha        1 3HI      0.146500
     65 H14        -3.2710   -1.5220    2.6340 hc        1 3HI      0.042533
     66 H14A       -1.6060   -2.2420    2.5220 hc        1 3HI      0.042533
     67 H14B       -1.9040   -0.8060    3.5840 hc        1 3HI      0.042533
     68 H25         3.8010    1.7320    0.6920 ha        1 3HI      0.147000
     69 H19         5.1380   -1.1550    4.5330 ha        1 3HI      0.126500
     70 H16         2.8660   -1.3910    3.5350 ha        1 3HI      0.147000
     71 HN2         0.2050    1.8710    3.6130 hn        1 3HI      0.337500
     72 HO2        -0.1950    4.5650    5.4250 ho        1 3HI      0.421000
     73 H23        -0.3330    4.1420    7.6220 ha        1 3HI      0.127000
     74 H29        -0.2560    2.3740    9.3800 ha        1 3HI      0.128000
     75 C36        -5.0900   -4.2590   -5.6190 c         1 3HI      0.910600
     76 O2         -0.1060    3.7010    4.9980 oh        1 3HI     -0.514100
@<TRIPOS>BOND
     1    1    2 1   
     2    1    4 1   
     3    1   27 1   
     4    2   23 1   
     5    2   30 2   
     6    3    7 1   
     7    3   27 1   
     8    3   28 1   
     9    3   41 1   
    10    4    5 1   
    11    4   42 1   
    12    4   43 1   
    13    5   21 1   
    14    5   44 1   
    15    5   45 1   
    16    6   19 1   
    17    6   21 1   
    18    6   46 1   
    19    6   47 1   
    20    7   48 1   
    21    7   49 1   
    22    7   50 1   
    23    8   24 ar  
    24    8   26 ar  
    25    8   51 1   
    26    9   10 ar  
    27    9   38 ar  
    28    9   52 1   
    29   10   40 ar  
    30   10   53 1   
    31   11   13 ar  
    32   11   23 ar  
    33   11   54 1   
    34   12   15 ar  
    35   12   32 ar  
    36   12   55 1   
    37   13   24 ar  
    38   13   56 1   
    39   14   38 ar  
    40   14   39 ar  
    41   14   76 1   
    42   15   33 ar  
    43   15   57 1   
    44   16   75 1   
    45   17   75 1   
    46   18   19 1   
    47   18   58 1   
    48   18   59 1   
    49   18   75 1   
    50   19   20 1   
    51   19   60 1   
    52   20   61 1   
    53   21   22 1   
    54   21   62 1   
    55   22   63 1   
    56   23   26 ar  
    57   24   25 1   
    58   26   64 1   
    59   27   29 2   
    60   28   65 1   
    61   28   66 1   
    62   28   67 1   
    63   29   30 1   
    64   29   35 1   
    65   30   31 1   
    66   31   32 ar  
    67   31   34 ar  
    68   32   68 1   
    69   33   34 ar  
    70   33   69 1   
    71   34   70 1   
    72   35   36 2   
    73   35   37 1   
    74   37   38 1   
    75   37   71 1   
    76   39   40 ar  
    77   39   73 1   
    78   40   74 1   
    79   72   76 1   
@<TRIPOS>SUBSTRUCTURE
     1 3HI         1 TEMP              0 ****  ****    0 ROOT
