@<TRIPOS>MOLECULE
3HI
   76    79     1     0     0
SMALL
bcc


@<TRIPOS>ATOM
      1 N1         -0.0660    0.2200   -0.3180 na        1 3HI     -0.033100
      2 C5          1.3010    0.0570   -0.0400 cc        1 3HI     -0.037300
      3 C6         -2.2060    0.8330    0.9110 c3        1 3HI     -0.005400
      4 C7         -0.6920    0.0070   -1.6000 c3        1 3HI      0.017300
      5 C8         -1.4290   -1.3270   -1.7400 c3        1 3HI     -0.103400
      6 C10        -2.6360   -2.8080   -3.3690 c3        1 3HI     -0.122400
      7 C13        -2.4720    2.3220    1.0310 c3        1 3HI     -0.094600
      8 C15         3.1830   -1.5650   -2.8800 ca        1 3HI     -0.168500
      9 C17         1.9610    0.3930    6.2100 ca        1 3HI     -0.132000
     10 C20         2.1340    0.6110    7.5710 ca        1 3HI     -0.153000
     11 C21         3.5230    0.4780   -1.0020 ca        1 3HI     -0.084500
     12 C22         4.6460    1.3690    3.0860 ca        1 3HI     -0.134500
     13 C24         4.5480    0.2000   -1.8980 ca        1 3HI     -0.168500
     14 C26        -0.4270    0.7320    6.4590 ca        1 3HI      0.145100
     15 C28         5.1780    0.1360    3.4630 ca        1 3HI     -0.135000
     16 O7         -4.4090   -3.6620   -7.2250 o         1 3HI     -0.842800
     17 O6         -6.3350   -4.0790   -6.1720 o         1 3HI     -0.842800
     18 C35        -4.3440   -3.9330   -4.8310 c3        1 3HI     -0.236400
     19 C11        -3.2420   -2.8890   -4.7720 c3        1 3HI      0.172100
     20 O3         -2.1770   -3.1930   -5.6630 oh        1 3HI     -0.677800
     21 C9         -1.7070   -1.6100   -3.2160 c3        1 3HI      0.155100
     22 O4         -0.4390   -1.8370   -3.8210 oh        1 3HI     -0.644800
     23 C27         2.3260   -0.2550   -1.0260 ca        1 3HI     -0.044000
     24 C30         4.3810   -0.8290   -2.8430 ca        1 3HI      0.123900
     25 F1          5.3770   -1.1090   -3.7180 f         1 3HI     -0.145900
     26 C18         2.1670   -1.2740   -1.9750 ca        1 3HI     -0.084500
     27 C12        -0.7350    0.5730    0.8560 cc        1 3HI     -0.017600
     28 C14        -2.8580    0.0700    2.0480 c3        1 3HI     -0.094600
     29 C2          0.2180    0.6400    1.8970 cd        1 3HI     -0.222600
     30 C1          1.5010    0.3080    1.3340 cd        1 3HI     -0.096000
     31 C31         2.7580    0.2500    2.0540 ca        1 3HI     -0.013000
     32 C25         3.4430    1.4290    2.3840 ca        1 3HI     -0.122000
     33 C19         4.5040   -1.0400    3.1360 ca        1 3HI     -0.134500
     34 C16         3.2990   -0.9870    2.4360 ca        1 3HI     -0.122000
     35 C3         -0.0170    0.9960    3.3020 c         1 3HI      0.711700
     36 O1         -0.7080    1.9740    3.6600 o         1 3HI     -0.626100
     37 N2          0.5390    0.1330    4.2470 n         1 3HI     -0.462100
     38 C32         0.6770    0.4390    5.6190 ca        1 3HI     -0.018400
     39 C23        -0.2350    0.9650    7.8330 ca        1 3HI     -0.152000
     40 C29         1.0370    0.8970    8.3840 ca        1 3HI     -0.117000
     41 H6         -2.6880    0.4740   -0.0470 hc        1 3HI      0.057700
     42 H7          0.1070    0.0650   -2.3970 h1        1 3HI      0.079200
     43 H7A        -1.4180    0.8520   -1.7790 h1        1 3HI      0.079200
     44 H8         -2.4000   -1.2950   -1.1830 hc        1 3HI      0.056700
     45 H8A        -0.8190   -2.1670   -1.3190 hc        1 3HI      0.056700
     46 H10        -2.0640   -3.7470   -3.1600 hc        1 3HI      0.052200
     47 H10A       -3.4730   -2.7280   -2.6300 hc        1 3HI      0.052200
     48 H13        -3.5730    2.5050    1.0630 hc        1 3HI      0.045033
     49 H13A       -2.0110    2.7290    1.9660 hc        1 3HI      0.045033
     50 H13B       -2.0440    2.8640    0.1550 hc        1 3HI      0.045033
     51 H15         3.0500   -2.3600   -3.6290 ha        1 3HI      0.150500
     52 H17         2.8410    0.1720    5.5850 ha        1 3HI      0.137000
     53 H20         3.1430    0.5610    8.0050 ha        1 3HI      0.128000
     54 H21         3.6520    1.2790   -0.2550 ha        1 3HI      0.157500
     55 H22         5.1750    2.2980    3.3420 ha        1 3HI      0.131500
     56 H24         5.4850    0.7740   -1.8760 ha        1 3HI      0.150500
     57 H28         6.1280    0.0910    4.0130 ha        1 3HI      0.128000
     58 H35        -3.9020   -4.9540   -4.7180 hc        1 3HI      0.038200
     59 H35A       -5.0730   -3.7660   -4.0010 hc        1 3HI      0.038200
     60 H11        -3.6670   -1.8830   -5.0590 h1        1 3HI      0.029700
     61 HO3        -2.5860   -3.4150   -6.5210 ho        1 3HI      0.470000
     62 H9         -2.1720   -0.7020   -3.6970 h1        1 3HI      0.035700
     63 HO4        -0.6030   -2.2520   -4.6810 ho        1 3HI      0.448000
     64 H18         1.2260   -1.8500   -2.0320 ha        1 3HI      0.157500
     65 H14        -3.9630    0.2280    2.0180 hc        1 3HI      0.045033
     66 H14A       -2.6500   -1.0230    1.9560 hc        1 3HI      0.045033
     67 H14B       -2.4760    0.4270    3.0350 hc        1 3HI      0.045033
     68 H25         3.0230    2.4020    2.0870 ha        1 3HI      0.143500
     69 H19         4.9230   -2.0140    3.4260 ha        1 3HI      0.131500
     70 H16         2.7720   -1.9160    2.1710 ha        1 3HI      0.143500
     71 HN2         1.2120   -0.5220    3.9010 hn        1 3HI      0.322500
     72 HO2        -1.7840    1.0360    5.1250 ho        1 3HI      0.449000
     73 H23        -1.1140    1.1890    8.4550 ha        1 3HI      0.147000
     74 H29         1.1790    1.0730    9.4600 ha        1 3HI      0.128000
     75 C36        -5.0900   -3.8850   -6.1760 c         1 3HI      0.910600
     76 O2         -1.7380    0.7490    6.0510 oh        1 3HI     -0.515100
@<TRIPOS>BOND
     1    1    2 1   
     2    1    4 1   
     3    1   27 1   
     4    2   23 1   
     5    2   30 2   
     6    3    7 1   
     7    3   27 1   
     8    3   28 1   
     9    3   41 1   
    10    4    5 1   
    11    4   42 1   
    12    4   43 1   
    13    5   21 1   
    14    5   44 1   
    15    5   45 1   
    16    6   19 1   
    17    6   21 1   
    18    6   46 1   
    19    6   47 1   
    20    7   48 1   
    21    7   49 1   
    22    7   50 1   
    23    8   24 ar  
    24    8   26 ar  
    25    8   51 1   
    26    9   10 ar  
    27    9   38 ar  
    28    9   52 1   
    29   10   40 ar  
    30   10   53 1   
    31   11   13 ar  
    32   11   23 ar  
    33   11   54 1   
    34   12   15 ar  
    35   12   32 ar  
    36   12   55 1   
    37   13   24 ar  
    38   13   56 1   
    39   14   38 ar  
    40   14   39 ar  
    41   14   76 1   
    42   15   33 ar  
    43   15   57 1   
    44   16   75 1   
    45   17   75 1   
    46   18   19 1   
    47   18   58 1   
    48   18   59 1   
    49   18   75 1   
    50   19   20 1   
    51   19   60 1   
    52   20   61 1   
    53   21   22 1   
    54   21   62 1   
    55   22   63 1   
    56   23   26 ar  
    57   24   25 1   
    58   26   64 1   
    59   27   29 2   
    60   28   65 1   
    61   28   66 1   
    62   28   67 1   
    63   29   30 1   
    64   29   35 1   
    65   30   31 1   
    66   31   32 ar  
    67   31   34 ar  
    68   32   68 1   
    69   33   34 ar  
    70   33   69 1   
    71   34   70 1   
    72   35   36 2   
    73   35   37 1   
    74   37   38 1   
    75   37   71 1   
    76   39   40 ar  
    77   39   73 1   
    78   40   74 1   
    79   72   76 1   
@<TRIPOS>SUBSTRUCTURE
     1 3HI         1 TEMP              0 ****  ****    0 ROOT
