@<TRIPOS>MOLECULE
3HJ
   51    52     1     0     0
SMALL
bcc


@<TRIPOS>ATOM
      1 C13         0.7940    0.9150    0.3890 c2        1 3HJ     -0.048000
      2 C15        -3.0940   -1.7920    3.0870 c1        1 3HJ      0.286000
      3 N20        -7.4370   -0.1840    2.1240 n         1 3HJ     -0.316000
      4 C21        -8.5380   -0.5310    1.3410 c2        1 3HJ      0.082000
      5 C23       -13.3640    0.0840    1.3290 c2        1 3HJ     -0.129000
      6 C24       -12.2260    0.4010    2.1630 c2        1 3HJ     -0.095000
      7 C25       -10.9770    0.0880    1.8930 c1        1 3HJ     -0.035000
      8 C27        -3.2010   -0.2560    1.2170 c2        1 3HJ     -0.136000
      9 C29         4.3580    0.9540   -3.6600 c2        1 3HJ     -0.214000
     10 C30         5.1480    0.7810   -4.8100 c2        1 3HJ     -0.043000
     11 C02         6.1030   -1.1620   -4.0220 c2        1 3HJ      0.013000
     12 C03         5.3590   -1.0870   -2.8310 c2        1 3HJ     -0.242000
     13 C04         4.4610   -0.0060   -2.6330 c2        1 3HJ      0.115000
     14 N05         3.7400    0.0550   -1.4340 n         1 3HJ     -0.324000
     15 C06         2.7540    0.9750   -1.0920 c2        1 3HJ      0.352000
     16 O07         2.3900    1.8940   -1.8460 o         1 3HJ     -0.330000
     17 C08         2.1390    0.7940    0.2580 c2        1 3HJ     -0.149000
     18 C09         3.0750    0.5170    1.4100 c3        1 3HJ     -0.120000
     19 C10         2.4300    0.9800    2.6860 c2        1 3HJ     -0.071000
     20 C11         1.1190    0.8050    2.7070 c1        1 3HJ     -0.270000
     21 C12         0.2350    0.5540    1.7160 c2        1 3HJ      0.115000
     22 N14        -0.9820   -0.1230    1.8590 n3        1 3HJ     -0.214000
     23 C16        -3.8150   -0.8730    2.4220 c2        1 3HJ     -0.299000
     24 N17        -5.1340   -0.5030    2.8000 n         1 3HJ     -0.262000
     25 C18        -6.1710   -0.7350    1.8450 c2        1 3HJ      0.370000
     26 O19        -5.9830   -1.4240    0.8200 o         1 3HJ     -0.356000
     27 C22       -13.3060   -0.5740    0.1670 c2        1 3HJ     -0.200000
     28 C26        -9.7810   -0.2070    1.6470 c1        1 3HJ     -0.241000
     29 N28        -1.9740    0.1100    1.0010 n2        1 3HJ     -0.024000
     30 N31         6.0010   -0.2340   -5.0100 n2        1 3HJ     -0.160000
     31 H1          0.1290    1.1680   -0.4490 ha        1 3HJ      0.178000
     32 H2         -1.1990   -0.3800    2.8140 hn        1 3HJ      0.221000
     33 H3         -7.6080    0.2390    3.0080 hn        1 3HJ      0.236000
     34 H4        -12.3630   -0.9390   -0.2620 ha        1 3HJ      0.117000
     35 H5        -14.3330    0.4340    1.7260 ha        1 3HJ      0.124000
     36 H6        -12.4460    0.9500    3.0980 ha        1 3HJ      0.142000
     37 H7         -3.8970   -0.0940    0.3660 h4        1 3HJ      0.201000
     38 H8          3.6830    1.8190   -3.5850 ha        1 3HJ      0.181000
     39 H9          5.0870    1.5190   -5.6320 h4        1 3HJ      0.162000
     40 H10         8.0850   -1.9390   -4.3710 hc        1 3HJ      0.092667
     41 H11         6.7430   -2.9130   -5.1030 hc        1 3HJ      0.092667
     42 H12         7.0340   -2.9740   -3.3110 hc        1 3HJ      0.092667
     43 H13         5.4820   -1.8680   -2.0680 ha        1 3HJ      0.137000
     44 H14         3.9210   -0.6790   -0.7840 hn        1 3HJ      0.234000
     45 H15         3.3340   -0.5750    1.4270 hc        1 3HJ      0.115500
     46 H16         4.0260    1.0970    1.2720 hc        1 3HJ      0.115500
     47 H17         3.0260    1.5080    3.4360 ha        1 3HJ      0.156000
     48 H18        -5.1550    0.3930    3.2480 hn        1 3HJ      0.213000
     49 H19       -14.2050   -0.7860   -0.4250 ha        1 3HJ      0.117000
     50 H20        -8.2930   -1.0910    0.4130 h4        1 3HJ      0.189000
     51 C01         7.0420   -2.3110   -4.2090 c3        1 3HJ     -0.173000
@<TRIPOS>BOND
     1    1   17 1   
     2    1   21 1   
     3    1   31 1   
     4    2   23 1   
     5    3    4 1   
     6    3   25 1   
     7    3   33 1   
     8    4   28 1   
     9    4   50 1   
    10    5    6 1   
    11    5   27 1   
    12    5   35 1   
    13    6    7 1   
    14    6   36 1   
    15    7   28 1   
    16    8   23 1   
    17    8   29 1   
    18    8   37 1   
    19    9   10 1   
    20    9   13 1   
    21    9   38 1   
    22   10   30 1   
    23   10   39 1   
    24   11   12 1   
    25   11   30 1   
    26   11   51 1   
    27   12   13 1   
    28   12   43 1   
    29   13   14 1   
    30   14   15 1   
    31   14   44 1   
    32   15   16 1   
    33   15   17 1   
    34   17   18 1   
    35   18   19 1   
    36   18   45 1   
    37   18   46 1   
    38   19   20 1   
    39   19   47 1   
    40   20   21 1   
    41   21   22 1   
    42   22   29 1   
    43   22   32 1   
    44   23   24 1   
    45   24   25 1   
    46   24   48 1   
    47   25   26 1   
    48   27   34 1   
    49   27   49 1   
    50   40   51 1   
    51   41   51 1   
    52   42   51 1   
@<TRIPOS>SUBSTRUCTURE
     1 3HJ         1 TEMP              0 ****  ****    0 ROOT
