@<TRIPOS>MOLECULE
3HJ
   51    52     1     0     0
SMALL
bcc


@<TRIPOS>ATOM
      1 C13         0.7960    0.9180    0.3920 c2        1 3HJ     -0.048000
      2 C15        -3.0930   -1.7860    3.0900 c1        1 3HJ      0.286000
      3 N20        -7.4360   -0.1830    2.1230 ns        1 3HJ     -0.316000
      4 C21        -8.5360   -0.5310    1.3400 c2        1 3HJ      0.082000
      5 C23       -13.3620    0.0790    1.3250 c2        1 3HJ     -0.129000
      6 C24       -12.2250    0.3960    2.1590 c2        1 3HJ     -0.095000
      7 C25       -10.9770    0.0850    1.8900 c1        1 3HJ     -0.035000
      8 C27        -3.2000   -0.2510    1.2200 c2        1 3HJ     -0.136000
      9 C29         4.3600    0.9560   -3.6580 c2        1 3HJ     -0.214000
     10 C30         5.1480    0.7830   -4.8080 c2        1 3HJ     -0.043000
     11 C02         6.0960   -1.1650   -4.0240 c2        1 3HJ      0.013000
     12 C03         5.3530   -1.0900   -2.8330 c2        1 3HJ     -0.242000
     13 C04         4.4600   -0.0060   -2.6330 c2        1 3HJ      0.115000
     14 N05         3.7400    0.0560   -1.4330 ns        1 3HJ     -0.324000
     15 C06         2.7560    0.9770   -1.0890 c2        1 3HJ      0.352000
     16 O07         2.3940    1.8980   -1.8420 o         1 3HJ     -0.330000
     17 C08         2.1400    0.7970    0.2610 c2        1 3HJ     -0.149000
     18 C09         3.0770    0.5170    1.4120 c3        1 3HJ     -0.120000
     19 C10         2.4330    0.9800    2.6890 c2        1 3HJ     -0.071000
     20 C11         1.1220    0.8070    2.7100 c1        1 3HJ     -0.270000
     21 C12         0.2370    0.5570    1.7190 c2        1 3HJ      0.115000
     22 N14        -0.9800   -0.1190    1.8620 n7        1 3HJ     -0.214000
     23 C16        -3.8140   -0.8690    2.4250 c2        1 3HJ     -0.299000
     24 N17        -5.1330   -0.5000    2.8010 ns        1 3HJ     -0.262000
     25 C18        -6.1690   -0.7330    1.8450 c2        1 3HJ      0.370000
     26 O19        -5.9800   -1.4220    0.8200 o         1 3HJ     -0.356000
     27 C22       -13.3030   -0.5790    0.1630 c2        1 3HJ     -0.200000
     28 C26        -9.7790   -0.2090    1.6450 c1        1 3HJ     -0.241000
     29 N28        -1.9720    0.1150    1.0040 n2        1 3HJ     -0.024000
     30 N31         5.9980   -0.2350   -5.0100 n2        1 3HJ     -0.160000
     31 H1          0.1310    1.1730   -0.4450 ha        1 3HJ      0.178000
     32 H2         -1.1970   -0.3770    2.8170 hn        1 3HJ      0.221000
     33 H3         -7.6080    0.2400    3.0080 hn        1 3HJ      0.236000
     34 H4        -12.3600   -0.9430   -0.2660 ha        1 3HJ      0.117000
     35 H5        -14.3330    0.4280    1.7200 ha        1 3HJ      0.124000
     36 H6        -12.4470    0.9450    3.0940 ha        1 3HJ      0.142000
     37 H7         -3.8950   -0.0880    0.3690 h4        1 3HJ      0.201000
     38 H8          3.6880    1.8230   -3.5800 ha        1 3HJ      0.181000
     39 H9          5.0890    1.5220   -5.6290 h4        1 3HJ      0.162000
     40 H10         8.0750   -1.9490   -4.3760 hc        1 3HJ      0.092667
     41 H11         6.7290   -2.9170   -5.1090 hc        1 3HJ      0.092667
     42 H12         7.0210   -2.9820   -3.3170 hc        1 3HJ      0.092667
     43 H13         5.4740   -1.8730   -2.0720 ha        1 3HJ      0.137000
     44 H14         3.9190   -0.6800   -0.7840 hn        1 3HJ      0.234000
     45 H15         3.3350   -0.5750    1.4280 hc        1 3HJ      0.115500
     46 H16         4.0290    1.0970    1.2740 hc        1 3HJ      0.115500
     47 H17         3.0300    1.5070    3.4390 ha        1 3HJ      0.156000
     48 H18        -5.1560    0.3960    3.2500 hn        1 3HJ      0.213000
     49 H19       -14.2010   -0.7930   -0.4300 ha        1 3HJ      0.117000
     50 H20        -8.2900   -1.0910    0.4120 h4        1 3HJ      0.189000
     51 C01         7.0310   -2.3170   -4.2150 c3        1 3HJ     -0.173000
@<TRIPOS>BOND
     1    1   17 1   
     2    1   21 1   
     3    1   31 1   
     4    2   23 1   
     5    3    4 1   
     6    3   25 1   
     7    3   33 1   
     8    4   28 1   
     9    4   50 1   
    10    5    6 1   
    11    5   27 1   
    12    5   35 1   
    13    6    7 1   
    14    6   36 1   
    15    7   28 1   
    16    8   23 1   
    17    8   29 1   
    18    8   37 1   
    19    9   10 1   
    20    9   13 1   
    21    9   38 1   
    22   10   30 1   
    23   10   39 1   
    24   11   12 1   
    25   11   30 1   
    26   11   51 1   
    27   12   13 1   
    28   12   43 1   
    29   13   14 1   
    30   14   15 1   
    31   14   44 1   
    32   15   16 1   
    33   15   17 1   
    34   17   18 1   
    35   18   19 1   
    36   18   45 1   
    37   18   46 1   
    38   19   20 1   
    39   19   47 1   
    40   20   21 1   
    41   21   22 1   
    42   22   29 1   
    43   22   32 1   
    44   23   24 1   
    45   24   25 1   
    46   24   48 1   
    47   25   26 1   
    48   27   34 1   
    49   27   49 1   
    50   40   51 1   
    51   41   51 1   
    52   42   51 1   
@<TRIPOS>SUBSTRUCTURE
     1 3HJ         1 TEMP              0 ****  ****    0 ROOT
