@<TRIPOS>MOLECULE
3HK
   58    50     1     0     0
SMALL
bcc


@<TRIPOS>ATOM
      1 N4         -3.2970   -2.7790  -10.9470 n1        1 3HK     -0.040000
      2 C21        -2.7340   -2.7790   -9.9590 c1        1 3HK     -0.095000
      3 C18        -1.9830   -2.7820   -8.6390 c1        1 3HK      0.005000
      4 C17        -0.8520   -1.9850   -8.4760 c1        1 3HK     -0.110000
      5 C16        -0.1310   -2.0310   -7.2790 c1        1 3HK     -0.110000
      6 C19        -2.3960   -3.6240   -7.6100 c1        1 3HK     -0.103500
      7 C20        -1.6790   -3.6710   -6.4180 c1        1 3HK     -0.103500
      8 C15        -0.5440   -2.8720   -6.2520 c1        1 3HK      0.005000
      9 C14         0.1610   -2.8230   -4.8950 c1        1 3HK     -0.058500
     10 C12         0.2850   -2.1200   -3.7040 c1        1 3HK     -0.171000
     11 C11        -0.3470   -1.0700   -2.8600 c2        1 3HK     -0.046000
     12 N3          1.0660   -3.8210   -4.8830 n2        1 3HK     -0.093000
     13 N2          1.7750   -3.7530   -3.6710 n2        1 3HK     -0.093000
     14 C13         1.2920   -2.7140   -2.9620 c1        1 3HK     -0.058500
     15 C22         1.3610   -2.0180   -1.6160 c1        1 3HK      0.004000
     16 C10         0.3790   -1.0150   -1.5930 c2        1 3HK     -0.090000
     17 C9          0.2350   -0.1990   -0.4540 c1        1 3HK     -0.098000
     18 C23         2.2000   -2.2100   -0.5020 c1        1 3HK     -0.166000
     19 C24         2.0560   -1.4020    0.6250 c1        1 3HK      0.045500
     20 O3          3.0970   -1.3450    1.5740 o         1 3HK     -0.205000
     21 C25         3.2320   -2.5250    2.3430 c3        1 3HK     -0.078000
     22 C8          1.0670   -0.3900    0.6500 c1        1 3HK      0.045500
     23 O2          1.2300    0.7130    1.5020 o         1 3HK     -0.215000
     24 C7          0.1950    0.8480    2.4820 c3        1 3HK     -0.022000
     25 C6          0.5790    1.9450    3.4750 c3        1 3HK     -0.165000
     26 C5         -0.6500    2.3730    4.2680 c3        1 3HK     -0.065000
     27 N1         -0.2770    3.4210    5.2110 n3        1 3HK     -0.252000
     28 C2         -0.8950    3.1150    6.5980 c3        1 3HK     -0.104000
     29 C1         -0.6560    4.2290    7.6070 c3        1 3HK     -0.039000
     30 C3         -1.1240    4.6830    4.9410 c3        1 3HK     -0.104000
     31 C4         -0.8840    5.7840    5.9650 c3        1 3HK     -0.039000
     32 O1         -0.3680    5.3190    7.0300 os        1 3HK     -0.279000
     33 H21        -0.5710   -1.4120   -9.1770 ha        1 3HK      0.143000
     34 H20         0.6680   -1.4690   -7.1630 ha        1 3HK      0.143000
     35 H22        -3.1910   -4.1840   -7.7250 ha        1 3HK      0.151000
     36 H23        -1.9690   -4.2590   -5.7010 ha        1 3HK      0.151000
     37 H18        -0.2920   -0.2160   -3.3050 ha        1 3HK      0.116000
     38 H19        -1.2900   -1.2990   -2.6940 ha        1 3HK      0.116000
     39 H2          2.4560   -4.3220   -3.4060 DU        1 3HK      0.279000
     40 H17        -0.4640    0.5190   -0.4360 ha        1 3HK      0.155000
     41 H24         2.9420   -2.8740   -0.5460 ha        1 3HK      0.141000
     42 H25         4.1780   -2.6440    2.6020 h1        1 3HK      0.086000
     43 H27         2.9360   -3.3060    1.8050 h1        1 3HK      0.086000
     44 H26         2.6710   -2.4540    3.1620 h1        1 3HK      0.086000
     45 H15         0.0810   -0.0180    2.9680 h1        1 3HK      0.082500
     46 H16        -0.6380    1.0850    2.0430 h1        1 3HK      0.082500
     47 H13         1.2450    1.6110    4.0760 hc        1 3HK      0.103000
     48 H14         0.9360    2.7130    2.9880 hc        1 3HK      0.103000
     49 H12        -1.3410    2.7170    3.6470 h1        1 3HK      0.072000
     50 H11        -1.0130    1.5920    4.7680 h1        1 3HK      0.072000
     51 H6         -0.4970    2.2780    6.9470 h1        1 3HK      0.092500
     52 H5         -1.8570    2.9860    6.4930 h1        1 3HK      0.092500
     53 H4         -1.4680    4.3560    8.1410 h1        1 3HK      0.089500
     54 H3          0.0840    3.9740    8.2040 h1        1 3HK      0.089500
     55 H7         -2.0860    4.4330    4.9610 h1        1 3HK      0.092500
     56 H8         -0.9020    5.0330    4.0330 h1        1 3HK      0.092500
     57 H10        -1.7320    6.2090    6.1810 h1        1 3HK      0.089500
     58 H9         -0.2820    6.4490    5.5830 h1        1 3HK      0.089500
@<TRIPOS>BOND
     1    1    2 1   
     2    3    6 1   
     3    4    5 1   
     4    4   33 1   
     5    5   34 1   
     6    6   35 1   
     7    7    8 1   
     8    7   36 1   
     9    9   10 1   
    10    9   12 1   
    11   10   14 1   
    12   11   16 1   
    13   11   37 1   
    14   11   38 1   
    15   12   13 1   
    16   13   14 1   
    17   15   16 1   
    18   15   18 1   
    19   16   17 1   
    20   17   40 1   
    21   18   41 1   
    22   19   22 1   
    23   20   21 1   
    24   21   42 1   
    25   21   43 1   
    26   21   44 1   
    27   23   24 1   
    28   24   25 1   
    29   24   45 1   
    30   24   46 1   
    31   25   26 1   
    32   25   47 1   
    33   25   48 1   
    34   26   27 1   
    35   26   49 1   
    36   26   50 1   
    37   27   28 1   
    38   27   30 1   
    39   28   29 1   
    40   28   51 1   
    41   28   52 1   
    42   29   32 1   
    43   29   53 1   
    44   29   54 1   
    45   30   31 1   
    46   30   55 1   
    47   30   56 1   
    48   31   32 1   
    49   31   57 1   
    50   31   58 1   
@<TRIPOS>SUBSTRUCTURE
     1 3HK         1 TEMP              0 ****  ****    0 ROOT
