@<TRIPOS>MOLECULE
3HK
   58    62     1     0     0
SMALL
bcc


@<TRIPOS>ATOM
      1 N4          9.1150    4.4510    0.0840 n1        1 3HK     -0.366800
      2 C21         8.3590    3.5670    0.0720 cg        1 3HK      0.235800
      3 C18         7.4350    2.4870    0.0570 ca        1 3HK     -0.020000
      4 C17         7.8980    1.1650    0.0320 ca        1 3HK     -0.094000
      5 C16         6.9920    0.1080    0.0170 ca        1 3HK     -0.120000
      6 C19         6.0560    2.7430    0.0680 ca        1 3HK     -0.094000
      7 C20         5.1550    1.6840    0.0530 ca        1 3HK     -0.120000
      8 C15         5.6100    0.3560    0.0280 ca        1 3HK     -0.081500
      9 C14         4.6470   -0.7310    0.0130 cc        1 3HK      0.386800
     10 C12         3.2190   -0.6290    0.0190 cc        1 3HK     -0.251600
     11 C11         2.0510    0.2920    0.0380 c3        1 3HK      0.047200
     12 N3          4.9930   -2.0720   -0.0110 nd        1 3HK     -0.518800
     13 N2          3.8750   -2.7960   -0.0190 na        1 3HK      0.039400
     14 C13         2.7570   -1.9900   -0.0020 cd        1 3HK     -0.081300
     15 C22         1.3110   -2.0270    0.0020 ca        1 3HK     -0.022000
     16 C10         0.8750   -0.6650    0.0260 ca        1 3HK     -0.074300
     17 C9         -0.4750   -0.3610    0.0350 ca        1 3HK     -0.165000
     18 C23         0.4010   -3.0730   -0.0130 ca        1 3HK     -0.151000
     19 C24        -0.9650   -2.7640   -0.0030 ca        1 3HK      0.098100
     20 O3         -1.9770   -3.7040   -0.0180 os        1 3HK     -0.301900
     21 C25        -1.5650   -5.0650   -0.0240 c3        1 3HK      0.109700
     22 C8         -1.4030   -1.4120    0.0210 ca        1 3HK      0.114100
     23 O2         -2.7720   -1.2490    0.0240 os        1 3HK     -0.303900
     24 C7         -3.2380    0.1060    0.0800 c3        1 3HK      0.125400
     25 C6         -4.7550    0.0090    0.1070 c3        1 3HK     -0.088400
     26 C5         -5.3430    1.4150    0.0210 c3        1 3HK      0.172800
     27 N1         -6.7740    1.4690    0.2870 n3        1 3HK     -0.723600
     28 C2         -7.5590    0.6670   -0.6440 c3        1 3HK      0.130800
     29 C1         -9.0680    0.8150   -0.4250 c3        1 3HK      0.126400
     30 C3         -7.2490    2.8470    0.3580 c3        1 3HK      0.130800
     31 C4         -8.7650    2.9360    0.5610 c3        1 3HK      0.126400
     32 O1         -9.4710    2.1790   -0.4150 os        1 3HK     -0.415600
     33 H21         8.9800    0.9610    0.0230 ha        1 3HK      0.145000
     34 H20         7.3720   -0.9250   -0.0030 ha        1 3HK      0.148000
     35 H22         5.6890    3.7800    0.0880 ha        1 3HK      0.145000
     36 H23         4.0730    1.8880    0.0620 ha        1 3HK      0.148000
     37 H18         2.0360    0.9280    0.9600 hc        1 3HK      0.075700
     38 H19         2.0300    0.9590   -0.8610 hc        1 3HK      0.075700
     39 H2          3.9190   -3.7880   -0.0360 hn        1 3HK      0.328700
     40 H17        -0.8060    0.6860    0.0530 ha        1 3HK      0.146000
     41 H24         0.7440   -4.1150   -0.0320 ha        1 3HK      0.142000
     42 H25        -0.9740   -5.3050    0.8930 h1        1 3HK      0.044700
     43 H27        -2.5340   -5.6270   -0.0260 h1        1 3HK      0.044700
     44 H26        -0.9750   -5.2970   -0.9440 h1        1 3HK      0.044700
     45 H15        -2.8470    0.6020    1.0070 h1        1 3HK      0.039200
     46 H16        -2.8830    0.6620   -0.8270 h1        1 3HK      0.039200
     47 H13        -5.0990   -0.6180   -0.7560 hc        1 3HK      0.068200
     48 H14        -5.0800   -0.5050    1.0480 hc        1 3HK      0.068200
     49 H12        -4.8410    2.0630    0.7950 h1        1 3HK      0.031700
     50 H11        -5.0920    1.8450   -0.9950 h1        1 3HK      0.031700
     51 H6         -7.3250    0.9310   -1.7170 h1        1 3HK      0.041450
     52 H5         -7.2820   -0.4120   -0.4820 h1        1 3HK      0.041450
     53 H4         -9.6280    0.3640   -1.2860 h1        1 3HK      0.054450
     54 H3         -9.3790    0.3250    0.5350 h1        1 3HK      0.054450
     55 H7         -6.7420    3.3400    1.2330 h1        1 3HK      0.041450
     56 H8         -6.9800    3.4270   -0.5730 h1        1 3HK      0.041450
     57 H10        -9.0490    2.5840    1.5880 h1        1 3HK      0.054450
     58 H9         -9.1140    3.9900    0.4040 h1        1 3HK      0.054450
@<TRIPOS>BOND
     1    1    2 3   
     2    2    3 1   
     3    3    4 ar  
     4    3    6 ar  
     5    4    5 ar  
     6    4   33 1   
     7    5    8 ar  
     8    5   34 1   
     9    6    7 ar  
    10    6   35 1   
    11    7    8 ar  
    12    7   36 1   
    13    8    9 1   
    14    9   10 1   
    15    9   12 2   
    16   10   11 1   
    17   10   14 2   
    18   11   16 1   
    19   11   37 1   
    20   11   38 1   
    21   12   13 1   
    22   13   14 1   
    23   13   39 1   
    24   14   15 1   
    25   15   16 ar  
    26   15   18 ar  
    27   16   17 ar  
    28   17   22 ar  
    29   17   40 1   
    30   18   19 ar  
    31   18   41 1   
    32   19   20 1   
    33   19   22 ar  
    34   20   21 1   
    35   21   42 1   
    36   21   43 1   
    37   21   44 1   
    38   22   23 1   
    39   23   24 1   
    40   24   25 1   
    41   24   45 1   
    42   24   46 1   
    43   25   26 1   
    44   25   47 1   
    45   25   48 1   
    46   26   27 1   
    47   26   49 1   
    48   26   50 1   
    49   27   28 1   
    50   27   30 1   
    51   28   29 1   
    52   28   51 1   
    53   28   52 1   
    54   29   32 1   
    55   29   53 1   
    56   29   54 1   
    57   30   31 1   
    58   30   55 1   
    59   30   56 1   
    60   31   32 1   
    61   31   57 1   
    62   31   58 1   
@<TRIPOS>SUBSTRUCTURE
     1 3HK         1 TEMP              0 ****  ****    0 ROOT
