@<TRIPOS>MOLECULE
3HK
   58    60     1     0     0
SMALL
bcc


@<TRIPOS>ATOM
      1 N4         -1.3530   -0.8220   -2.3050 n1        1 3HK     -0.040000
      2 C21        -0.7650   -0.6860   -1.3100 c1        1 3HK     -0.095000
      3 C18        -0.0460   -0.5180   -0.0960 ca        1 3HK     -0.015000
      4 C17         1.1950   -1.1450    0.0800 ca        1 3HK     -0.094000
      5 C16         1.8980   -0.9800    1.2700 ca        1 3HK     -0.119000
      6 C19        -0.5780    0.2750    0.9310 ca        1 3HK     -0.094000
      7 C20         0.1280    0.4360    2.1180 ca        1 3HK     -0.119000
      8 C15         1.3730   -0.1880    2.3020 ca        1 3HK      0.025000
      9 C14         2.0880   -0.0030    3.5520 c2        1 3HK     -0.049000
     10 C12         1.6690    0.7560    4.6920 c2        1 3HK     -0.177000
     11 C11         0.6020    1.6130    5.2750 c3        1 3HK     -0.046000
     12 N3          3.3280   -0.5590    3.8250 n2        1 3HK     -0.084000
     13 N2          3.6940   -0.1920    5.0520 na        1 3HK     -0.104000
     14 C13         2.7380    0.6070    5.6410 c2        1 3HK     -0.060000
     15 C22         2.4340    1.3360    6.8540 ca        1 3HK     -0.015000
     16 C10         1.1560    1.9420    6.6470 ca        1 3HK     -0.070000
     17 C9          0.5820    2.7190    7.6380 ca        1 3HK     -0.159000
     18 C23         3.1280    1.5040    8.0420 ca        1 3HK     -0.153000
     19 C24         2.5430    2.2860    9.0470 ca        1 3HK      0.059000
     20 O3          3.1140    2.5240   10.2810 os        1 3HK     -0.185000
     21 C25         4.4290    2.0150   10.4700 c3        1 3HK     -0.080000
     22 C8          1.2760    2.8950    8.8440 ca        1 3HK      0.060000
     23 O2          0.8290    3.6750    9.8920 os        1 3HK     -0.186000
     24 C7         -0.5600    4.0240    9.8510 c3        1 3HK     -0.023000
     25 C6         -0.8590    4.6380   11.2090 c3        1 3HK     -0.180000
     26 C5         -2.3150    5.0940   11.2360 c3        1 3HK     -0.075000
     27 N1         -2.7200    5.6620   12.5310 n3        1 3HK      0.145000
     28 C2         -2.9990    4.8050   13.5220 c2        1 3HK     -0.502000
     29 C1         -6.3780    6.2820   14.6330 c1        1 3HK     -0.063000
     30 C3         -2.8100    6.9960   12.6330 c2        1 3HK     -0.353000
     31 C4         -3.2530    7.6870   13.8580 c3        1 3HK     -0.160000
     32 O1         -6.2070    5.2050   13.9080 oh        1 3HK     -0.233000
     33 H21         1.6150   -1.7680   -0.7250 ha        1 3HK      0.145000
     34 H20         2.8720   -1.4800    1.3910 ha        1 3HK      0.148500
     35 H22        -1.5520    0.7680    0.7970 ha        1 3HK      0.145000
     36 H23        -0.2920    1.0600    2.9230 ha        1 3HK      0.148500
     37 H18         0.4420    2.5460    4.6760 hc        1 3HK      0.115000
     38 H19        -0.3720    1.0680    5.3590 hc        1 3HK      0.115000
     39 H2          4.5620   -0.4950    5.4280 hn        1 3HK      0.280000
     40 H17        -0.3970    3.1910    7.4770 ha        1 3HK      0.144000
     41 H24         4.1080    1.0330    8.1930 ha        1 3HK      0.144000
     42 H25         4.4290    0.8980   10.4260 h1        1 3HK      0.085000
     43 H27         5.1330    2.4380    9.7130 h1        1 3HK      0.085000
     44 H26         4.6950    2.3680   11.4990 h1        1 3HK      0.085000
     45 H15        -0.7290    4.7650    9.0250 h1        1 3HK      0.079500
     46 H16        -1.1840    3.1090    9.6720 h1        1 3HK      0.079500
     47 H13        -0.1680    5.5030   11.3890 hc        1 3HK      0.119000
     48 H14        -0.6660    3.8820   12.0150 hc        1 3HK      0.119000
     49 H12        -2.4800    5.8650   10.4310 h1        1 3HK      0.110000
     50 H11        -2.9870    4.2150   11.0210 h1        1 3HK      0.110000
     51 H6         -3.2060    5.1890   14.5260 h4        1 3HK      0.146500
     52 H5         -2.8970    3.7300   13.3550 h4        1 3HK      0.146500
     53 H4         -5.2440    5.0460   13.7930 ho        1 3HK      0.265000
     54 H3         -7.4800    6.4500   14.7540 ha        1 3HK      0.025000
     55 H7         -2.5460    7.6000   11.7540 h4        1 3HK      0.145000
     56 H8         -2.5420    7.5060   14.7050 hc        1 3HK      0.087333
     57 H10        -3.3020    8.7850   13.6630 hc        1 3HK      0.087333
     58 H9         -4.2700    7.3320   14.1850 hc        1 3HK      0.087333
@<TRIPOS>BOND
     1    1    2 1   
     2    2    3 1   
     3    3    4 1   
     4    3    6 1   
     5    4    5 1   
     6    4   33 1   
     7    5    8 1   
     8    5   34 1   
     9    6    7 1   
    10    6   35 1   
    11    7    8 1   
    12    7   36 1   
    13    8    9 1   
    14    9   10 1   
    15    9   12 1   
    16   10   11 1   
    17   10   14 1   
    18   11   16 1   
    19   11   37 1   
    20   11   38 1   
    21   12   13 1   
    22   13   14 1   
    23   13   39 1   
    24   14   15 1   
    25   15   16 1   
    26   15   18 1   
    27   16   17 1   
    28   17   22 1   
    29   17   40 1   
    30   18   19 1   
    31   18   41 1   
    32   19   20 1   
    33   19   22 1   
    34   20   21 1   
    35   21   42 1   
    36   21   43 1   
    37   21   44 1   
    38   22   23 1   
    39   23   24 1   
    40   24   25 1   
    41   24   45 1   
    42   24   46 1   
    43   25   26 1   
    44   25   47 1   
    45   25   48 1   
    46   26   27 1   
    47   26   49 1   
    48   26   50 1   
    49   27   28 1   
    50   27   30 1   
    51   28   51 1   
    52   28   52 1   
    53   29   32 1   
    54   29   54 1   
    55   30   31 1   
    56   30   55 1   
    57   31   56 1   
    58   31   57 1   
    59   31   58 1   
    60   32   53 1   
@<TRIPOS>SUBSTRUCTURE
     1 3HK         1 TEMP              0 ****  ****    0 ROOT
