@<TRIPOS>MOLECULE
3HK
   58    62     1     0     0
SMALL
bcc


@<TRIPOS>ATOM
      1 N4         -0.9200   -0.2120   -2.5330 n1        1 3HK     -0.366800
      2 C21        -0.3960   -0.1730   -1.4950 cg        1 3HK      0.235800
      3 C18         0.2430   -0.1240   -0.2260 ca        1 3HK     -0.020000
      4 C17         1.4720   -0.7700   -0.0320 ca        1 3HK     -0.094000
      5 C16         2.0970   -0.7220    1.2110 ca        1 3HK     -0.120000
      6 C19        -0.3550    0.5690    0.8350 ca        1 3HK     -0.094000
      7 C20         0.2730    0.6150    2.0750 ca        1 3HK     -0.120000
      8 C15         1.5040   -0.0290    2.2790 ca        1 3HK     -0.081500
      9 C14         2.1380    0.0340    3.5830 cc        1 3HK      0.386800
     10 C12         1.6520    0.6970    4.7570 cc        1 3HK     -0.251600
     11 C11         0.5580    1.5160    5.3430 c3        1 3HK      0.047200
     12 N3          3.3510   -0.5630    3.8850 nd        1 3HK     -0.518800
     13 N2          3.6390   -0.3110    5.1610 na        1 3HK      0.039400
     14 C13         2.6550    0.4480    5.7560 cd        1 3HK     -0.081300
     15 C22         2.2790    1.0720    7.0060 ca        1 3HK     -0.022000
     16 C10         1.0240    1.7150    6.7720 ca        1 3HK     -0.074300
     17 C9          0.3920    2.4100    7.7880 ca        1 3HK     -0.165000
     18 C23         2.8940    1.1250    8.2480 ca        1 3HK     -0.151000
     19 C24         2.2540    1.8290    9.2760 ca        1 3HK      0.098100
     20 O3          2.7500    1.9600   10.5580 os        1 3HK     -0.301900
     21 C25         4.0080    1.3430   10.8070 c3        1 3HK      0.109700
     22 C8          1.0060    2.4700    9.0480 ca        1 3HK      0.114100
     23 O2          0.4850    3.1230   10.1440 os        1 3HK     -0.303900
     24 C7         -0.7590    3.8050    9.9300 c3        1 3HK      0.125400
     25 C6         -1.0930    4.4600   11.2600 c3        1 3HK     -0.088400
     26 C5         -2.4800    5.0910   11.1680 c3        1 3HK      0.172800
     27 N1         -2.8050    5.9590   12.2920 n3        1 3HK     -0.723600
     28 C2         -2.7850    5.2640   13.5730 c3        1 3HK      0.130800
     29 C1         -3.2330    6.1550   14.7360 c3        1 3HK      0.126400
     30 C3         -4.0630    6.6630   12.0710 c3        1 3HK      0.130800
     31 C4         -4.4720    7.5260   13.2700 c3        1 3HK      0.126400
     32 O1         -4.4870    6.7740   14.4770 os        1 3HK     -0.415600
     33 H21         1.9440   -1.3150   -0.8630 ha        1 3HK      0.145000
     34 H20         3.0620   -1.2340    1.3470 ha        1 3HK      0.148000
     35 H22        -1.3200    1.0770    0.6870 ha        1 3HK      0.145000
     36 H23        -0.2000    1.1600    2.9070 ha        1 3HK      0.148000
     37 H18         0.4470    2.5000    4.8200 hc        1 3HK      0.075700
     38 H19        -0.4250    0.9810    5.3170 hc        1 3HK      0.075700
     39 H2          4.4780   -0.6600    5.5650 hn        1 3HK      0.328700
     40 H17        -0.5730    2.9030    7.6050 ha        1 3HK      0.146000
     41 H24         3.8580    0.6280    8.4190 ha        1 3HK      0.142000
     42 H25         4.8010    1.7790   10.1530 h1        1 3HK      0.044700
     43 H27         4.2050    1.5860   11.8820 h1        1 3HK      0.044700
     44 H26         3.9420    0.2370   10.6600 h1        1 3HK      0.044700
     45 H15        -0.6350    4.5720    9.1200 h1        1 3HK      0.039200
     46 H16        -1.5460    3.0630    9.6330 h1        1 3HK      0.039200
     47 H13        -1.0640    3.6850   12.0700 hc        1 3HK      0.068200
     48 H14        -0.3160    5.2300   11.5030 hc        1 3HK      0.068200
     49 H12        -2.5220    5.7290   10.2380 h1        1 3HK      0.031700
     50 H11        -3.2410    4.2640   11.0460 h1        1 3HK      0.031700
     51 H6         -3.4380    4.3430   13.5560 h1        1 3HK      0.041450
     52 H5         -1.7260    4.9360   13.7670 h1        1 3HK      0.041450
     53 H4         -3.4120    5.5320   15.6520 h1        1 3HK      0.054450
     54 H3         -2.4640    6.9440   14.9500 h1        1 3HK      0.054450
     55 H7         -3.9280    7.3350   11.1780 h1        1 3HK      0.041450
     56 H8         -4.9060    5.9470   11.8440 h1        1 3HK      0.041450
     57 H10        -3.7800    8.4020   13.3820 h1        1 3HK      0.054450
     58 H9         -5.5280    7.8810   13.1470 h1        1 3HK      0.054450
@<TRIPOS>BOND
     1    1    2 3   
     2    2    3 1   
     3    3    4 ar  
     4    3    6 ar  
     5    4    5 ar  
     6    4   33 1   
     7    5    8 ar  
     8    5   34 1   
     9    6    7 ar  
    10    6   35 1   
    11    7    8 ar  
    12    7   36 1   
    13    8    9 1   
    14    9   10 1   
    15    9   12 2   
    16   10   11 1   
    17   10   14 2   
    18   11   16 1   
    19   11   37 1   
    20   11   38 1   
    21   12   13 1   
    22   13   14 1   
    23   13   39 1   
    24   14   15 1   
    25   15   16 ar  
    26   15   18 ar  
    27   16   17 ar  
    28   17   22 ar  
    29   17   40 1   
    30   18   19 ar  
    31   18   41 1   
    32   19   20 1   
    33   19   22 ar  
    34   20   21 1   
    35   21   42 1   
    36   21   43 1   
    37   21   44 1   
    38   22   23 1   
    39   23   24 1   
    40   24   25 1   
    41   24   45 1   
    42   24   46 1   
    43   25   26 1   
    44   25   47 1   
    45   25   48 1   
    46   26   27 1   
    47   26   49 1   
    48   26   50 1   
    49   27   28 1   
    50   27   30 1   
    51   28   29 1   
    52   28   51 1   
    53   28   52 1   
    54   29   32 1   
    55   29   53 1   
    56   29   54 1   
    57   30   31 1   
    58   30   55 1   
    59   30   56 1   
    60   31   32 1   
    61   31   57 1   
    62   31   58 1   
@<TRIPOS>SUBSTRUCTURE
     1 3HK         1 TEMP              0 ****  ****    0 ROOT
