@<TRIPOS>MOLECULE
3HK
   58    62     1     0     0
SMALL
bcc


@<TRIPOS>ATOM
      1 N4         -0.8930   -0.1780   -2.5600 n1        1 3HK     -0.366800
      2 C21        -0.3750   -0.1410   -1.5190 cg        1 3HK      0.235800
      3 C18         0.2570   -0.0970   -0.2470 ca        1 3HK     -0.020000
      4 C17         1.4870   -0.7380   -0.0490 ca        1 3HK     -0.094000
      5 C16         2.1050   -0.6940    1.1970 ca        1 3HK     -0.120000
      6 C19        -0.3490    0.5900    0.8150 ca        1 3HK     -0.094000
      7 C20         0.2720    0.6310    2.0580 ca        1 3HK     -0.120000
      8 C15         1.5050   -0.0090    2.2650 ca        1 3HK     -0.081500
      9 C14         2.1310    0.0510    3.5730 cc        1 3HK      0.386800
     10 C12         1.6380    0.7100    4.7460 cc        1 3HK     -0.251600
     11 C11         0.5410    1.5270    5.3290 c3        1 3HK      0.047200
     12 N3          3.3430   -0.5470    3.8800 nd        1 3HK     -0.518800
     13 N2          3.6240   -0.2990    5.1580 na        1 3HK      0.039400
     14 C13         2.6360    0.4590    5.7500 cd        1 3HK     -0.081300
     15 C22         2.2540    1.0790    7.0000 ca        1 3HK     -0.022000
     16 C10         1.0000    1.7220    6.7610 ca        1 3HK     -0.074300
     17 C9          0.3620    2.4140    7.7760 ca        1 3HK     -0.165000
     18 C23         2.8620    1.1280    8.2450 ca        1 3HK     -0.151000
     19 C24         2.2160    1.8280    9.2720 ca        1 3HK      0.098100
     20 O3          2.7050    1.9560   10.5560 os        1 3HK     -0.301900
     21 C25         3.9600    1.3370   10.8110 c3        1 3HK      0.109700
     22 C8          0.9690    2.4700    9.0390 ca        1 3HK      0.114100
     23 O2          0.4410    3.1200   10.1340 os        1 3HK     -0.303900
     24 C7         -0.7990    3.8060    9.9140 c3        1 3HK      0.125400
     25 C6         -1.1390    4.4590   11.2430 c3        1 3HK     -0.088400
     26 C5         -2.5230    5.0960   11.1440 c3        1 3HK      0.172800
     27 N1         -2.8520    5.9620   12.2680 n3        1 3HK     -0.723600
     28 C2         -2.8430    5.2640   13.5470 c3        1 3HK      0.130800
     29 C1         -3.2950    6.1540   14.7100 c3        1 3HK      0.126400
     30 C3         -4.1070    6.6710   12.0410 c3        1 3HK      0.130800
     31 C4         -4.5200    7.5330   13.2390 c3        1 3HK      0.126400
     32 O1         -4.5460    6.7770   14.4440 os        1 3HK     -0.415600
     33 H21         1.9660   -1.2780   -0.8810 ha        1 3HK      0.145000
     34 H20         3.0720   -1.2030    1.3360 ha        1 3HK      0.148000
     35 H22        -1.3150    1.0950    0.6640 ha        1 3HK      0.145000
     36 H23        -0.2070    1.1720    2.8900 ha        1 3HK      0.148000
     37 H18         0.4320    2.5120    4.8090 hc        1 3HK      0.075700
     38 H19        -0.4420    0.9910    5.2960 hc        1 3HK      0.075700
     39 H2          4.4600   -0.6480    5.5650 hn        1 3HK      0.328700
     40 H17        -0.6020    2.9060    7.5890 ha        1 3HK      0.146000
     41 H24         3.8250    0.6310    8.4200 ha        1 3HK      0.142000
     42 H25         4.7580    1.7750   10.1630 h1        1 3HK      0.044700
     43 H27         3.8950    0.2320   10.6600 h1        1 3HK      0.044700
     44 H26         4.1510    1.5770   11.8880 h1        1 3HK      0.044700
     45 H15        -0.6680    4.5740    9.1070 h1        1 3HK      0.039200
     46 H16        -1.5870    3.0680    9.6100 h1        1 3HK      0.039200
     47 H13        -1.1180    3.6830   12.0520 hc        1 3HK      0.068200
     48 H14        -0.3610    5.2260   11.4930 hc        1 3HK      0.068200
     49 H12        -2.5580    5.7360   10.2150 h1        1 3HK      0.031700
     50 H11        -3.2860    4.2710   11.0150 h1        1 3HK      0.031700
     51 H6         -3.4990    4.3450   13.5240 h1        1 3HK      0.041450
     52 H5         -1.7860    4.9320   13.7480 h1        1 3HK      0.041450
     53 H4         -3.4830    5.5290   15.6230 h1        1 3HK      0.054450
     54 H3         -2.5250    6.9390   14.9310 h1        1 3HK      0.054450
     55 H7         -3.9640    7.3450   11.1500 h1        1 3HK      0.041450
     56 H8         -4.9510    5.9590   11.8070 h1        1 3HK      0.041450
     57 H10        -5.5740    7.8920   13.1100 h1        1 3HK      0.054450
     58 H9         -3.8250    8.4060   13.3580 h1        1 3HK      0.054450
@<TRIPOS>BOND
     1    1    2 3   
     2    2    3 1   
     3    3    4 ar  
     4    3    6 ar  
     5    4    5 ar  
     6    4   33 1   
     7    5    8 ar  
     8    5   34 1   
     9    6    7 ar  
    10    6   35 1   
    11    7    8 ar  
    12    7   36 1   
    13    8    9 1   
    14    9   10 1   
    15    9   12 2   
    16   10   11 1   
    17   10   14 2   
    18   11   16 1   
    19   11   37 1   
    20   11   38 1   
    21   12   13 1   
    22   13   14 1   
    23   13   39 1   
    24   14   15 1   
    25   15   16 ar  
    26   15   18 ar  
    27   16   17 ar  
    28   17   22 ar  
    29   17   40 1   
    30   18   19 ar  
    31   18   41 1   
    32   19   20 1   
    33   19   22 ar  
    34   20   21 1   
    35   21   42 1   
    36   21   43 1   
    37   21   44 1   
    38   22   23 1   
    39   23   24 1   
    40   24   25 1   
    41   24   45 1   
    42   24   46 1   
    43   25   26 1   
    44   25   47 1   
    45   25   48 1   
    46   26   27 1   
    47   26   49 1   
    48   26   50 1   
    49   27   28 1   
    50   27   30 1   
    51   28   29 1   
    52   28   51 1   
    53   28   52 1   
    54   29   32 1   
    55   29   53 1   
    56   29   54 1   
    57   30   31 1   
    58   30   55 1   
    59   30   56 1   
    60   31   32 1   
    61   31   57 1   
    62   31   58 1   
@<TRIPOS>SUBSTRUCTURE
     1 3HK         1 TEMP              0 ****  ****    0 ROOT
