@<TRIPOS>MOLECULE
3HL
   14    13     1     0     0
SMALL
bcc


@<TRIPOS>ATOM
      1 CA          0.1210   -0.1600    0.3300 c3        1 3HL     -0.232400
      2 CB          1.5500    0.0110   -0.1620 c3        1 3HL      0.169100
      3 OG1         2.4510    0.2850    0.9040 oh        1 3HL     -0.658800
      4 CG2         2.0550   -1.2490   -0.8480 c3        1 3HL     -0.092100
      5 C          -0.4740    1.1620    0.8370 c         1 3HL      0.908600
      6 OA          0.2620    1.9190    1.5410 o         1 3HL     -0.850800
      7 OB         -1.6730    1.4280    0.5430 o         1 3HL     -0.850800
      8 HA1        -0.5150   -0.5570   -0.4990 hc        1 3HL      0.032700
      9 HA2         0.1010   -0.8930    1.1740 hc        1 3HL      0.032700
     10 HB          1.5900    0.8750   -0.8870 h1        1 3HL      0.021700
     11 HOG1        2.0240    0.9670    1.4520 ho        1 3HL      0.453000
     12 HG21        3.1220   -1.1220   -1.1490 hc        1 3HL      0.021367
     13 HG22        1.4390   -1.4540   -1.7550 hc        1 3HL      0.021367
     14 HG23        1.9840   -2.1200   -0.1550 hc        1 3HL      0.021367
@<TRIPOS>BOND
     1    1    2 1   
     2    1    5 1   
     3    1    8 1   
     4    1    9 1   
     5    2    3 1   
     6    2    4 1   
     7    2   10 1   
     8    3   11 1   
     9    4   12 1   
    10    4   13 1   
    11    4   14 1   
    12    5    6 1   
    13    5    7 1   
@<TRIPOS>SUBSTRUCTURE
     1 3HL         1 TEMP              0 ****  ****    0 ROOT
