@<TRIPOS>MOLECULE
3HL
   14    13     1     0     0
SMALL
bcc


@<TRIPOS>ATOM
      1 CA          0.0930   -0.1040    0.2040 c3        1 3HL     -0.232400
      2 CB          1.5830   -0.0130   -0.0800 c3        1 3HL      0.169100
      3 OG1         2.3500    0.0720    1.1140 oh        1 3HL     -0.658800
      4 CG2         2.0800   -1.2380   -0.8320 c3        1 3HL     -0.092100
      5 C          -0.4640    1.2100    0.7740 c         1 3HL      0.908600
      6 OA          0.2250    1.8240    1.6460 o         1 3HL     -0.850800
      7 OB         -1.5880    1.6100    0.3620 o         1 3HL     -0.850800
      8 HA1        -0.4540   -0.3590   -0.7370 hc        1 3HL      0.032700
      9 HA2        -0.0970   -0.9120    0.9540 hc        1 3HL      0.032700
     10 HB          1.7860    0.9110   -0.6960 h1        1 3HL      0.021700
     11 HOG1        1.9060    0.7320    1.6760 ho        1 3HL      0.453000
     12 HG21        3.1840   -1.1790   -0.9800 hc        1 3HL      0.021367
     13 HG22        1.5790   -1.2970   -1.8260 hc        1 3HL      0.021367
     14 HG23        1.8510   -2.1640   -0.2540 hc        1 3HL      0.021367
@<TRIPOS>BOND
     1    1    2 1   
     2    1    5 1   
     3    1    8 1   
     4    1    9 1   
     5    2    3 1   
     6    2    4 1   
     7    2   10 1   
     8    3   11 1   
     9    4   12 1   
    10    4   13 1   
    11    4   14 1   
    12    5    6 1   
    13    5    7 1   
@<TRIPOS>SUBSTRUCTURE
     1 3HL         1 TEMP              0 ****  ****    0 ROOT
