@<TRIPOS>MOLECULE
3HL
   14    13     1     0     0
SMALL
bcc


@<TRIPOS>ATOM
      1 CA          0.8190    1.5120    2.0210 c3        1 3HL     -0.232400
      2 CB          1.1310    0.0430    1.7900 c3        1 3HL      0.169100
      3 OG1         0.2160   -0.8100    2.4670 oh        1 3HL     -0.658800
      4 CG2         1.0520   -0.3160    0.3140 c3        1 3HL     -0.092100
      5 C           1.0960    1.9380    3.4710 c         1 3HL      0.908600
      6 OA          0.7480    1.1500    4.4030 o         1 3HL     -0.850800
      7 OB          1.6430    3.0570    3.6700 o         1 3HL     -0.850800
      8 HA1        -0.2620    1.7040    1.8060 hc        1 3HL      0.032700
      9 HA2         1.4340    2.1390    1.3290 hc        1 3HL      0.032700
     10 HB          2.1690   -0.1800    2.1740 h1        1 3HL      0.021700
     11 HOG1        0.1270   -0.4510    3.3680 ho        1 3HL      0.453000
     12 HG21        1.2270   -1.4090    0.1730 hc        1 3HL      0.021367
     13 HG22        0.0430   -0.0660   -0.0900 hc        1 3HL      0.021367
     14 HG23        1.8240    0.2560   -0.2530 hc        1 3HL      0.021367
@<TRIPOS>BOND
     1    1    2 1   
     2    1    5 1   
     3    1    8 1   
     4    1    9 1   
     5    2    3 1   
     6    2    4 1   
     7    2   10 1   
     8    3   11 1   
     9    4   12 1   
    10    4   13 1   
    11    4   14 1   
    12    5    6 1   
    13    5    7 1   
@<TRIPOS>SUBSTRUCTURE
     1 3HL         1 TEMP              0 ****  ****    0 ROOT
