@<TRIPOS>MOLECULE
3HL
   14    13     1     0     0
SMALL
bcc


@<TRIPOS>ATOM
      1 CA         -0.9920    0.0400   -0.0840 c3        1 3HL     -0.232400
      2 CB          0.5200    0.0400   -0.0840 c3        1 3HL      0.169100
      3 OG1         0.9890    0.0400    1.2430 oh        1 3HL     -0.658800
      4 CG2         1.0240   -1.1940   -0.7970 c3        1 3HL     -0.092100
      5 C          -1.4970    1.2780    0.6240 c         1 3HL      0.908600
      6 OA         -1.4990    2.3870    0.0290 o         1 3HL     -0.850800
      7 OB         -1.9140    1.1980    1.8100 o         1 3HL     -0.850800
      8 HA1        -1.3180   -0.7550    0.3780 hc        1 3HL      0.032700
      9 HA2        -1.3180    0.0370   -1.0050 hc        1 3HL      0.032700
     10 HB          0.8450    0.8370   -0.5450 h1        1 3HL      0.021700
     11 HOG1        1.7640    0.4710    1.2830 ho        1 3HL      0.453000
     12 HG21        0.6480   -1.2260   -1.6980 hc        1 3HL      0.021367
     13 HG22        1.9980   -1.1640   -0.8520 hc        1 3HL      0.021367
     14 HG23        0.7500   -1.9900   -0.3020 hc        1 3HL      0.021367
@<TRIPOS>BOND
     1    1    2 1   
     2    1    5 1   
     3    1    8 1   
     4    1    9 1   
     5    2    3 1   
     6    2    4 1   
     7    2   10 1   
     8    3   11 1   
     9    4   12 1   
    10    4   13 1   
    11    4   14 1   
    12    5    6 1   
    13    5    7 1   
@<TRIPOS>SUBSTRUCTURE
     1 3HL         1 TEMP              0 ****  ****    0 ROOT
