@<TRIPOS>MOLECULE
3HM
   17    17     1     0     0
SMALL
bcc


@<TRIPOS>ATOM
      1 CAH         3.3380   -0.9400   -0.0100 c3        1 3HM     -0.123400
      2 CAI         1.8730   -0.6570   -0.0260 ca        1 3HM      0.351600
      3 NAJ         0.9800   -1.6770    0.0260 nb        1 3HM     -0.681000
      4 CAK        -0.3280   -1.3750    0.0190 ca        1 3HM      0.381200
      5 CAE        -0.8420   -0.0590   -0.0390 ca        1 3HM     -0.200900
      6 CAF        -2.3400    0.1990   -0.0430 c         1 3HM      0.912200
      7 OAA        -3.1100   -0.8000    0.0100 o         1 3HM     -0.825800
      8 OAG        -2.7250    1.4010   -0.1000 o         1 3HM     -0.825800
      9 CAD         0.0700    0.9920   -0.0940 ca        1 3HM     -0.154000
     10 CAC         1.4400    0.6920   -0.0870 ca        1 3HM     -0.032200
     11 OAB         2.4140    1.6710   -0.1380 oh        1 3HM     -0.518100
     12 HAH         3.7510   -0.6870    0.9980 hc        1 3HM      0.035700
     13 HAHA        3.5640   -2.0100   -0.2320 hc        1 3HM      0.035700
     14 HAHB        3.8470   -0.2950   -0.7680 hc        1 3HM      0.035700
     15 HAK        -1.0380   -2.2220    0.0630 h4        1 3HM      0.040100
     16 HAD        -0.3020    2.0260   -0.1410 ha        1 3HM      0.157000
     17 HOAB        1.9550    2.5210   -0.1980 ho        1 3HM      0.409000
@<TRIPOS>BOND
     1    1    2 1   
     2    1   12 1   
     3    1   13 1   
     4    1   14 1   
     5    2    3 ar  
     6    2   10 ar  
     7    3    4 ar  
     8    4    5 ar  
     9    4   15 1   
    10    5    6 1   
    11    5    9 ar  
    12    6    7 1   
    13    6    8 1   
    14    9   10 ar  
    15    9   16 1   
    16   10   11 1   
    17   11   17 1   
@<TRIPOS>SUBSTRUCTURE
     1 3HM         1 TEMP              0 ****  ****    0 ROOT
