@<TRIPOS>MOLECULE
3HM
   17    15     1     0     0
SMALL
bcc


@<TRIPOS>ATOM
      1 CAH        -2.6690    0.0710    0.2710 c3        1 3HM     -0.147000
      2 CAI        -1.1900    0.0910    0.2960 c2        1 3HM     -0.071000
      3 NAJ        -0.5220    0.0850    1.4960 n1        1 3HM     -0.155000
      4 CAK         0.8240    0.0690    1.5200 c1        1 3HM     -0.084000
      5 CAE         1.5420    0.0580    0.3190 c1        1 3HM     -0.115000
      6 CAF         2.9870   -0.0010    0.3410 c2        1 3HM      0.361000
      7 OAA         3.5710   -1.1120    0.3020 o         1 3HM     -0.560500
      8 OAG         3.6520    1.0470    0.4260 o         1 3HM     -0.560500
      9 CAD         0.8660    0.0650   -0.8910 c1        1 3HM     -0.154000
     10 CAC        -0.4770    0.0810   -0.9060 c2        1 3HM     -0.012000
     11 OAB        -1.1760    0.0600   -2.1460 oh        1 3HM     -0.272000
     12 HAH        -3.0020    0.9480    0.0240 hc        1 3HM      0.075000
     13 HAHA       -2.9610   -0.5640   -0.3600 hc        1 3HM      0.075000
     14 HAHB       -3.0160   -0.1740    1.1770 hc        1 3HM      0.075000
     15 HAK         1.2870    0.0650    2.3580 ha        1 3HM      0.177000
     16 HAD         1.3430   -0.0790   -1.6970 ha        1 3HM      0.157000
     17 HOAB       -1.0600   -0.7090   -2.5300 ho        1 3HM      0.208000
@<TRIPOS>BOND
     1    1    2 1   
     2    1   12 1   
     3    1   13 1   
     4    1   14 1   
     5    2    3 1   
     6    2   10 1   
     7    4    5 1   
     8    4   15 1   
     9    5    6 1   
    10    6    7 1   
    11    6    8 1   
    12    9   10 1   
    13    9   16 1   
    14   10   11 1   
    15   11   17 1   
@<TRIPOS>SUBSTRUCTURE
     1 3HM         1 TEMP              0 ****  ****    0 ROOT
