@<TRIPOS>MOLECULE
3HM
   17    17     1     0     0
SMALL
bcc


@<TRIPOS>ATOM
      1 CAH        -0.0270   -0.0060    0.0240 c3        1 3HM     -0.123400
      2 CAI         1.4650   -0.0110    0.0530 ca        1 3HM      0.351600
      3 NAJ         2.1250    0.0850    1.2350 nb        1 3HM     -0.681000
      4 CAK         3.4670    0.0870    1.2120 ca        1 3HM      0.381200
      5 CAE         4.2450   -0.0040    0.0350 ca        1 3HM     -0.200900
      6 CAF         5.7630    0.0040    0.0940 c         1 3HM      0.912200
      7 OAA         6.3080    0.0990    1.2290 o         1 3HM     -0.825800
      8 OAG         6.3910   -0.0840   -0.9980 o         1 3HM     -0.825800
      9 CAD         3.5730   -0.1040   -1.1810 ca        1 3HM     -0.154000
     10 CAC         2.1700   -0.1060   -1.1730 ca        1 3HM     -0.032200
     11 OAB         1.4210   -0.2010   -2.3310 oh        1 3HM     -0.518100
     12 HAH        -0.3850   -0.7910   -0.6880 hc        1 3HM      0.035700
     13 HAHA       -0.4700   -0.1990    1.0310 hc        1 3HM      0.035700
     14 HAHB       -0.3860    0.9880   -0.3420 hc        1 3HM      0.035700
     15 HAK         3.9850    0.1670    2.1860 h4        1 3HM      0.040100
     16 HAD         4.1520   -0.1770   -2.1130 ha        1 3HM      0.157000
     17 HOAB        2.0480   -0.2800   -3.0640 ho        1 3HM      0.409000
@<TRIPOS>BOND
     1    1    2 1   
     2    1   12 1   
     3    1   13 1   
     4    1   14 1   
     5    2    3 ar  
     6    2   10 ar  
     7    3    4 ar  
     8    4    5 ar  
     9    4   15 1   
    10    5    6 1   
    11    5    9 ar  
    12    6    7 1   
    13    6    8 1   
    14    9   10 ar  
    15    9   16 1   
    16   10   11 1   
    17   11   17 1   
@<TRIPOS>SUBSTRUCTURE
     1 3HM         1 TEMP              0 ****  ****    0 ROOT
