@<TRIPOS>MOLECULE
3HM
   17    17     1     0     0
SMALL
bcc


@<TRIPOS>ATOM
      1 CAH        -0.0270   -0.0030    0.0190 c3        1 3HM     -0.123400
      2 CAI         1.4640   -0.0120    0.0520 ca        1 3HM      0.351600
      3 NAJ         2.1230    0.0610    1.2360 nb        1 3HM     -0.681000
      4 CAK         3.4650    0.0590    1.2150 ca        1 3HM      0.381200
      5 CAE         4.2440   -0.0150    0.0380 ca        1 3HM     -0.200900
      6 CAF         5.7630   -0.0130    0.1010 c         1 3HM      0.912200
      7 OAA         6.3050    0.0590    1.2380 o         1 3HM     -0.825800
      8 OAG         6.3930   -0.0830   -0.9920 o         1 3HM     -0.825800
      9 CAD         3.5740   -0.0910   -1.1800 ca        1 3HM     -0.154000
     10 CAC         2.1710   -0.0890   -1.1750 ca        1 3HM     -0.032200
     11 OAB         1.4250   -0.1610   -2.3360 oh        1 3HM     -0.518100
     12 HAH        -0.3860   -0.7820   -0.6970 hc        1 3HM      0.035700
     13 HAHA       -0.4730   -0.1980    1.0240 hc        1 3HM      0.035700
     14 HAHB       -0.3820    0.9940   -0.3430 hc        1 3HM      0.035700
     15 HAK         3.9810    0.1190    2.1920 h4        1 3HM      0.040100
     16 HAD         4.1550   -0.1500   -2.1130 ha        1 3HM      0.157000
     17 HOAB        2.0520   -0.2280   -3.0690 ho        1 3HM      0.409000
@<TRIPOS>BOND
     1    1    2 1   
     2    1   12 1   
     3    1   13 1   
     4    1   14 1   
     5    2    3 ar  
     6    2   10 ar  
     7    3    4 ar  
     8    4    5 ar  
     9    4   15 1   
    10    5    6 1   
    11    5    9 ar  
    12    6    7 1   
    13    6    8 1   
    14    9   10 ar  
    15    9   16 1   
    16   10   11 1   
    17   11   17 1   
@<TRIPOS>SUBSTRUCTURE
     1 3HM         1 TEMP              0 ****  ****    0 ROOT
