@<TRIPOS>MOLECULE
3HN
   51    54     1     0     0
SMALL
bcc


@<TRIPOS>ATOM
      1 C10         0.1430    0.4730    0.4240 ca        1 3HN     -0.117000
      2 C02         8.1410   -0.4270    0.2420 ca        1 3HN      0.377600
      3 C03         6.7510   -0.5890    0.1520 ca        1 3HN     -0.233300
      4 C04         5.9020    0.1300    1.0250 ca        1 3HN      0.040600
      5 N05         4.4940   -0.0380    0.9290 nh        1 3HN     -0.402400
      6 C06         3.6770    0.6090    1.7260 cg        1 3HN     -0.122000
      7 O07         5.8600    1.7640    2.8830 oh        1 3HN     -0.510100
      8 C08         2.2270    0.4810    1.6490 ca        1 3HN     -0.099000
      9 C09         1.5350    0.4930    0.4310 ca        1 3HN     -0.134000
     10 C11        -0.5730    0.4180    1.6160 ca        1 3HN     -0.138000
     11 C12         0.1150    0.3850    2.8480 ca        1 3HN      0.026800
     12 C13         1.5240    0.4370    2.8590 ca        1 3HN     -0.070000
     13 N14        -0.6160    0.3080    4.0650 na        1 3HN      0.154300
     14 C15        -1.9040   -0.2450    4.1790 cc        1 3HN     -0.189300
     15 C16        -2.2590   -0.1360    5.5410 cd        1 3HN     -0.123700
     16 N17        -3.4180   -0.6180    6.1380 n         1 3HN     -0.421100
     17 C18        -3.8840   -0.0770    7.3620 c         1 3HN      0.763100
     18 O19        -3.1440    0.6270    8.0820 o         1 3HN     -0.603100
     19 N20        -5.2150   -0.3870    7.7260 n         1 3HN     -0.456100
     20 C21        -5.7130   -0.1660    9.0280 ca        1 3HN      0.042600
     21 C22        -5.3370    0.9540    9.7990 ca        1 3HN     -0.131000
     22 C23        -5.9080    1.1740   11.0460 ca        1 3HN     -0.144000
     23 C24        -6.8720    0.2830   11.5500 ca        1 3HN      0.105900
     24 F25        -7.4310    0.5020   12.7650 f         1 3HN     -0.139900
     25 C26        -7.2550   -0.8360   10.7910 ca        1 3HN     -0.144000
     26 C27        -6.6790   -1.0600    9.5490 ca        1 3HN     -0.131000
     27 C28        -1.1100    0.5110    6.1720 cd        1 3HN      0.326200
     28 N29        -0.1550    0.7550    5.2510 nc        1 3HN     -0.487800
     29 C30         6.5030    0.9970    1.9690 ca        1 3HN      0.065800
     30 C31         7.9280    1.0870    1.9740 ca        1 3HN      0.377200
     31 N32         8.7220    0.4080    1.1500 nb        1 3HN     -0.636000
     32 H1         -0.4020    0.5030   -0.5320 ha        1 3HN      0.140000
     33 H2          9.7140   -1.8600   -0.1120 hc        1 3HN      0.051367
     34 H3          8.4080   -1.8290   -1.3730 hc        1 3HN      0.051367
     35 H4          9.6410   -0.4980   -1.3060 hc        1 3HN      0.051367
     36 H5          6.3310   -1.2770   -0.5970 ha        1 3HN      0.140000
     37 H6          4.2020   -0.6810    0.2130 hn        1 3HN      0.388800
     38 H7          2.0850    0.5430   -0.5200 ha        1 3HN      0.133000
     39 H8         -1.6730    0.4150    1.5840 ha        1 3HN      0.141000
     40 H9          2.0880    0.4490    3.8070 ha        1 3HN      0.176000
     41 H10        -2.4330   -0.6780    3.3340 h4        1 3HN      0.179000
     42 H11        -4.0920   -0.9710    5.4940 hn        1 3HN      0.305500
     43 H12        -5.6600   -1.1370    7.2430 hn        1 3HN      0.306500
     44 H13        -4.5760    1.6590    9.4240 ha        1 3HN      0.154000
     45 H14        -5.6070    2.0470   11.6450 ha        1 3HN      0.152000
     46 H15        -8.0080   -1.5320   11.1890 ha        1 3HN      0.152000
     47 H16        -6.9920   -1.9450    8.9730 ha        1 3HN      0.154000
     48 H17        -1.0120    0.7850    7.2270 h4        1 3HN      0.080100
     49 H18         4.8800    1.6300    2.8030 ho        1 3HN      0.490000
     50 H19         8.4170    1.7590    2.7040 h4        1 3HN      0.044100
     51 C01         9.0220   -1.1960   -0.6890 c3        1 3HN     -0.140400
@<TRIPOS>BOND
     1    1    9 ar  
     2    1   10 ar  
     3    1   32 1   
     4    2    3 ar  
     5    2   31 ar  
     6    2   51 1   
     7    3    4 ar  
     8    3   36 1   
     9    4    5 1   
    10    4   29 ar  
    11    5    6 3   
    12    5   37 1   
    13    6    8 1   
    14    7   29 1   
    15    7   49 1   
    16    8    9 ar  
    17    8   12 ar  
    18    9   38 1   
    19   10   11 ar  
    20   10   39 1   
    21   11   12 ar  
    22   11   13 1   
    23   12   40 1   
    24   13   14 1   
    25   13   28 1   
    26   14   15 2   
    27   14   41 1   
    28   15   16 1   
    29   15   27 1   
    30   16   17 1   
    31   16   42 1   
    32   17   18 2   
    33   17   19 1   
    34   19   20 1   
    35   19   43 1   
    36   20   21 ar  
    37   20   26 ar  
    38   21   22 ar  
    39   21   44 1   
    40   22   23 ar  
    41   22   45 1   
    42   23   24 1   
    43   23   25 ar  
    44   25   26 ar  
    45   25   46 1   
    46   26   47 1   
    47   27   28 2   
    48   27   48 1   
    49   29   30 ar  
    50   30   31 ar  
    51   30   50 1   
    52   33   51 1   
    53   34   51 1   
    54   35   51 1   
@<TRIPOS>SUBSTRUCTURE
     1 3HN         1 TEMP              0 ****  ****    0 ROOT
