@<TRIPOS>MOLECULE
3HN
   51    54     1     0     0
SMALL
bcc


@<TRIPOS>ATOM
      1 C10         0.0070    0.0680    0.1470 ca        1 3HN     -0.118000
      2 C02         7.9660    0.5830    0.4570 ca        1 3HN      0.435600
      3 C03         6.6120    0.3170    0.7470 ca        1 3HN     -0.276300
      4 C04         5.6110    1.1270    0.1700 ca        1 3HN      0.108600
      5 N05         4.2390    0.9400    0.3860 ns        1 3HN     -0.469100
      6 C06         3.6370    0.0230    1.2400 c         1 3HN      0.682700
      7 O07         4.2730   -0.7770    1.9460 o         1 3HN     -0.566100
      8 C08         2.1410    0.0630    1.2660 ca        1 3HN     -0.133600
      9 C09         1.3990    0.0580    0.0820 ca        1 3HN     -0.116000
     10 C11        -0.6490    0.0900    1.3750 ca        1 3HN     -0.132000
     11 C12         0.0990    0.0820    2.5710 ca        1 3HN      0.031800
     12 C13         1.5080    0.0640    2.5100 ca        1 3HN     -0.073000
     13 N14        -0.5690    0.0920    3.8250 na        1 3HN      0.150300
     14 C15        -1.8500   -0.4480    4.0430 cc        1 3HN     -0.187300
     15 C16        -2.1300   -0.2510    5.4120 cd        1 3HN     -0.118700
     16 N17        -3.2550   -0.6870    6.1020 ns        1 3HN     -0.424100
     17 C18        -3.6620   -0.0550    7.3030 c         1 3HN      0.764100
     18 O19        -2.8970    0.7170    7.9180 o         1 3HN     -0.603100
     19 N20        -4.9650   -0.3510    7.7650 ns        1 3HN     -0.455100
     20 C21        -5.3950   -0.0300    9.0700 ca        1 3HN      0.042600
     21 C22        -4.9990    1.1570    9.7230 ca        1 3HN     -0.130500
     22 C23        -5.5040    1.4720   10.9780 ca        1 3HN     -0.144000
     23 C24        -6.4200    0.6120   11.6080 ca        1 3HN      0.106900
     24 F25        -6.9150    0.9240   12.8300 f         1 3HN     -0.139900
     25 C26        -6.8230   -0.5730   10.9680 ca        1 3HN     -0.144000
     26 C27        -6.3110   -0.8920    9.7180 ca        1 3HN     -0.130500
     27 C28        -0.9480    0.4310    5.9380 cd        1 3HN      0.329200
     28 N29        -0.0430    0.6110    4.9540 nc        1 3HN     -0.487800
     29 C30         6.0280    2.1800   -0.6820 ca        1 3HN     -0.313300
     30 C31         7.4000    2.3550   -0.9030 ca        1 3HN      0.424200
     31 N32         8.3630    1.5910   -0.3610 nb        1 3HN     -0.687000
     32 H1         -0.5840    0.0630   -0.7820 ha        1 3HN      0.144000
     33 H2          8.5310   -1.1020    1.6790 hc        1 3HN      0.055367
     34 H3          9.6580    0.3200    1.7640 hc        1 3HN      0.055367
     35 H4          9.6590   -0.7480    0.2990 hc        1 3HN      0.055367
     36 H5          6.3560   -0.5150    1.4210 ha        1 3HN      0.180000
     37 H6          3.6380    1.5750   -0.0920 hn        1 3HN      0.322500
     38 H7          1.9010    0.0300   -0.8960 ha        1 3HN      0.144000
     39 H8         -1.7490    0.1200    1.3990 ha        1 3HN      0.144000
     40 H9          2.1220    0.0440    3.4280 ha        1 3HN      0.181000
     41 H10        -2.4210   -0.9330    3.2550 h4        1 3HN      0.180000
     42 H11        -3.9540   -1.1040    5.5270 hn        1 3HN      0.307500
     43 H12        -5.4200   -1.1470    7.3720 hn        1 3HN      0.306500
     44 H13        -4.2740    1.8390    9.2480 ha        1 3HN      0.154500
     45 H14        -5.1890    2.3970   11.4840 ha        1 3HN      0.152000
     46 H15        -7.5380   -1.2450   11.4650 ha        1 3HN      0.152000
     47 H16        -6.6370   -1.8270    9.2370 ha        1 3HN      0.154500
     48 H17        -0.7950    0.7730    6.9660 h4        1 3HN      0.081100
     49 H18         5.3080    2.8530   -1.1650 ha        1 3HN      0.139000
     50 H19         7.7550    3.1670   -1.5640 h4        1 3HN      0.021100
     51 C01         9.0090   -0.2870    1.0840 c3        1 3HN     -0.150400
@<TRIPOS>BOND
     1    1    9 ar  
     2    1   10 ar  
     3    1   32 1   
     4    2    3 ar  
     5    2   31 ar  
     6    2   51 1   
     7    3    4 ar  
     8    3   36 1   
     9    4    5 1   
    10    4   29 ar  
    11    5    6 1   
    12    5   37 1   
    13    6    7 2   
    14    6    8 1   
    15    8    9 ar  
    16    8   12 ar  
    17    9   38 1   
    18   10   11 ar  
    19   10   39 1   
    20   11   12 ar  
    21   11   13 1   
    22   12   40 1   
    23   13   14 1   
    24   13   28 1   
    25   14   15 2   
    26   14   41 1   
    27   15   16 1   
    28   15   27 1   
    29   16   17 1   
    30   16   42 1   
    31   17   18 2   
    32   17   19 1   
    33   19   20 1   
    34   19   43 1   
    35   20   21 ar  
    36   20   26 ar  
    37   21   22 ar  
    38   21   44 1   
    39   22   23 ar  
    40   22   45 1   
    41   23   24 1   
    42   23   25 ar  
    43   25   26 ar  
    44   25   46 1   
    45   26   47 1   
    46   27   28 2   
    47   27   48 1   
    48   29   30 ar  
    49   29   49 1   
    50   30   31 ar  
    51   30   50 1   
    52   33   51 1   
    53   34   51 1   
    54   35   51 1   
@<TRIPOS>SUBSTRUCTURE
     1 3HN         1 TEMP              0 ****  ****    0 ROOT
