@<TRIPOS>MOLECULE
3HO
   26    25     1     0     0
SMALL
bcc


@<TRIPOS>ATOM
      1 O1          0.0200    0.5790    0.1660 o         1 3HO     -0.849300
      2 C1          1.1310   -0.0200    0.0300 c         1 3HO      0.908600
      3 O2          1.6760   -0.6980    0.9440 o         1 3HO     -0.849300
      4 C2          1.8630    0.1040   -1.3150 c3        1 3HO     -0.233400
      5 C3          0.9070    0.0060   -2.4930 c3        1 3HO      0.172100
      6 O3          0.0510    1.1380   -2.5770 oh        1 3HO     -0.658800
      7 C4          1.6740   -0.0730   -3.8140 c3        1 3HO     -0.079400
      8 C5          0.7500   -0.3720   -4.9740 c3        1 3HO     -0.077400
      9 C6          1.4980   -0.3900   -6.2890 c3        1 3HO     -0.077400
     10 C7          0.5740   -0.6990   -7.4480 c3        1 3HO     -0.081400
     11 C8          1.3120   -0.7130   -8.7610 c3        1 3HO     -0.090100
     12 H2          2.3820    1.0950   -1.3350 hc        1 3HO      0.033700
     13 H2A         2.6350   -0.7020   -1.3870 hc        1 3HO      0.033700
     14 H3          0.2660   -0.9150   -2.3760 h1        1 3HO      0.024700
     15 HO3        -0.2820    1.2940   -1.6750 ho        1 3HO      0.454000
     16 H4          2.4540   -0.8730   -3.7300 hc        1 3HO      0.033200
     17 H4A         2.1960    0.9020   -3.9900 hc        1 3HO      0.033200
     18 H5          0.2520   -1.3640   -4.8110 hc        1 3HO      0.044700
     19 H5A        -0.0590    0.4050   -5.0020 hc        1 3HO      0.044700
     20 H6          2.3170   -1.1560   -6.2480 hc        1 3HO      0.032200
     21 H6A         1.9870    0.6060   -6.4560 hc        1 3HO      0.032200
     22 H7         -0.2450    0.0660   -7.4840 hc        1 3HO      0.037200
     23 H7A         0.0860   -1.6950   -7.2790 hc        1 3HO      0.037200
     24 H8          0.6130   -0.9430   -9.6010 hc        1 3HO      0.024700
     25 H8A         1.7850    0.2800   -8.9580 hc        1 3HO      0.024700
     26 H8B         2.1180   -1.4870   -8.7520 hc        1 3HO      0.024700
@<TRIPOS>BOND
     1    1    2 1   
     2    2    3 1   
     3    2    4 1   
     4    4    5 1   
     5    4   12 1   
     6    4   13 1   
     7    5    6 1   
     8    5    7 1   
     9    5   14 1   
    10    6   15 1   
    11    7    8 1   
    12    7   16 1   
    13    7   17 1   
    14    8    9 1   
    15    8   18 1   
    16    8   19 1   
    17    9   10 1   
    18    9   20 1   
    19    9   21 1   
    20   10   11 1   
    21   10   22 1   
    22   10   23 1   
    23   11   24 1   
    24   11   25 1   
    25   11   26 1   
@<TRIPOS>SUBSTRUCTURE
     1 3HO         1 TEMP              0 ****  ****    0 ROOT
