@<TRIPOS>MOLECULE
3HO
   26    25     1     0     0
SMALL
bcc


@<TRIPOS>ATOM
      1 O1          0.0760    0.6230    0.1720 o         1 3HO     -0.849300
      2 C1          1.1420   -0.0530    0.0320 c         1 3HO      0.908600
      3 O2          1.6370   -0.7750    0.9400 o         1 3HO     -0.849300
      4 C2          1.8820    0.0290   -1.3130 c3        1 3HO     -0.233400
      5 C3          0.9220    0.0080   -2.4920 c3        1 3HO      0.172100
      6 O3          0.1490    1.1990   -2.5670 oh        1 3HO     -0.658800
      7 C4          1.6820   -0.1150   -3.8130 c3        1 3HO     -0.079400
      8 C5          0.7410   -0.3400   -4.9750 c3        1 3HO     -0.077400
      9 C6          1.4860   -0.4000   -6.2910 c3        1 3HO     -0.077400
     10 C7          0.5430   -0.6360   -7.4510 c3        1 3HO     -0.081400
     11 C8          1.2790   -0.6910   -8.7650 c3        1 3HO     -0.090100
     12 H2          2.4700    0.9810   -1.3250 hc        1 3HO      0.033700
     13 H2A         2.5950   -0.8280   -1.3910 hc        1 3HO      0.033700
     14 H3          0.2170   -0.8660   -2.3820 h1        1 3HO      0.024700
     15 HO3        -0.1730    1.3710   -1.6630 ho        1 3HO      0.454000
     16 H4          2.4040   -0.9680   -3.7340 hc        1 3HO      0.033200
     17 H4A         2.2720    0.8230   -3.9820 hc        1 3HO      0.033200
     18 H5         -0.0130    0.4920   -4.9970 hc        1 3HO      0.044700
     19 H5A         0.1740   -1.2960   -4.8200 hc        1 3HO      0.044700
     20 H6          2.2500   -1.2210   -6.2550 hc        1 3HO      0.032200
     21 H6A         2.0430    0.5610   -6.4500 hc        1 3HO      0.032200
     22 H7         -0.2220    0.1850   -7.4810 hc        1 3HO      0.037200
     23 H7A        -0.0120   -1.5970   -7.2900 hc        1 3HO      0.037200
     24 H8          0.5660   -0.8660   -9.6060 hc        1 3HO      0.024700
     25 H8A         1.8190    0.2690   -8.9540 hc        1 3HO      0.024700
     26 H8B         2.0300   -1.5170   -8.7620 hc        1 3HO      0.024700
@<TRIPOS>BOND
     1    1    2 1   
     2    2    3 1   
     3    2    4 1   
     4    4    5 1   
     5    4   12 1   
     6    4   13 1   
     7    5    6 1   
     8    5    7 1   
     9    5   14 1   
    10    6   15 1   
    11    7    8 1   
    12    7   16 1   
    13    7   17 1   
    14    8    9 1   
    15    8   18 1   
    16    8   19 1   
    17    9   10 1   
    18    9   20 1   
    19    9   21 1   
    20   10   11 1   
    21   10   22 1   
    22   10   23 1   
    23   11   24 1   
    24   11   25 1   
    25   11   26 1   
@<TRIPOS>SUBSTRUCTURE
     1 3HO         1 TEMP              0 ****  ****    0 ROOT
