@<TRIPOS>MOLECULE
3HO
   26    25     1     0     0
SMALL
bcc


@<TRIPOS>ATOM
      1 O1          3.4460   -1.0300    0.1670 o         1 3HO     -0.849300
      2 C1          3.2570    0.2010   -0.0780 c         1 3HO      0.908600
      3 O2          4.1140    0.9440   -0.6320 o         1 3HO     -0.849300
      4 C2          1.9180    0.8270    0.3390 c3        1 3HO     -0.233400
      5 C3          0.7440   -0.0960    0.0510 c3        1 3HO      0.172100
      6 O3          0.7510   -1.2410    0.8930 oh        1 3HO     -0.658800
      7 C4         -0.5860    0.6210    0.2830 c3        1 3HO     -0.079400
      8 C5         -1.7550   -0.2120   -0.1920 c3        1 3HO     -0.077400
      9 C6         -3.0760    0.4690    0.0950 c3        1 3HO     -0.077400
     10 C7         -4.2450   -0.3620   -0.3910 c3        1 3HO     -0.081400
     11 C8         -5.5630    0.3100   -0.1040 c3        1 3HO     -0.090100
     12 H2          1.9640    1.0410    1.4360 hc        1 3HO      0.033700
     13 H2A         1.7800    1.7940   -0.2040 hc        1 3HO      0.033700
     14 H3          0.8010   -0.4450   -1.0210 h1        1 3HO      0.024700
     15 HO3         1.6660   -1.5780    0.8870 ho        1 3HO      0.454000
     16 H4         -0.6960    0.8380    1.3760 hc        1 3HO      0.033200
     17 H4A        -0.5670    1.5990   -0.2640 hc        1 3HO      0.033200
     18 H5         -1.6600   -0.4010   -1.2930 hc        1 3HO      0.044700
     19 H5A        -1.7200   -1.2110    0.3200 hc        1 3HO      0.044700
     20 H6         -3.1750    0.6470    1.1980 hc        1 3HO      0.032200
     21 H6A        -3.0980    1.4740   -0.4050 hc        1 3HO      0.032200
     22 H7         -4.1440   -0.5380   -1.4940 hc        1 3HO      0.037200
     23 H7A        -4.2170   -1.3670    0.1070 hc        1 3HO      0.037200
     24 H8         -5.6920    0.4710    0.9940 hc        1 3HO      0.024700
     25 H8A        -5.6170    1.3030   -0.6110 hc        1 3HO      0.024700
     26 H8B        -6.4100   -0.3190   -0.4700 hc        1 3HO      0.024700
@<TRIPOS>BOND
     1    1    2 1   
     2    2    3 1   
     3    2    4 1   
     4    4    5 1   
     5    4   12 1   
     6    4   13 1   
     7    5    6 1   
     8    5    7 1   
     9    5   14 1   
    10    6   15 1   
    11    7    8 1   
    12    7   16 1   
    13    7   17 1   
    14    8    9 1   
    15    8   18 1   
    16    8   19 1   
    17    9   10 1   
    18    9   20 1   
    19    9   21 1   
    20   10   11 1   
    21   10   22 1   
    22   10   23 1   
    23   11   24 1   
    24   11   25 1   
    25   11   26 1   
@<TRIPOS>SUBSTRUCTURE
     1 3HO         1 TEMP              0 ****  ****    0 ROOT
