@<TRIPOS>MOLECULE
3HO
   26    24     1     0     0
SMALL
bcc


@<TRIPOS>ATOM
      1 O1         -3.5950    2.1010    3.0830 o         1 3HO     -0.584000
      2 C1         -2.3360    2.1010    3.0830 c1        1 3HO      0.328000
      3 O2         -1.7070    2.1010    4.1740 o         1 3HO     -0.584000
      4 C2         -1.5800    2.1010    1.7730 c2        1 3HO     -0.262000
      5 C3         -1.1820    0.6850    1.4210 c3        1 3HO      0.061000
      6 O3         -2.3220   -0.1400    1.4370 oh        1 3HO     -0.386000
      7 C4         -0.5630    0.6640    0.0420 c3        1 3HO     -0.158000
      8 C5          0.3570   -0.5310   -0.0800 c3        1 3HO     -0.156000
      9 C6          0.9680   -0.5580   -1.4630 c3        1 3HO     -0.156000
     10 C7          1.9020   -1.7430   -1.5790 c3        1 3HO     -0.160000
     11 C8          2.5010   -1.7790   -2.9680 c3        1 3HO     -0.208000
     12 H2         -2.1500    2.4630    1.0690 ha        1 3HO      0.073000
     13 H2A        -0.7790    2.6520    1.8600 ha        1 3HO      0.073000
     14 H3         -0.5340    0.3580    2.0740 h1        1 3HO      0.064000
     15 HO3        -2.2080   -0.7900    2.0310 ho        1 3HO      0.253000
     16 H4         -1.2680    0.6010   -0.6300 hc        1 3HO      0.072500
     17 H4A        -0.0520    1.4840   -0.0980 hc        1 3HO      0.072500
     18 H5          1.0660   -0.4640    0.5880 hc        1 3HO      0.084000
     19 H5A        -0.1530   -1.3500    0.0670 hc        1 3HO      0.084000
     20 H6          1.4680    0.2670   -1.6150 hc        1 3HO      0.071500
     21 H6A         0.2600   -0.6360   -2.1300 hc        1 3HO      0.071500
     22 H7          2.6160   -1.6600   -0.9190 hc        1 3HO      0.076500
     23 H7A         1.4040   -2.5660   -1.4180 hc        1 3HO      0.076500
     24 H8          3.1070   -2.5400   -3.0410 hc        1 3HO      0.064000
     25 H8A         2.9940   -0.9530   -3.1310 hc        1 3HO      0.064000
     26 H8B         1.7870   -1.8670   -3.6280 hc        1 3HO      0.064000
@<TRIPOS>BOND
     1    1    2 1   
     2    2    3 1   
     3    4    5 1   
     4    4   12 1   
     5    4   13 1   
     6    5    6 1   
     7    5    7 1   
     8    5   14 1   
     9    6   15 1   
    10    7    8 1   
    11    7   16 1   
    12    7   17 1   
    13    8    9 1   
    14    8   18 1   
    15    8   19 1   
    16    9   10 1   
    17    9   20 1   
    18    9   21 1   
    19   10   11 1   
    20   10   22 1   
    21   10   23 1   
    22   11   24 1   
    23   11   25 1   
    24   11   26 1   
@<TRIPOS>SUBSTRUCTURE
     1 3HO         1 TEMP              0 ****  ****    0 ROOT
