@<TRIPOS>MOLECULE
3HP
   18    18     1     0     0
SMALL
bcc


@<TRIPOS>ATOM
      1 C8         -0.6330   -0.1780    2.3050 c         1 3HP      0.918600
      2 O1         -0.3010    0.5790    3.2570 o         1 3HP     -0.841800
      3 O2         -1.8290   -0.4580    2.0020 o         1 3HP     -0.841800
      4 C7          0.5050   -0.8440    1.4940 c3        1 3HP     -0.177100
      5 C1          0.5390   -0.4490    0.0670 ca        1 3HP      0.017700
      6 C2         -0.6460   -0.3840   -0.6740 ca        1 3HP     -0.201000
      7 C3         -0.5980   -0.0380   -2.0290 ca        1 3HP      0.106100
      8 C4          0.6180    0.2380   -2.6710 ca        1 3HP     -0.193000
      9 C5          1.7910    0.1750   -1.9210 ca        1 3HP     -0.118000
     10 C6          1.7570   -0.1620   -0.5700 ca        1 3HP     -0.185000
     11 O3         -1.7410    0.0390   -2.8040 oh        1 3HP     -0.527100
     12 H71         1.4810   -0.6020    1.9880 hc        1 3HP      0.040200
     13 H72         0.3460   -1.9530    1.5550 hc        1 3HP      0.040200
     14 H2         -1.6040   -0.5740   -0.1540 ha        1 3HP      0.193000
     15 H4          0.6310    0.5030   -3.7340 ha        1 3HP      0.124000
     16 H5          2.7520    0.3980   -2.4050 ha        1 3HP      0.107000
     17 H6          2.6910   -0.1950    0.0090 ha        1 3HP      0.120000
     18 HO3        -2.4950   -0.0860   -2.2100 ho        1 3HP      0.418000
@<TRIPOS>BOND
     1    1    2 1   
     2    1    3 1   
     3    1    4 1   
     4    4    5 1   
     5    4   12 1   
     6    4   13 1   
     7    5    6 ar  
     8    5   10 ar  
     9    6    7 ar  
    10    6   14 1   
    11    7    8 ar  
    12    7   11 1   
    13    8    9 ar  
    14    8   15 1   
    15    9   10 ar  
    16    9   16 1   
    17   10   17 1   
    18   11   18 1   
@<TRIPOS>SUBSTRUCTURE
     1 3HP         1 TEMP              0 ****  ****    0 ROOT
