@<TRIPOS>MOLECULE
3HP
   18    18     1     0     0
SMALL
bcc


@<TRIPOS>ATOM
      1 C8         -0.0220    0.6440   -0.0090 c         1 3HP      0.918600
      2 O1          0.3010    1.8650   -0.0770 o         1 3HP     -0.841800
      3 O2          0.0910   -0.0630    1.0300 o         1 3HP     -0.841800
      4 C7         -0.6460   -0.0230   -1.2580 c3        1 3HP     -0.177100
      5 C1          0.2690   -0.0990   -2.4210 ca        1 3HP      0.017700
      6 C2          1.0580    1.0030   -2.7690 ca        1 3HP     -0.201000
      7 C3          1.8970    0.9280   -3.8870 ca        1 3HP      0.106100
      8 C4          1.9610   -0.2280   -4.6780 ca        1 3HP     -0.193000
      9 C5          1.1740   -1.3200   -4.3170 ca        1 3HP     -0.118000
     10 C6          0.3390   -1.2620   -3.2040 ca        1 3HP     -0.185000
     11 O3          2.6950    1.9900   -4.2720 oh        1 3HP     -0.527100
     12 H71        -1.5400    0.5920   -1.5460 hc        1 3HP      0.040200
     13 H72        -1.0020   -1.0470   -0.9740 hc        1 3HP      0.040200
     14 H2          1.0250    1.9000   -2.1220 ha        1 3HP      0.193000
     15 H4          2.6220   -0.2610   -5.5510 ha        1 3HP      0.124000
     16 H5          1.2180   -2.2380   -4.9200 ha        1 3HP      0.107000
     17 H6         -0.2660   -2.1370   -2.9280 ha        1 3HP      0.120000
     18 HO3         2.6120    2.6700   -3.5880 ho        1 3HP      0.418000
@<TRIPOS>BOND
     1    1    2 1   
     2    1    3 1   
     3    1    4 1   
     4    4    5 1   
     5    4   12 1   
     6    4   13 1   
     7    5    6 ar  
     8    5   10 ar  
     9    6    7 ar  
    10    6   14 1   
    11    7    8 ar  
    12    7   11 1   
    13    8    9 ar  
    14    8   15 1   
    15    9   10 ar  
    16    9   16 1   
    17   10   17 1   
    18   11   18 1   
@<TRIPOS>SUBSTRUCTURE
     1 3HP         1 TEMP              0 ****  ****    0 ROOT
