@<TRIPOS>MOLECULE
3HP
   18    18     1     0     0
SMALL
bcc


@<TRIPOS>ATOM
      1 C8         -0.0770    0.5620   -0.0120 c         1 3HP      0.918600
      2 O1          0.2140    1.7930   -0.0470 o         1 3HP     -0.841800
      3 O2          0.0400   -0.1650    1.0120 o         1 3HP     -0.841800
      4 C7         -0.6620   -0.0920   -1.2860 c3        1 3HP     -0.177100
      5 C1          0.2730   -0.1170   -2.4350 ca        1 3HP      0.017700
      6 C2          1.0380    1.0130   -2.7450 ca        1 3HP     -0.201000
      7 C3          1.8950    0.9870   -3.8500 ca        1 3HP      0.106100
      8 C4          2.0030   -0.1490   -4.6660 ca        1 3HP     -0.193000
      9 C5          1.2400   -1.2700   -4.3430 ca        1 3HP     -0.118000
     10 C6          0.3870   -1.2600   -3.2430 ca        1 3HP     -0.185000
     11 O3          2.6710    2.0780   -4.1980 oh        1 3HP     -0.527100
     12 H71        -1.5680    0.5040   -1.5750 hc        1 3HP      0.040200
     13 H72        -0.9940   -1.1310   -1.0310 hc        1 3HP      0.040200
     14 H2          0.9690    1.8940   -2.0790 ha        1 3HP      0.193000
     15 H4          2.6790   -0.1440   -5.5290 ha        1 3HP      0.124000
     16 H5          1.3190   -2.1720   -4.9660 ha        1 3HP      0.107000
     17 H6         -0.1990   -2.1560   -2.9970 ha        1 3HP      0.120000
     18 HO3         2.5590    2.7400   -3.5000 ho        1 3HP      0.418000
@<TRIPOS>BOND
     1    1    2 1   
     2    1    3 1   
     3    1    4 1   
     4    4    5 1   
     5    4   12 1   
     6    4   13 1   
     7    5    6 ar  
     8    5   10 ar  
     9    6    7 ar  
    10    6   14 1   
    11    7    8 ar  
    12    7   11 1   
    13    8    9 ar  
    14    8   15 1   
    15    9   10 ar  
    16    9   16 1   
    17   10   17 1   
    18   11   18 1   
@<TRIPOS>SUBSTRUCTURE
     1 3HP         1 TEMP              0 ****  ****    0 ROOT
