@<TRIPOS>MOLECULE
3HP
   18    15     1     0     0
SMALL
bcc


@<TRIPOS>ATOM
      1 C8         -2.4750   -0.6500    1.2150 c1        1 3HP      0.338000
      2 O1         -2.6400   -1.8500    0.8700 o         1 3HP     -0.584000
      3 O2         -3.4410    0.1560    1.1670 os        1 3HP     -0.564000
      4 C7         -1.1210   -0.1810    1.6990 c3        1 3HP     -0.215000
      5 C1         -0.1610   -0.1180    0.5320 c2        1 3HP      0.023000
      6 C2         -0.0070    1.0630   -0.1760 c1        1 3HP     -0.176000
      7 C3          0.9020    1.1330   -1.2200 c1        1 3HP      0.054000
      8 C4          1.6570    0.0200   -1.5560 c1        1 3HP     -0.246000
      9 C5          1.5030   -1.1620   -0.8480 c1        1 3HP     -0.111000
     10 C6          0.5940   -1.2310    0.1950 c2        1 3HP     -0.151000
     11 O3          1.0500    2.3290   -1.9460 oh        1 3HP     -0.272000
     12 H71        -1.2080    0.7080    2.0980 hc        1 3HP      0.079500
     13 H72        -0.7800   -0.8070    2.3690 hc        1 3HP      0.079500
     14 H2         -0.5460    1.8440    0.0540 ha        1 3HP      0.137000
     15 H4          2.3040    0.0710   -2.2850 ha        1 3HP      0.108000
     16 H5          2.0350   -1.9450   -1.0850 ha        1 3HP      0.113000
     17 H6          0.4850   -2.0630    0.6940 ha        1 3HP      0.190000
     18 HO3         1.8480    2.6820   -1.7760 ho        1 3HP      0.198000
@<TRIPOS>BOND
     1    1    2 1   
     2    1    4 1   
     3    4    5 1   
     4    4   12 1   
     5    4   13 1   
     6    5    6 1   
     7    5   10 1   
     8    6   14 1   
     9    7    8 1   
    10    7   11 1   
    11    8   15 1   
    12    9   10 1   
    13    9   16 1   
    14   10   17 1   
    15   11   18 1   
@<TRIPOS>SUBSTRUCTURE
     1 3HP         1 TEMP              0 ****  ****    0 ROOT
