@<TRIPOS>MOLECULE
3HQ
   54    57     1     0     0
SMALL
bcc


@<TRIPOS>ATOM
      1 C01        -0.1270    0.8100   -0.2690 c3        1 3HQ     -0.050800
      2 C02         1.3270    0.5600   -0.1420 ca        1 3HQ     -0.093300
      3 C03         1.9240    0.4550    1.1180 ca        1 3HQ     -0.110000
      4 C04         3.2860    0.2080    1.2530 ca        1 3HQ     -0.149500
      5 C05         4.0930    0.0550    0.1060 ca        1 3HQ      0.048600
      6 N06         5.4910   -0.1230    0.1840 ns        1 3HQ     -0.455100
      7 C07         6.1040   -0.8810    1.2060 c         1 3HQ      0.764100
      8 O08         5.4930   -1.2300    2.2380 o         1 3HQ     -0.604100
      9 N09         7.4620   -1.2380    1.0060 ns        1 3HQ     -0.426100
     10 C10         8.2380   -1.7160    2.0530 cc        1 3HQ     -0.115700
     11 C11         7.8020   -2.4180    3.2610 cc        1 3HQ      0.329200
     12 N12         8.8730   -2.7870    3.9920 nd        1 3HQ     -0.488800
     13 N13         9.9730   -2.3640    3.3360 na        1 3HQ      0.149300
     14 C14         9.6460   -1.6960    2.1400 cd        1 3HQ     -0.190300
     15 C15        11.3000   -2.5790    3.7920 ca        1 3HQ      0.033800
     16 C16        12.3240   -1.6750    3.4340 ca        1 3HQ     -0.133000
     17 C17        13.6270   -1.8930    3.8730 ca        1 3HQ     -0.118000
     18 C18        13.9330   -2.9850    4.6820 ca        1 3HQ     -0.117000
     19 C19        12.9190   -3.8740    5.0480 ca        1 3HQ     -0.133600
     20 C20        11.6080   -3.6900    4.6040 ca        1 3HQ     -0.074000
     21 C21        13.2130   -5.0750    5.8910 c         1 3HQ      0.682700
     22 O22        12.8060   -6.2040    5.5720 o         1 3HQ     -0.566100
     23 N23        13.9570   -4.8250    7.0390 ns        1 3HQ     -0.469100
     24 C24        14.3630   -5.7560    8.0040 ca        1 3HQ      0.107600
     25 C25        14.1450   -7.1440    7.8950 ca        1 3HQ     -0.279300
     26 C26        14.6140   -7.9720    8.9280 ca        1 3HQ      0.422200
     27 N27        15.2610   -7.5420   10.0220 nb        1 3HQ     -0.687000
     28 C28        15.4720   -6.2040   10.1320 ca        1 3HQ      0.435600
     29 C29        16.1860   -5.6860   11.3400 c3        1 3HQ     -0.149400
     30 C30        15.0440   -5.2860    9.1560 ca        1 3HQ     -0.307300
     31 C31         3.4870    0.1560   -1.1680 ca        1 3HQ     -0.149500
     32 C32         2.1260    0.4100   -1.2800 ca        1 3HQ     -0.110000
     33 H1         -0.3600    1.3450   -1.2220 hc        1 3HQ      0.044367
     34 H2         -0.6820   -0.1620   -0.2690 hc        1 3HQ      0.044367
     35 H3         -0.5020    1.4270    0.5840 hc        1 3HQ      0.044367
     36 H4          1.3080    0.5690    2.0240 ha        1 3HQ      0.135000
     37 H5          3.7260    0.1220    2.2600 ha        1 3HQ      0.147500
     38 H6          5.9530   -0.0910   -0.7000 hn        1 3HQ      0.304500
     39 H7          7.9760   -0.7570    0.2990 hn        1 3HQ      0.306500
     40 H8          6.7690   -2.6160    3.5630 h4        1 3HQ      0.081100
     41 H9         10.4020   -1.3060    1.4640 h4        1 3HQ      0.179000
     42 H10        12.1040   -0.7920    2.8140 ha        1 3HQ      0.144000
     43 H11        14.4210   -1.1890    3.5790 ha        1 3HQ      0.143000
     44 H12        14.9700   -3.1480    5.0120 ha        1 3HQ      0.144000
     45 H13        10.8340   -4.4230    4.8910 ha        1 3HQ      0.181000
     46 H14        14.1850   -3.8740    7.2320 hn        1 3HQ      0.322500
     47 H15        13.6220   -7.5860    7.0340 ha        1 3HQ      0.181000
     48 H16        14.4570   -9.0660    8.8700 h4        1 3HQ      0.025100
     49 H17        16.3110   -4.5780   11.2750 hc        1 3HQ      0.053033
     50 H18        15.6070   -5.9290   12.2650 hc        1 3HQ      0.053033
     51 H19        17.1970   -6.1570   11.4260 hc        1 3HQ      0.053033
     52 H20        15.2420   -4.2150    9.3000 ha        1 3HQ      0.137000
     53 H21         4.0860    0.0400   -2.0840 ha        1 3HQ      0.147500
     54 H22         1.6720    0.4910   -2.2800 ha        1 3HQ      0.135000
@<TRIPOS>BOND
     1    1    2 1   
     2    1   33 1   
     3    1   34 1   
     4    1   35 1   
     5    2    3 ar  
     6    2   32 ar  
     7    3    4 ar  
     8    3   36 1   
     9    4    5 ar  
    10    4   37 1   
    11    5    6 1   
    12    5   31 ar  
    13    6    7 1   
    14    6   38 1   
    15    7    8 2   
    16    7    9 1   
    17    9   10 1   
    18    9   39 1   
    19   10   11 1   
    20   10   14 2   
    21   11   12 2   
    22   11   40 1   
    23   12   13 1   
    24   13   14 1   
    25   13   15 1   
    26   14   41 1   
    27   15   16 ar  
    28   15   20 ar  
    29   16   17 ar  
    30   16   42 1   
    31   17   18 ar  
    32   17   43 1   
    33   18   19 ar  
    34   18   44 1   
    35   19   20 ar  
    36   19   21 1   
    37   20   45 1   
    38   21   22 2   
    39   21   23 1   
    40   23   24 1   
    41   23   46 1   
    42   24   25 ar  
    43   24   30 ar  
    44   25   26 ar  
    45   25   47 1   
    46   26   27 ar  
    47   26   48 1   
    48   27   28 ar  
    49   28   29 1   
    50   28   30 ar  
    51   29   49 1   
    52   29   50 1   
    53   29   51 1   
    54   30   52 1   
    55   31   32 ar  
    56   31   53 1   
    57   32   54 1   
@<TRIPOS>SUBSTRUCTURE
     1 3HQ         1 TEMP              0 ****  ****    0 ROOT
