@<TRIPOS>MOLECULE
3HQ
   54    57     1     0     0
SMALL
bcc


@<TRIPOS>ATOM
      1 C01        -0.1230    0.8130   -0.2790 c3        1 3HQ     -0.050800
      2 C02         1.3290    0.5600   -0.1510 ca        1 3HQ     -0.093300
      3 C03         1.9280    0.4630    1.1090 ca        1 3HQ     -0.110000
      4 C04         3.2890    0.2130    1.2430 ca        1 3HQ     -0.149500
      5 C05         4.0940    0.0460    0.0970 ca        1 3HQ      0.048600
      6 N06         5.4920   -0.1350    0.1740 n         1 3HQ     -0.455100
      7 C07         6.1040   -0.8860    1.2020 c         1 3HQ      0.764100
      8 O08         5.4930   -1.2240    2.2380 o         1 3HQ     -0.604100
      9 N09         7.4600   -1.2500    1.0020 n         1 3HQ     -0.426100
     10 C10         8.2360   -1.7230    2.0530 cc        1 3HQ     -0.115700
     11 C11         7.8000   -2.4120    3.2670 cc        1 3HQ      0.329200
     12 N12         8.8710   -2.7790    3.9990 nd        1 3HQ     -0.488800
     13 N13         9.9710   -2.3670    3.3370 na        1 3HQ      0.149300
     14 C14         9.6440   -1.7080    2.1360 cd        1 3HQ     -0.190300
     15 C15        11.2990   -2.5850    3.7910 ca        1 3HQ      0.032800
     16 C16        12.3260   -1.6900    3.4230 ca        1 3HQ     -0.133000
     17 C17        13.6290   -1.9110    3.8600 ca        1 3HQ     -0.118000
     18 C18        13.9320   -2.9990    4.6760 ca        1 3HQ     -0.117000
     19 C19        12.9140   -3.8790    5.0520 ca        1 3HQ     -0.133600
     20 C20        11.6030   -3.6920    4.6110 ca        1 3HQ     -0.074000
     21 C21        13.2040   -5.0750    5.9040 c         1 3HQ      0.682700
     22 O22        12.7870   -6.2040    5.5960 o         1 3HQ     -0.566100
     23 N23        13.9550   -4.8210    7.0470 n         1 3HQ     -0.469100
     24 C24        14.3600   -5.7470    8.0170 ca        1 3HQ      0.107600
     25 C25        14.1290   -7.1340    7.9210 ca        1 3HQ     -0.279300
     26 C26        14.5980   -7.9570    8.9590 ca        1 3HQ      0.422200
     27 N27        15.2550   -7.5230   10.0450 nb        1 3HQ     -0.687000
     28 C28        15.4780   -6.1860   10.1410 ca        1 3HQ      0.435600
     29 C29        16.2050   -5.6630   11.3400 c3        1 3HQ     -0.149400
     30 C30        15.0520   -5.2730    9.1610 ca        1 3HQ     -0.307300
     31 C31         3.4870    0.1390   -1.1770 ca        1 3HQ     -0.149500
     32 C32         2.1260    0.3970   -1.2900 ca        1 3HQ     -0.110000
     33 H1         -0.4950    1.4420    0.5680 hc        1 3HQ      0.044367
     34 H2         -0.3570    1.3380   -1.2370 hc        1 3HQ      0.044367
     35 H3         -0.6830   -0.1560   -0.2650 hc        1 3HQ      0.044367
     36 H4          1.3140    0.5880    2.0140 ha        1 3HQ      0.135000
     37 H5          3.7300    0.1330    2.2510 ha        1 3HQ      0.147500
     38 H6          5.9520   -0.1120   -0.7110 hn        1 3HQ      0.304500
     39 H7          7.9750   -0.7770    0.2910 hn        1 3HQ      0.306500
     40 H8          6.7660   -2.6020    3.5740 h4        1 3HQ      0.081100
     41 H9         10.4000   -1.3270    1.4540 h4        1 3HQ      0.179000
     42 H10        12.1080   -0.8110    2.7970 ha        1 3HQ      0.144000
     43 H11        14.4260   -1.2140    3.5580 ha        1 3HQ      0.143000
     44 H12        14.9690   -3.1650    5.0040 ha        1 3HQ      0.144000
     45 H13        10.8260   -4.4180    4.9050 ha        1 3HQ      0.181000
     46 H14        14.1910   -3.8700    7.2310 hn        1 3HQ      0.322500
     47 H15        13.5970   -7.5790    7.0680 ha        1 3HQ      0.181000
     48 H16        14.4310   -9.0490    8.9110 h4        1 3HQ      0.025100
     49 H17        17.2150   -6.1370   11.4200 hc        1 3HQ      0.053033
     50 H18        16.3330   -4.5560   11.2680 hc        1 3HQ      0.053033
     51 H19        15.6330   -5.8980   12.2720 hc        1 3HQ      0.053033
     52 H20        15.2590   -4.2020    9.2940 ha        1 3HQ      0.137000
     53 H21         4.0840    0.0130   -2.0930 ha        1 3HQ      0.147500
     54 H22         1.6710    0.4710   -2.2890 ha        1 3HQ      0.135000
@<TRIPOS>BOND
     1    1    2 1   
     2    1   33 1   
     3    1   34 1   
     4    1   35 1   
     5    2    3 ar  
     6    2   32 ar  
     7    3    4 ar  
     8    3   36 1   
     9    4    5 ar  
    10    4   37 1   
    11    5    6 1   
    12    5   31 ar  
    13    6    7 1   
    14    6   38 1   
    15    7    8 2   
    16    7    9 1   
    17    9   10 1   
    18    9   39 1   
    19   10   11 1   
    20   10   14 2   
    21   11   12 2   
    22   11   40 1   
    23   12   13 1   
    24   13   14 1   
    25   13   15 1   
    26   14   41 1   
    27   15   16 ar  
    28   15   20 ar  
    29   16   17 ar  
    30   16   42 1   
    31   17   18 ar  
    32   17   43 1   
    33   18   19 ar  
    34   18   44 1   
    35   19   20 ar  
    36   19   21 1   
    37   20   45 1   
    38   21   22 2   
    39   21   23 1   
    40   23   24 1   
    41   23   46 1   
    42   24   25 ar  
    43   24   30 ar  
    44   25   26 ar  
    45   25   47 1   
    46   26   27 ar  
    47   26   48 1   
    48   27   28 ar  
    49   28   29 1   
    50   28   30 ar  
    51   29   49 1   
    52   29   50 1   
    53   29   51 1   
    54   30   52 1   
    55   31   32 ar  
    56   31   53 1   
    57   32   54 1   
@<TRIPOS>SUBSTRUCTURE
     1 3HQ         1 TEMP              0 ****  ****    0 ROOT
