@<TRIPOS>MOLECULE
3HR
   14    13     1     0     0
SMALL
bcc


@<TRIPOS>ATOM
      1 C1         -1.2420    0.0800    0.1250 c         1 3HR      0.908600
      2 O1         -1.2530   -1.1710    0.3440 o         1 3HR     -0.850800
      3 C2          0.0840    0.8350    0.3020 c3        1 3HR     -0.232400
      4 O2          1.5470   -1.1080    0.4960 oh        1 3HR     -0.658800
      5 C3          1.2610    0.0580   -0.2660 c3        1 3HR      0.169100
      6 O3         -2.2630    0.7390   -0.2140 o         1 3HR     -0.850800
      7 C4          2.5290    0.8970   -0.2720 c3        1 3HR     -0.092100
      8 H2          0.0130    1.8290   -0.2030 hc        1 3HR      0.032700
      9 H2A         0.2410    1.0040    1.3970 hc        1 3HR      0.032700
     10 HO2         0.6910   -1.5430    0.6600 ho        1 3HR      0.453000
     11 H3          1.0180   -0.2620   -1.3200 h1        1 3HR      0.021700
     12 H4          2.7610    1.2540    0.7590 hc        1 3HR      0.021367
     13 H4A         3.3900    0.2910   -0.6380 hc        1 3HR      0.021367
     14 H4B         2.3910    1.7800   -0.9400 hc        1 3HR      0.021367
@<TRIPOS>BOND
     1    1    2 1   
     2    1    3 1   
     3    1    6 1   
     4    3    5 1   
     5    3    8 1   
     6    3    9 1   
     7    4    5 1   
     8    4   10 1   
     9    5    7 1   
    10    5   11 1   
    11    7   12 1   
    12    7   13 1   
    13    7   14 1   
@<TRIPOS>SUBSTRUCTURE
     1 3HR         1 TEMP              0 ****  ****    0 ROOT
