@<TRIPOS>MOLECULE
3HR
   14    13     1     0     0
SMALL
bcc


@<TRIPOS>ATOM
      1 C1          0.1210   -0.0860    0.0380 c         1 3HR      0.908600
      2 O1          1.3120   -0.5220    0.0030 o         1 3HR     -0.850800
      3 C2         -0.6580   -0.2090    1.3570 c3        1 3HR     -0.232400
      4 O2          1.2160   -0.8380    2.7890 oh        1 3HR     -0.658800
      5 C3          0.2050    0.1360    2.5600 c3        1 3HR      0.169100
      6 O3         -0.4650    0.4280   -0.9550 o         1 3HR     -0.850800
      7 C4         -0.6240    0.2130    3.8330 c3        1 3HR     -0.092100
      8 H2         -1.5460    0.4690    1.3260 hc        1 3HR      0.032700
      9 H2A        -1.0200   -1.2630    1.4460 hc        1 3HR      0.032700
     10 HO2         1.6170   -1.0220    1.9210 ho        1 3HR      0.453000
     11 H3          0.7090    1.1300    2.3810 h1        1 3HR      0.021700
     12 H4         -1.3720    1.0340    3.7450 hc        1 3HR      0.021367
     13 H4A         0.0360    0.4090    4.7110 hc        1 3HR      0.021367
     14 H4B        -1.1590   -0.7510    4.0030 hc        1 3HR      0.021367
@<TRIPOS>BOND
     1    1    2 1   
     2    1    3 1   
     3    1    6 1   
     4    3    5 1   
     5    3    8 1   
     6    3    9 1   
     7    4    5 1   
     8    4   10 1   
     9    5    7 1   
    10    5   11 1   
    11    7   12 1   
    12    7   13 1   
    13    7   14 1   
@<TRIPOS>SUBSTRUCTURE
     1 3HR         1 TEMP              0 ****  ****    0 ROOT
