@<TRIPOS>MOLECULE
3HR
   14    12     1     0     0
SMALL
bcc


@<TRIPOS>ATOM
      1 C1          0.9990   -0.9370   -1.5460 c1        1 3HR      0.328000
      2 O1          2.2580   -0.9370   -1.5460 o         1 3HR     -0.585500
      3 C2          0.2420   -0.9370   -0.2360 c2        1 3HR     -0.261000
      4 O2          0.8630    1.3250    0.1940 oh        1 3HR     -0.386000
      5 C3         -0.2420    0.4630    0.0660 c3        1 3HR      0.058000
      6 O3          0.3690   -0.9370   -2.6370 o         1 3HR     -0.585500
      7 C4         -1.0290    0.4570    1.3570 c3        1 3HR     -0.210000
      8 H2         -0.5230   -1.5390   -0.3020 ha        1 3HR      0.072000
      9 H2A         0.8330   -1.2380    0.4800 ha        1 3HR      0.072000
     10 HO2         0.6360    2.1400   -0.0740 ho        1 3HR      0.252000
     11 H3         -0.8140    0.7740   -0.6620 h1        1 3HR      0.061000
     12 H4         -0.4420    0.2010    2.0940 hc        1 3HR      0.060667
     13 H4A        -1.7620   -0.1840    1.2880 hc        1 3HR      0.060667
     14 H4B        -1.3900    1.3480    1.5230 hc        1 3HR      0.060667
@<TRIPOS>BOND
     1    1    2 1   
     2    1    6 1   
     3    3    5 1   
     4    3    8 1   
     5    3    9 1   
     6    4    5 1   
     7    4   10 1   
     8    5    7 1   
     9    5   11 1   
    10    7   12 1   
    11    7   13 1   
    12    7   14 1   
@<TRIPOS>SUBSTRUCTURE
     1 3HR         1 TEMP              0 ****  ****    0 ROOT
