@<TRIPOS>MOLECULE
3HR
   14    13     1     0     0
SMALL
bcc


@<TRIPOS>ATOM
      1 C1          0.1050   -0.0440    0.0360 c         1 3HR      0.908600
      2 O1          1.2500   -0.5880   -0.0230 o         1 3HR     -0.850800
      3 C2         -0.6730   -0.1350    1.3580 c3        1 3HR     -0.232400
      4 O2          1.1420   -0.9790    2.7530 oh        1 3HR     -0.658800
      5 C3          0.2250    0.0900    2.5630 c3        1 3HR      0.169100
      6 O3         -0.4360    0.5550   -0.9340 o         1 3HR     -0.850800
      7 C4         -0.5860    0.2030    3.8450 c3        1 3HR     -0.092100
      8 H2         -1.4950    0.6230    1.3550 hc        1 3HR      0.032700
      9 H2A        -1.1310   -1.1540    1.4180 hc        1 3HR      0.032700
     10 HO2         1.5190   -1.1730    1.8760 ho        1 3HR      0.453000
     11 H3          0.8180    1.0390    2.4100 h1        1 3HR      0.021700
     12 H4         -1.2550    1.0930    3.7890 hc        1 3HR      0.021367
     13 H4A         0.0950    0.3100    4.7230 hc        1 3HR      0.021367
     14 H4B        -1.2070   -0.7120    3.9900 hc        1 3HR      0.021367
@<TRIPOS>BOND
     1    1    2 1   
     2    1    3 1   
     3    1    6 1   
     4    3    5 1   
     5    3    8 1   
     6    3    9 1   
     7    4    5 1   
     8    4   10 1   
     9    5    7 1   
    10    5   11 1   
    11    7   12 1   
    12    7   13 1   
    13    7   14 1   
@<TRIPOS>SUBSTRUCTURE
     1 3HR         1 TEMP              0 ****  ****    0 ROOT
