@<TRIPOS>MOLECULE
3HS
   58    70     1     0     0
SMALL
bcc


@<TRIPOS>ATOM
      1 C10         0.0000    0.0000    0.0000 c3        1 3HS     -0.133000
      2 C13        -0.0070    0.0020    2.3950 c3        1 3HS     -0.368000
      3 C15         0.7010   -1.7900    4.7740 c2        1 3HS      0.133000
      4 C17        -0.7930   -3.3390    3.7090 c2        1 3HS     -0.289000
      5 C21        -2.6400   -7.1040    5.3150 c2        1 3HS      0.335000
      6 C22        -2.0490   -8.4450    5.4920 ca        1 3HS     -0.355000
      7 C24        -0.1090   -9.8330    5.7130 ca        1 3HS     -0.237000
      8 C26        -0.3340  -12.2950    6.0020 c2        1 3HS     -0.212000
      9 C28         1.1340  -13.9490    6.2390 c2        1 3HS     -0.242000
     10 O01         5.3630    2.1270    5.1230 o         1 3HS     -0.524000
     11 C03         3.5240    0.5150    5.1060 c2        1 3HS     -0.038000
     12 N04         3.0890    0.7510    3.8820 n2        1 3HS     -0.059000
     13 N05         2.0800    0.0030    3.6120 na        1 3HS      0.360000
     14 C06         1.3820    0.0030    2.3990 c3        1 3HS     -0.321000
     15 C07         2.0770    0.0000    1.1960 c2        1 3HS     -0.149000
     16 C08         1.3850    0.0000    0.0000 c2        1 3HS     -0.142000
     17 Cl1         2.2530   -0.0010   -1.5030 cl        1 3HS      0.186000
     18 Cl2        -0.8660   -0.0080   -1.5040 cl        1 3HS      0.149000
     19 C12        -0.6940    0.0000    1.1960 c2        1 3HS     -0.091000
     20 C14         1.7890   -0.7920    4.6850 c2        1 3HS     -0.418000
     21 C16         0.2190   -2.4060    3.6190 c3        1 3HS     -0.099000
     22 C18        -1.3290   -3.6670    4.9420 DU        1 3HS     -0.416000
     23 C19        -2.4280   -4.6930    5.0330 DU        1 3HS     -0.271000
     24 N20        -1.8410   -6.0240    5.2090 ny        1 3HS     -0.115000
     25 C23        -0.6600   -8.5940    5.5500 ca        1 3HS     -0.247000
     26 C25        -0.9320  -10.9580    5.8250 ca        1 3HS      0.042000
     27 C27         1.0030  -12.5670    6.0670 c2        1 3HS     -0.204000
     28 C29        -0.1430  -14.4680    6.2760 c2        1 3HS     -0.012000
     29 C30        -0.4920  -15.8810    6.4430 c2        1 3HS      0.439000
     30 O31        -1.7880  -16.2560    6.4610 o         1 3HS     -0.558000
     31 O32         0.3840  -16.7140    6.5630 o         1 3HS     -0.558000
     32 O33        -1.0140  -13.4470    6.1340 os        1 3HS      0.053000
     33 C34        -2.3210  -10.8160    5.7750 ca        1 3HS     -0.207000
     34 C35        -2.8770   -9.5650    5.6090 ca        1 3HS     -0.085000
     35 Cl3        -4.6020   -9.3810    5.5470 cl        1 3HS      0.213000
     36 O37        -3.8480   -6.9730    5.2660 o         1 3HS     -0.300000
     37 C38        -0.8590   -3.0550    6.0910 c3        1 3HS     -0.286000
     38 C39         0.1560   -2.1240    6.0150 c2        1 3HS     -0.239000
     39 C40         2.7020   -0.4920    5.6580 c2        1 3HS      0.000000
     40 O41         4.9670    0.8650    6.9060 o         1 3HS     -0.524000
     41 H131        0.8340    0.2450    3.0340 DU        1 3HS      0.361000
     42 H171       -0.7170   -2.2650    3.5910 DU        1 3HS      0.268000
     43 H241       -0.2790   -8.8700    5.2480 ha        1 3HS      0.246000
     44 H281        1.2210  -12.8760    6.1200 ha        1 3HS      0.189000
     45 H071        2.0760   -1.0210    1.5570 ha        1 3HS      0.180000
     46 H121        0.3900    0.0000    1.1960 DU        1 3HS      0.225000
     47 H161       -0.3280   -1.7480    2.9550 hc        1 3HS      0.221000
     48 H191       -1.7130   -4.1000    4.4770 DU        1 3HS      0.415000
     49 H192       -3.0660   -4.4650    5.8790 hx        1 3HS      0.175000
     50 H201       -2.4040   -5.3800    4.6890 DU        1 3HS      0.217000
     51 H231       -0.9770   -7.6810    5.0620 ha        1 3HS      0.288000
     52 H271        0.7810  -11.5150    5.9360 ha        1 3HS      0.318000
     53 H341       -1.2810  -11.1100    5.8350 ha        1 3HS      0.225000
     54 H381       -1.1150   -4.1070    6.0540 DU        1 3HS      0.346000
     55 H391       -0.5730   -2.7270    6.5420 DU        1 3HS      0.319000
     56 H401        1.8370   -0.9250    6.1460 ha        1 3HS      0.223000
     57 H202       -1.1010   -5.3640    5.3480 hn        1 3HS      0.147000
     58 C02         4.6620    1.1770    5.7720 c2        1 3HS      0.426000
@<TRIPOS>BOND
     1    1   16 1   
     2    1   18 1   
     3    1   19 1   
     4    1   46 1   
     5    2   14 1   
     6    2   19 1   
     7    2   41 1   
     8    2   46 1   
     9    3   20 1   
    10    3   21 1   
    11    3   38 1   
    12    4   21 1   
    13    4   22 1   
    14    4   42 1   
    15    5    6 1   
    16    5   24 1   
    17    5   36 1   
    18    6   25 1   
    19    6   34 1   
    20    7   25 1   
    21    7   26 1   
    22    7   43 1   
    23    8   26 1   
    24    8   27 1   
    25    8   32 1   
    26    9   27 1   
    27    9   28 1   
    28    9   44 1   
    29   10   58 1   
    30   11   12 1   
    31   11   39 1   
    32   11   58 1   
    33   12   13 1   
    34   13   14 1   
    35   13   20 1   
    36   14   15 1   
    37   14   41 1   
    38   15   16 1   
    39   15   45 1   
    40   16   17 1   
    41   19   46 1   
    42   20   39 1   
    43   21   42 1   
    44   21   47 1   
    45   22   23 1   
    46   22   37 1   
    47   22   48 1   
    48   22   54 1   
    49   23   24 1   
    50   23   48 1   
    51   23   49 1   
    52   23   50 1   
    53   24   50 1   
    54   24   57 1   
    55   25   51 1   
    56   26   33 1   
    57   27   52 1   
    58   28   29 1   
    59   28   32 1   
    60   29   30 1   
    61   29   31 1   
    62   33   34 1   
    63   33   53 1   
    64   34   35 1   
    65   37   38 1   
    66   37   54 1   
    67   37   55 1   
    68   38   55 1   
    69   39   56 1   
    70   40   58 1   
@<TRIPOS>SUBSTRUCTURE
     1 3HS         1 TEMP              0 ****  ****    0 ROOT
