@<TRIPOS>MOLECULE
3HT
   35    38     1     0     0
SMALL
bcc


@<TRIPOS>ATOM
      1 C4         -0.0460   -0.2540    0.0050 ca        1 3HT     -0.164000
      2 C5          1.3380   -0.1760    0.0060 ca        1 3HT     -0.106000
      3 C6          2.0430    0.0270    1.2150 ca        1 3HT     -0.029200
      4 C7          1.3210    0.1540    2.4180 ca        1 3HT     -0.106000
      5 C8         -0.0690    0.0870    2.4170 ca        1 3HT     -0.164000
      6 C10         4.3120   -0.7290    0.4420 cc        1 3HT      0.442700
      7 C13         6.7210    1.2530    2.1760 ca        1 3HT     -0.076000
      8 C15         5.1270    2.6160    3.4270 ca        1 3HT     -0.113900
      9 C17         4.2830    0.9390    1.9570 ca        1 3HT     -0.081200
     10 C21         5.5740    5.3310    5.8050 c         1 3HT      0.491500
     11 S22         6.4840    6.2940    6.6120 s         1 3HT     -0.356400
     12 N20         4.1810    5.1750    5.7430 ns        1 3HT     -0.287900
     13 N19         3.7880    4.2040    4.8970 nc        1 3HT     -0.480300
     14 O32         6.0460    4.3460    4.9120 os        1 3HT     -0.369700
     15 C18         4.9060    3.6850    4.3820 cd        1 3HT      0.556200
     16 C14         6.4520    2.2620    3.0860 ca        1 3HT     -0.110000
     17 C16         4.0240    1.9650    2.8680 ca        1 3HT     -0.080000
     18 C12         5.6440    0.5730    1.5910 ca        1 3HT      0.092400
     19 N11         5.6120   -0.4710    0.6450 nd        1 3HT     -0.564100
     20 N9          3.4490    0.0900    1.2060 na        1 3HT     -0.094400
     21 C3         -0.7540   -0.1190    1.2150 ca        1 3HT      0.127100
     22 O2         -2.1250   -0.2070    1.0970 os        1 3HT     -0.321900
     23 C1         -2.8710   -0.0710    2.3030 c3        1 3HT      0.111700
     24 H4         -0.6010   -0.4140   -0.9300 ha        1 3HT      0.152000
     25 H5          1.8830   -0.2730   -0.9460 ha        1 3HT      0.147000
     26 H7          1.8510    0.3050    3.3730 ha        1 3HT      0.147000
     27 H8         -0.6120    0.1930    3.3680 ha        1 3HT      0.152000
     28 H10         3.9150   -1.4960   -0.2370 h5        1 3HT      0.076800
     29 H13         7.7550    0.9870    1.9120 ha        1 3HT      0.159000
     30 HN20        3.5010    5.7220    6.2210 hn        1 3HT      0.386500
     31 H14         7.2850    2.8080    3.5590 ha        1 3HT      0.159000
     32 H16         2.9940    2.2510    3.1250 ha        1 3HT      0.159000
     33 H1         -3.9330   -0.1730    1.9620 h1        1 3HT      0.048700
     34 H1A        -2.6990    0.9320    2.7620 h1        1 3HT      0.048700
     35 H1B        -2.6080   -0.8840    3.0220 h1        1 3HT      0.048700
@<TRIPOS>BOND
     1    1    2 ar  
     2    1   21 ar  
     3    1   24 1   
     4    2    3 ar  
     5    2   25 1   
     6    3    4 ar  
     7    3   20 1   
     8    4    5 ar  
     9    4   26 1   
    10    5   21 ar  
    11    5   27 1   
    12    6   19 2   
    13    6   20 1   
    14    6   28 1   
    15    7   16 ar  
    16    7   18 ar  
    17    7   29 1   
    18    8   15 1   
    19    8   16 ar  
    20    8   17 ar  
    21    9   17 ar  
    22    9   18 ar  
    23    9   20 1   
    24   10   11 2   
    25   10   12 1   
    26   10   14 1   
    27   12   13 1   
    28   12   30 1   
    29   13   15 2   
    30   14   15 1   
    31   16   31 1   
    32   17   32 1   
    33   18   19 1   
    34   21   22 1   
    35   22   23 1   
    36   23   33 1   
    37   23   34 1   
    38   23   35 1   
@<TRIPOS>SUBSTRUCTURE
     1 3HT         1 TEMP              0 ****  ****    0 ROOT
