@<TRIPOS>MOLECULE
3HT
   35    38     1     0     0
SMALL
bcc


@<TRIPOS>ATOM
      1 C4         -4.8590    0.3790   -0.8550 ca        1 3HT     -0.164000
      2 C5         -3.9410   -0.6590   -0.8300 ca        1 3HT     -0.106000
      3 C6         -2.7750   -0.5650   -0.0350 ca        1 3HT     -0.029200
      4 C7         -2.5560    0.5980    0.7290 ca        1 3HT     -0.106000
      5 C8         -3.4730    1.6450    0.6980 ca        1 3HT     -0.164000
      6 C10        -2.1810   -3.0070    0.0250 cc        1 3HT      0.442700
      7 C13         1.3810   -3.2140    0.1050 ca        1 3HT     -0.076000
      8 C15         1.8120   -0.8110    0.0270 ca        1 3HT     -0.113900
      9 C17        -0.4510   -1.5630    0.0220 ca        1 3HT     -0.081200
     10 C21         4.8960    1.1160   -0.0170 c         1 3HT      0.491500
     11 S22         6.4440    1.2000   -0.0200 s         1 3HT     -0.356400
     12 N20         3.8940    2.0980   -0.0330 n         1 3HT     -0.287900
     13 N19         2.6480    1.5920   -0.0260 nc        1 3HT     -0.480300
     14 O32         4.1610   -0.0890    0.0100 os        1 3HT     -0.369700
     15 C18         2.7860    0.2630    0.0030 cd        1 3HT      0.556200
     16 C14         2.2660   -2.1480    0.0850 ca        1 3HT     -0.110000
     17 C16         0.4510   -0.4980   -0.0090 ca        1 3HT     -0.080000
     18 C12         0.0070   -2.9440    0.0720 ca        1 3HT      0.092400
     19 N11        -1.1080   -3.8080    0.0720 nd        1 3HT     -0.564100
     20 N9         -1.8560   -1.6310   -0.0080 na        1 3HT     -0.094400
     21 C3         -4.6240    1.5380   -0.0900 ca        1 3HT      0.127100
     22 O2         -5.5990    2.5080   -0.1930 os        1 3HT     -0.321900
     23 C1         -5.3890    3.6940    0.5660 c3        1 3HT      0.111700
     24 H4         -5.7690    0.3130   -1.4680 ha        1 3HT      0.152000
     25 H5         -4.1280   -1.5570   -1.4400 ha        1 3HT      0.147000
     26 H7         -1.6590    0.6890    1.3610 ha        1 3HT      0.147000
     27 H8         -3.2790    2.5450    1.2990 ha        1 3HT      0.152000
     28 H10        -3.2260   -3.3450    0.0180 h5        1 3HT      0.076800
     29 H13         1.7430   -4.2520    0.1450 ha        1 3HT      0.159000
     30 HN20        4.0300    3.0820   -0.0830 hn        1 3HT      0.386500
     31 H14         3.3520   -2.3390    0.1120 ha        1 3HT      0.159000
     32 H16         0.1010    0.5430   -0.0670 ha        1 3HT      0.159000
     33 H1         -6.2880    4.3170    0.3250 h1        1 3HT      0.048700
     34 H1A        -5.3520    3.4620    1.6580 h1        1 3HT      0.048700
     35 H1B        -4.4530    4.2100    0.2420 h1        1 3HT      0.048700
@<TRIPOS>BOND
     1    1    2 ar  
     2    1   21 ar  
     3    1   24 1   
     4    2    3 ar  
     5    2   25 1   
     6    3    4 ar  
     7    3   20 1   
     8    4    5 ar  
     9    4   26 1   
    10    5   21 ar  
    11    5   27 1   
    12    6   19 2   
    13    6   20 1   
    14    6   28 1   
    15    7   16 ar  
    16    7   18 ar  
    17    7   29 1   
    18    8   15 1   
    19    8   16 ar  
    20    8   17 ar  
    21    9   17 ar  
    22    9   18 ar  
    23    9   20 1   
    24   10   11 2   
    25   10   12 1   
    26   10   14 1   
    27   12   13 1   
    28   12   30 1   
    29   13   15 2   
    30   14   15 1   
    31   16   31 1   
    32   17   32 1   
    33   18   19 1   
    34   21   22 1   
    35   22   23 1   
    36   23   33 1   
    37   23   34 1   
    38   23   35 1   
@<TRIPOS>SUBSTRUCTURE
     1 3HT         1 TEMP              0 ****  ****    0 ROOT
