@<TRIPOS>MOLECULE
3HT
   35    38     1     0     0
SMALL
bcc


@<TRIPOS>ATOM
      1 C4         -0.0450   -0.2670    0.0130 ca        1 3HT     -0.164000
      2 C5          1.3390   -0.1880    0.0130 ca        1 3HT     -0.106000
      3 C6          2.0450    0.0210    1.2210 ca        1 3HT     -0.029200
      4 C7          1.3230    0.1520    2.4230 ca        1 3HT     -0.106000
      5 C8         -0.0680    0.0830    2.4230 ca        1 3HT     -0.164000
      6 C10         4.3140   -0.7350    0.4490 cc        1 3HT      0.442700
      7 C13         6.7210    1.2580    2.1750 ca        1 3HT     -0.076000
      8 C15         5.1250    2.6230    3.4210 ca        1 3HT     -0.113900
      9 C17         4.2830    0.9390    1.9580 ca        1 3HT     -0.081200
     10 C21         5.5700    5.3480    5.7880 c         1 3HT      0.491500
     11 S22         6.4780    6.3160    6.5900 s         1 3HT     -0.356400
     12 N20         4.1770    5.1890    5.7280 n         1 3HT     -0.287900
     13 N19         3.7850    4.2140    4.8870 nc        1 3HT     -0.480300
     14 O32         6.0430    4.3600    4.8980 os        1 3HT     -0.369700
     15 C18         4.9040    3.6950    4.3730 cd        1 3HT      0.556200
     16 C14         6.4500    2.2690    3.0810 ca        1 3HT     -0.110000
     17 C16         4.0240    1.9680    2.8650 ca        1 3HT     -0.080000
     18 C12         5.6450    0.5740    1.5930 ca        1 3HT      0.092400
     19 N11         5.6130   -0.4740    0.6500 nd        1 3HT     -0.564100
     20 N9          3.4500    0.0860    1.2110 na        1 3HT     -0.094400
     21 C3         -0.7520   -0.1280    1.2220 ca        1 3HT      0.127100
     22 O2         -2.1240   -0.2180    1.1050 os        1 3HT     -0.321900
     23 C1         -2.8690   -0.0800    2.3100 c3        1 3HT      0.111700
     24 H4         -0.6000   -0.4310   -0.9220 ha        1 3HT      0.152000
     25 H5          1.8840   -0.2860   -0.9400 ha        1 3HT      0.147000
     26 H7          1.8520    0.3070    3.3770 ha        1 3HT      0.147000
     27 H8         -0.6100    0.1910    3.3740 ha        1 3HT      0.152000
     28 H10         3.9180   -1.5050   -0.2260 h5        1 3HT      0.076800
     29 H13         7.7550    0.9920    1.9110 ha        1 3HT      0.159000
     30 HN20        3.4970    5.7360    6.2050 hn        1 3HT      0.386500
     31 H14         7.2830    2.8190    3.5510 ha        1 3HT      0.159000
     32 H16         2.9930    2.2540    3.1220 ha        1 3HT      0.159000
     33 H1         -3.9310   -0.1850    1.9700 h1        1 3HT      0.048700
     34 H1A        -2.6980    0.9250    2.7660 h1        1 3HT      0.048700
     35 H1B        -2.6040   -0.8900    3.0320 h1        1 3HT      0.048700
@<TRIPOS>BOND
     1    1    2 ar  
     2    1   21 ar  
     3    1   24 1   
     4    2    3 ar  
     5    2   25 1   
     6    3    4 ar  
     7    3   20 1   
     8    4    5 ar  
     9    4   26 1   
    10    5   21 ar  
    11    5   27 1   
    12    6   19 2   
    13    6   20 1   
    14    6   28 1   
    15    7   16 ar  
    16    7   18 ar  
    17    7   29 1   
    18    8   15 1   
    19    8   16 ar  
    20    8   17 ar  
    21    9   17 ar  
    22    9   18 ar  
    23    9   20 1   
    24   10   11 2   
    25   10   12 1   
    26   10   14 1   
    27   12   13 1   
    28   12   30 1   
    29   13   15 2   
    30   14   15 1   
    31   16   31 1   
    32   17   32 1   
    33   18   19 1   
    34   21   22 1   
    35   22   23 1   
    36   23   33 1   
    37   23   34 1   
    38   23   35 1   
@<TRIPOS>SUBSTRUCTURE
     1 3HT         1 TEMP              0 ****  ****    0 ROOT
