@<TRIPOS>MOLECULE
3HT
   35    27     1     0     0
SMALL
bcc


@<TRIPOS>ATOM
      1 C4         -2.8110    2.1440    0.5900 c1        1 3HT     -0.188000
      2 C5         -1.4300    2.0880    0.6930 c1        1 3HT     -0.086000
      3 C6         -0.6570    1.8970   -0.4410 c1        1 3HT     -0.022333
      4 C7         -1.2650    1.7610   -1.6790 c1        1 3HT     -0.125000
      5 C8         -2.6470    1.8160   -1.7820 c1        1 3HT     -0.125000
      6 C10         1.4100    2.9350   -0.2030 c1        1 3HT     -0.013000
      7 C13         3.7540    0.3450    0.6130 c1        1 3HT     -0.086000
      8 C15         2.2660   -1.5150    0.3180 c1        1 3HT     -0.030000
      9 C17         1.4800    0.7450   -0.0450 c1        1 3HT     -0.022333
     10 C21         2.8960   -5.1110    0.2360 c1        1 3HT      0.051000
     11 S22         3.1630   -6.6080   -0.4630 s         1 3HT     -0.073000
     12 N20         2.2270   -4.8570    1.5810 n3        1 3HT     -0.267000
     13 N19         1.8130   -3.5920    1.4980 n2        1 3HT     -0.060000
     14 O32         2.7480   -3.8070   -0.4970 o         1 3HT     -0.146000
     15 C18         2.0920   -3.0180    0.3770 c2        1 3HT      0.051000
     16 C14         3.5210   -1.0210    0.6360 c1        1 3HT     -0.110000
     17 C16         1.2430   -0.6430   -0.0220 c1        1 3HT     -0.086000
     18 C12         2.7160    1.2310    0.2680 c1        1 3HT     -0.022333
     19 N11         2.6700    2.5830    0.1690 n1        1 3HT     -0.141500
     20 N9          0.6770    1.7980   -0.3350 n1        1 3HT     -0.141500
     21 C3         -3.4190    2.0080   -0.6480 c1        1 3HT      0.082000
     22 O2         -4.8210    2.0310   -0.7490 os        1 3HT     -0.205000
     23 C1         -5.4390    0.8110   -0.4060 c3        1 3HT     -0.078000
     24 H4         -3.3550    2.2780    1.3880 ha        1 3HT      0.146000
     25 H5         -1.0020    2.1840    1.5650 ha        1 3HT      0.155667
     26 H7         -0.7210    1.6260   -2.4780 ha        1 3HT      0.151500
     27 H8         -3.0750    1.7200   -2.6540 ha        1 3HT      0.151500
     28 H10         1.0880    3.8450   -0.3460 DU        1 3HT      0.206000
     29 H13         4.6390    0.6940    0.8370 ha        1 3HT      0.155667
     30 HN20        2.3760   -5.3220    2.3500 hn        1 3HT      0.300000
     31 H14         4.2440   -1.6350    0.8650 ha        1 3HT      0.159000
     32 H16         0.3630   -0.9920   -0.2580 ha        1 3HT      0.155667
     33 H1         -6.3400    0.7800   -0.7930 h1        1 3HT      0.088000
     34 H1A        -4.9060    0.0640   -0.7570 h1        1 3HT      0.088000
     35 H1B        -5.5000    0.7380    0.5710 h1        1 3HT      0.088000
@<TRIPOS>BOND
     1    1   21 1   
     2    1   24 1   
     3    2    3 1   
     4    2   25 1   
     5    4    5 1   
     6    4   26 1   
     7    5   27 1   
     8    6   19 1   
     9    6   20 1   
    10    7   18 1   
    11    7   29 1   
    12    8   15 1   
    13    8   16 1   
    14    9   17 1   
    15   10   11 1   
    16   10   12 1   
    17   12   13 1   
    18   12   30 1   
    19   13   15 1   
    20   14   15 1   
    21   16   31 1   
    22   17   32 1   
    23   21   22 1   
    24   22   23 1   
    25   23   33 1   
    26   23   34 1   
    27   23   35 1   
@<TRIPOS>SUBSTRUCTURE
     1 3HT         1 TEMP              0 ****  ****    0 ROOT
