@<TRIPOS>MOLECULE
3HT
   35    38     1     0     0
SMALL
bcc


@<TRIPOS>ATOM
      1 C4         -0.0450   -0.2630    0.0110 ca        1 3HT     -0.164000
      2 C5          1.3390   -0.1850    0.0110 ca        1 3HT     -0.106000
      3 C6          2.0440    0.0230    1.2200 ca        1 3HT     -0.029200
      4 C7          1.3220    0.1530    2.4220 ca        1 3HT     -0.106000
      5 C8         -0.0690    0.0850    2.4210 ca        1 3HT     -0.164000
      6 C10         4.3140   -0.7350    0.4490 cc        1 3HT      0.442700
      7 C13         6.7210    1.2550    2.1760 ca        1 3HT     -0.076000
      8 C15         5.1260    2.6210    3.4230 ca        1 3HT     -0.113900
      9 C17         4.2830    0.9380    1.9580 ca        1 3HT     -0.081200
     10 C21         5.5720    5.3440    5.7920 c         1 3HT      0.491500
     11 S22         6.4810    6.3100    6.5950 s         1 3HT     -0.356400
     12 N20         4.1790    5.1860    5.7310 n         1 3HT     -0.287900
     13 N19         3.7870    4.2130    4.8890 nc        1 3HT     -0.480300
     14 O32         6.0440    4.3560    4.9010 os        1 3HT     -0.369700
     15 C18         4.9050    3.6920    4.3750 cd        1 3HT      0.556200
     16 C14         6.4510    2.2660    3.0830 ca        1 3HT     -0.110000
     17 C16         4.0240    1.9670    2.8660 ca        1 3HT     -0.080000
     18 C12         5.6450    0.5720    1.5940 ca        1 3HT      0.092400
     19 N11         5.6130   -0.4750    0.6510 nd        1 3HT     -0.564100
     20 N9          3.4500    0.0870    1.2100 na        1 3HT     -0.094400
     21 C3         -0.7530   -0.1250    1.2200 ca        1 3HT      0.127100
     22 O2         -2.1240   -0.2140    1.1020 os        1 3HT     -0.321900
     23 C1         -2.8700   -0.0760    2.3070 c3        1 3HT      0.111700
     24 H4         -0.6000   -0.4270   -0.9250 ha        1 3HT      0.152000
     25 H5          1.8840   -0.2840   -0.9410 ha        1 3HT      0.147000
     26 H7          1.8510    0.3070    3.3760 ha        1 3HT      0.147000
     27 H8         -0.6110    0.1930    3.3720 ha        1 3HT      0.152000
     28 H10         3.9170   -1.5040   -0.2270 h5        1 3HT      0.076800
     29 H13         7.7550    0.9890    1.9130 ha        1 3HT      0.159000
     30 HN20        3.4990    5.7340    6.2070 hn        1 3HT      0.386500
     31 H14         7.2840    2.8150    3.5540 ha        1 3HT      0.159000
     32 H16         2.9930    2.2530    3.1220 ha        1 3HT      0.159000
     33 H1         -2.6990    0.9280    2.7640 h1        1 3HT      0.048700
     34 H1A        -2.6060   -0.8870    3.0290 h1        1 3HT      0.048700
     35 H1B        -3.9320   -0.1800    1.9660 h1        1 3HT      0.048700
@<TRIPOS>BOND
     1    1    2 ar  
     2    1   21 ar  
     3    1   24 1   
     4    2    3 ar  
     5    2   25 1   
     6    3    4 ar  
     7    3   20 1   
     8    4    5 ar  
     9    4   26 1   
    10    5   21 ar  
    11    5   27 1   
    12    6   19 2   
    13    6   20 1   
    14    6   28 1   
    15    7   16 ar  
    16    7   18 ar  
    17    7   29 1   
    18    8   15 1   
    19    8   16 ar  
    20    8   17 ar  
    21    9   17 ar  
    22    9   18 ar  
    23    9   20 1   
    24   10   11 2   
    25   10   12 1   
    26   10   14 1   
    27   12   13 1   
    28   12   30 1   
    29   13   15 2   
    30   14   15 1   
    31   16   31 1   
    32   17   32 1   
    33   18   19 1   
    34   21   22 1   
    35   22   23 1   
    36   23   33 1   
    37   23   34 1   
    38   23   35 1   
@<TRIPOS>SUBSTRUCTURE
     1 3HT         1 TEMP              0 ****  ****    0 ROOT
