@<TRIPOS>MOLECULE
3HU
   38    51     1     0     0
SMALL
bcc


@<TRIPOS>ATOM
      1 C           0.0000    0.0000    0.0000 c2        1 3HU      0.385000
      2 N           1.9960    1.2000   -0.6920 nz        1 3HU      0.270000
      3 OXT        -0.6040    1.0300   -0.1810 o         1 3HU     -0.491500
      4 CA          1.5070    0.0000    0.0000 DU        1 3HU      0.318000
      5 CB          2.0170    0.0000    1.4430 c3        1 3HU      0.257000
      6 OAB         7.5500   -4.6350    0.8900 o         1 3HU     -0.552500
      7 OAF         7.9280   -6.1610    2.4610 o         1 3HU     -0.552500
      8 CAH         6.3000   -2.6920    5.0530 c2        1 3HU     -0.332000
      9 CAI         6.0780   -2.0660    3.8920 c3        1 3HU     -0.117000
     10 CAJ         5.9960    2.7550    1.5170 c2        1 3HU     -0.138000
     11 CAK         3.5040    2.6130    1.5170 c2        1 3HU     -0.312000
     12 SAN         4.7170    3.8770    1.5520 ss        1 3HU      0.346000
     13 SAO         7.0190   -4.2180    4.7980 ss        1 3HU      0.383000
     14 CAP         7.5110   -4.9400    2.0670 c2        1 3HU      0.406000
     15 CAR         6.4650   -2.7620    2.7720 c3        1 3HU     -0.378000
     16 CAS         7.0120   -3.9820    3.0550 c2        1 3HU     -0.055000
     17 CAT         6.2700    0.1870    1.4420 c2        1 3HU      0.241000
     18 CAU         4.2340   -0.9850    1.4110 c2        1 3HU      0.102000
     19 CAV         5.5310    1.4720    1.4810 c3        1 3HU     -0.205000
     20 CAW         4.0730    1.4020    1.4810 DU        1 3HU     -0.190000
     21 NAY         5.5730   -0.9620    1.4080 nx        1 3HU      0.197000
     22 NAZ         3.4770    0.1210    1.4450 n         1 3HU     -0.088000
     23 O          -0.6700   -1.1460    0.1980 o         1 3HU     -0.491500
     24 HN          2.7750    0.6850   -0.3320 DU        1 3HU      0.309000
     25 HNA         2.9350    1.0250   -0.3940 DU        1 3HU      0.068500
     26 HA          2.2240   -0.7320    0.3530 hx        1 3HU      0.127000
     27 HB          1.8550    0.8290    0.7650 DU        1 3HU     -0.339500
     28 HBA         1.9200    0.3600    0.4260 DU        1 3HU     -0.339500
     29 HAH         5.6460   -2.4250    4.2320 DU        1 3HU      0.132000
     30 HAI         5.2210   -1.5120    3.5280 hc        1 3HU      0.097000
     31 HAJ         5.1780    2.0490    1.5960 DU        1 3HU      0.116000
     32 HAK         3.8920    1.8680    2.2020 DU        1 3HU      0.137000
     33 HAL         6.0410   -1.7870    2.3230 DU        1 3HU      0.317000
     34 HALA        6.4540   -1.1600    1.4010 DU        1 3HU     -0.149000
     35 CAL         6.3020   -2.2320    1.3700 c3        1 3HU     -0.007000
     36 OAD         7.4860    0.1730    1.4390 o         1 3HU     -0.254000
     37 HN3         2.6360    0.4500   -0.8680 DU        1 3HU      0.068500
     38 OAE         3.6750   -2.0640    1.3800 o         1 3HU     -0.287000
@<TRIPOS>BOND
     1    1    3 1   
     2    1    4 1   
     3    1   23 1   
     4    2    4 1   
     5    2   24 1   
     6    2   25 1   
     7    2   37 1   
     8    4    5 1   
     9    4   26 1   
    10    4   27 1   
    11    4   28 1   
    12    5   22 1   
    13    5   27 1   
    14    5   28 1   
    15    6   14 1   
    16    7   14 1   
    17    8    9 1   
    18    8   13 1   
    19    8   29 1   
    20    9   15 1   
    21    9   29 1   
    22    9   30 1   
    23   10   12 1   
    24   10   19 1   
    25   10   31 1   
    26   11   12 1   
    27   11   20 1   
    28   11   32 1   
    29   13   16 1   
    30   14   16 1   
    31   15   16 1   
    32   15   33 1   
    33   15   35 1   
    34   17   19 1   
    35   17   21 1   
    36   17   36 1   
    37   18   21 1   
    38   18   22 1   
    39   18   38 1   
    40   19   20 1   
    41   19   31 1   
    42   20   22 1   
    43   20   31 1   
    44   20   32 1   
    45   21   34 1   
    46   21   35 1   
    47   24   25 1   
    48   24   37 1   
    49   27   28 1   
    50   33   35 1   
    51   34   35 1   
@<TRIPOS>SUBSTRUCTURE
     1 3HU         1 TEMP              0 ****  ****    0 ROOT
