@<TRIPOS>MOLECULE
3HU
   38    39     1     0     0
SMALL
bcc


@<TRIPOS>ATOM
      1 C          -1.4700   -0.0510   -1.1760 c2        1 3HU      0.338000
      2 N           1.0100    0.0550   -0.6850 n4        1 3HU     -0.130000
      3 OXT        -1.0990    0.0140   -2.3790 o         1 3HU     -0.531000
      4 CA         -0.3370    0.0420   -0.0890 c3        1 3HU     -0.245000
      5 CB          2.6660    1.8820    0.4540 c1        1 3HU     -0.175000
      6 OAB         9.5710   -2.8520    1.8370 o         1 3HU     -0.515000
      7 OAF        10.2960   -4.7130    2.8650 o         1 3HU     -0.515000
      8 CAH         6.3950   -4.8450    4.7630 c1        1 3HU     -0.748000
      9 CAI         5.8370   -3.6790    4.1090 c3        1 3HU     -0.090000
     10 CAJ         7.1280    1.9450    2.1000 c1        1 3HU     -0.207000
     11 CAK         5.4040    3.2770    1.0550 c1        1 3HU     -0.649000
     12 SAN         6.9160    3.3410    1.0950 ss        1 3HU      0.796000
     13 SAO         7.7800   -5.2910    4.4770 ss        1 3HU      0.950000
     14 CAP         9.4340   -3.8340    2.6100 c2        1 3HU      0.368000
     15 CAR         6.9850   -3.1990    3.2170 c2        1 3HU     -0.268000
     16 CAS         8.0950   -3.9800    3.3190 c2        1 3HU     -0.293000
     17 CAT         5.7060   -0.0460    1.4480 c3        1 3HU      0.376000
     18 CAU         4.1500    0.0500    1.0640 c2        1 3HU      0.227000
     19 CAV         5.8670    1.2820    2.3330 c3        1 3HU     -0.300000
     20 CAW         4.6990    2.2460    1.8040 c3        1 3HU     -0.030000
     21 NAY         5.8350   -1.2460    2.3670 n3        1 3HU     -0.240000
     22 NAZ         3.7210    1.4380    1.0720 n         1 3HU     -0.132000
     23 O          -2.6340   -0.1730   -0.7350 o         1 3HU     -0.531000
     24 HN          1.6510    0.8320   -0.2440 hn        1 3HU      0.250000
     25 HNA         0.8940    0.2230   -1.6960 hn        1 3HU      0.250000
     26 HA         -0.4380   -0.8270    0.6110 hx        1 3HU      0.106000
     27 HB         -0.4890    0.9940    0.4830 hx        1 3HU      0.106000
     28 HBA         2.4660    2.9690    0.4630 ha        1 3HU      0.113000
     29 HAH         4.9340   -3.9430    3.4990 hc        1 3HU      0.129500
     30 HAI         5.5430   -2.8930    4.8520 hc        1 3HU      0.129500
     31 HAJ         5.7200    1.0690    3.4210 hc        1 3HU      0.151000
     32 HAK         4.1820    2.7200    2.6900 h1        1 3HU      0.139000
     33 HAL         5.0550   -1.4390    2.9620 hn        1 3HU      0.215000
     34 HALA        7.7500   -1.8230    1.6780 h4        1 3HU      0.275000
     35 CAL         6.8770   -2.0460    2.3660 c2        1 3HU      0.220000
     36 OAD         6.4270   -0.1310    0.3990 o         1 3HU     -0.500000
     37 HN3         1.4660   -0.8440   -0.5610 hn        1 3HU      0.250000
     38 OAE         3.3970   -0.8570    0.7200 o         1 3HU     -0.292000
@<TRIPOS>BOND
     1    1    3 1   
     2    1    4 1   
     3    1   23 1   
     4    2    4 1   
     5    2   24 1   
     6    2   25 1   
     7    2   37 1   
     8    4   26 1   
     9    4   27 1   
    10    5   22 1   
    11    5   28 1   
    12    6   14 1   
    13    7   14 1   
    14    8    9 1   
    15    8   13 1   
    16    9   15 1   
    17    9   29 1   
    18    9   30 1   
    19   10   12 1   
    20   10   19 1   
    21   11   12 1   
    22   11   20 1   
    23   13   16 1   
    24   14   16 1   
    25   15   16 1   
    26   15   35 1   
    27   17   18 1   
    28   17   19 1   
    29   17   21 1   
    30   17   36 1   
    31   18   22 1   
    32   18   38 1   
    33   19   20 1   
    34   19   31 1   
    35   20   22 1   
    36   20   32 1   
    37   21   33 1   
    38   21   35 1   
    39   34   35 1   
@<TRIPOS>SUBSTRUCTURE
     1 3HU         1 TEMP              0 ****  ****    0 ROOT
