@<TRIPOS>MOLECULE
3HU
   37    31     1     0     0
SMALL
bcc


@<TRIPOS>ATOM
      1 C          -3.4470    2.2230   -2.1930 c1        1 3HU      0.766000
      2 N          -1.6680    3.7860   -2.3840 nh        1 3HU     -0.470100
      3 OXT        -3.8670    1.4490   -3.1190 o         1 3HU     -0.812500
      4 CA         -1.9970    2.4420   -2.0140 c2        1 3HU      0.121200
      5 CB         -1.6200    2.2050   -0.5300 c3        1 3HU      0.128500
      6 OAB         3.6010   -4.3650    2.4620 o         1 3HU     -0.830300
      7 OAD         2.8890   -0.9640    0.3090 o         1 3HU     -0.577500
      8 OAE        -1.4550   -0.4500   -1.2240 o         1 3HU     -0.606500
      9 OAF         2.6590   -5.8770    1.1460 o         1 3HU     -0.830300
     10 CAH        -0.6440   -3.8110    3.0410 c1        1 3HU     -0.273900
     11 CAI        -0.8930   -2.9440    1.8860 cg        1 3HU     -0.176300
     12 CAJ         3.0640    2.0700    0.8290 c1        1 3HU     -0.216400
     13 CAK         1.1010    3.4820    0.3210 c1        1 3HU     -0.216400
     14 CAL         0.5440   -2.2920   -0.4710 c3        1 3HU      0.243000
     15 SAN         2.5590    3.5120    0.8140 ss        1 3HU      0.081800
     16 SAO         0.7900   -4.4100    2.8930 ss        1 3HU      0.047300
     17 CAP         2.6100   -4.7540    1.7450 c         1 3HU      0.930800
     18 CAR         0.4190   -2.9690    0.9400 ce        1 3HU     -0.095900
     19 CAS         1.4080   -3.8450    1.5550 cf        1 3HU     -0.120600
     20 CAT         1.8820   -0.2560    0.1610 c1        1 3HU      0.831900
     21 CAU        -0.4890    0.0320   -0.7570 c1        1 3HU      0.858900
     22 CAV         1.9650    1.2000    0.3660 cg        1 3HU     -0.053000
     23 CAW         0.7450    2.0800    0.0510 cg        1 3HU     -0.053000
     24 NAY         0.6470   -0.8480   -0.3190 n2        1 3HU     -0.653600
     25 NAZ        -0.4610    1.4730   -0.4640 n2        1 3HU     -0.575600
     26 O          -4.2810    2.8200   -1.4320 o         1 3HU     -0.812500
     27 HN         -2.4010    4.1870   -2.7450 hn        1 3HU      0.178200
     28 HNA        -0.9920    3.7750   -3.0030 hn        1 3HU      0.178200
     29 HA         -1.4900    1.8050   -2.5920 h4        1 3HU     -0.034200
     30 HB         -1.4890    3.0610   -0.0870 h1        1 3HU      0.065700
     31 HBA        -2.3350    1.7190   -0.0880 h1        1 3HU      0.065700
     32 HAH        -1.2730   -3.9850    3.7820 DU        1 3HU      0.174000
     33 HAI        -1.6940   -2.4480    1.7200 DU        1 3HU      0.174000
     34 HAJ         4.0010    1.7610    1.1120 DU        1 3HU      0.174000
     35 HAK         0.5050    4.2690    0.2050 DU        1 3HU      0.174000
     36 HAL         1.3390   -2.6270   -0.9200 h1        1 3HU      0.107200
     37 HALA       -0.2320   -2.5030   -0.9940 h1        1 3HU      0.107200
@<TRIPOS>BOND
     1    1    3 2   
     2    1   26 2   
     3    2    4 2   
     4    2   27 1   
     5    2   28 1   
     6    4    5 1   
     7    4   29 1   
     8    5   25 1   
     9    5   30 1   
    10    5   31 1   
    11    6   17 1   
    12    7   20 2   
    13    8   21 2   
    14    9   17 1   
    15   10   11 3   
    16   10   16 1   
    17   11   18 1   
    18   12   15 1   
    19   12   22 3   
    20   13   15 1   
    21   13   23 3   
    22   14   18 1   
    23   14   24 1   
    24   14   36 1   
    25   14   37 1   
    26   16   19 1   
    27   17   19 1   
    28   18   19 2   
    29   20   24 2   
    30   21   25 2   
    31   22   23 1   
@<TRIPOS>SUBSTRUCTURE
     1 3HU         1 TEMP              0 ****  ****    0 ROOT
