@<TRIPOS>MOLECULE
3HU
   38    41     1     0     0
SMALL
bcc


@<TRIPOS>ATOM
      1 C          -0.0730    0.8420    0.8280 c         1 3HU      0.589100
      2 N          -0.3120    2.1770   -1.2660 n3        1 3HU     -0.900800
      3 OXT         0.4880   -0.2890    1.3780 os        1 3HU     -0.448900
      4 CA         -0.5300    0.9160   -0.6180 c3        1 3HU      0.093800
      5 CB          1.3570   -1.1220    0.6050 c3        1 3HU      0.319800
      6 OAB         8.5320   -2.1640    6.1330 os        1 3HU     -0.492800
      7 OAF         7.0700   -0.4850    6.2820 o         1 3HU     -0.432000
      8 CAH         8.3840   -1.5630    1.7540 c2        1 3HU     -1.011200
      9 CAI         9.1780   -2.6100    2.4610 c3        1 3HU      0.106100
     10 CAJ         5.8010   -0.9180    2.4360 cc        1 3HU     -0.043600
     11 CAK         3.4630   -1.5790    2.7010 cc        1 3HU     -0.307100
     12 SAN         4.8880   -1.7140    3.5280 ss        1 3HU      0.300200
     13 SAO         7.5260   -0.6230    2.6610 sx        1 3HU      0.762000
     14 CAP         7.7210   -1.1840    5.4940 cc        1 3HU      0.593700
     15 CAR         8.8640   -2.4030    3.8990 cd        1 3HU     -0.148600
     16 CAS         7.8960   -1.3070    4.0870 cd        1 3HU     -0.562800
     17 CAT         5.4340    0.2990    0.2000 c         1 3HU      0.755100
     18 CAU         3.0790    0.1810   -0.5900 c         1 3HU      0.820500
     19 CAV         5.0360   -0.4860    1.3580 cd        1 3HU     -0.203600
     20 CAW         3.6510   -0.8950    1.5050 cd        1 3HU      0.040600
     21 NAY         4.4040    0.5980   -0.7250 n         1 3HU     -0.589500
     22 NAZ         2.7050   -0.6240    0.5070 n         1 3HU     -0.366000
     23 O          -0.2760    1.7170    1.6720 o         1 3HU     -0.498000
     24 HN          0.9470   -1.2880   -0.4290 h2        1 3HU      0.083200
     25 HNA         0.6400    2.2580   -1.5710 hn        1 3HU      0.368300
     26 HA         -1.6430    0.7220   -0.5850 h1        1 3HU      0.079700
     27 HB          1.3640   -2.0810    1.2060 h2        1 3HU      0.083200
     28 HBA        -0.0460    0.1130   -1.2380 h1        1 3HU      0.079700
     29 HAH         8.8940   -3.6450    2.1320 hc        1 3HU      0.017200
     30 HAI        10.2760   -2.4890    2.2650 hc        1 3HU      0.017200
     31 HAJ         8.4320   -1.5280    0.6710 h4        1 3HU      0.151000
     32 HAK         2.5110   -1.9500    3.0740 h4        1 3HU      0.169000
     33 HAL         4.6210    1.1450   -1.5290 hn        1 3HU      0.342500
     34 HALA        9.8730   -3.6480    5.4970 h4        1 3HU      0.015100
     35 CAL         9.2130   -2.8780    5.1230 cc        1 3HU      0.179600
     36 OAD         6.5610    0.7490   -0.0630 o         1 3HU     -0.612500
     37 HN3        -0.5360    2.9400   -0.6570 hn        1 3HU      0.368300
     38 OAE         2.2270    0.5090   -1.4570 o         1 3HU     -0.719500
@<TRIPOS>BOND
     1    1    3 1   
     2    1    4 1   
     3    1   23 2   
     4    2    4 1   
     5    2   25 1   
     6    2   37 1   
     7    3    5 1   
     8    4   26 1   
     9    4   28 1   
    10    5   22 1   
    11    5   24 1   
    12    5   27 1   
    13    6   14 1   
    14    6   35 1   
    15    7   14 1   
    16    8    9 1   
    17    8   13 2   
    18    8   31 1   
    19    9   15 1   
    20    9   29 1   
    21    9   30 1   
    22   10   12 1   
    23   10   13 1   
    24   10   19 2   
    25   11   12 1   
    26   11   20 2   
    27   11   32 1   
    28   13   16 1   
    29   14   16 2   
    30   15   16 1   
    31   15   35 2   
    32   17   19 1   
    33   17   21 1   
    34   17   36 2   
    35   18   21 1   
    36   18   22 1   
    37   18   38 2   
    38   19   20 1   
    39   20   22 1   
    40   21   33 1   
    41   34   35 1   
@<TRIPOS>SUBSTRUCTURE
     1 3HU         1 TEMP              0 ****  ****    0 ROOT
