@<TRIPOS>MOLECULE
3HU
   37    39     1     0     0
SMALL
bcc


@<TRIPOS>ATOM
      1 C          -4.9730    1.9110   -0.6010 c         1 3HU      0.921600
      2 N          -3.9340    1.1670    1.5320 n3        1 3HU     -0.893800
      3 OXT        -5.4980    0.7970   -0.8960 o         1 3HU     -0.841800
      4 CA         -3.6990    1.9040    0.3150 c3        1 3HU      0.024500
      5 CB         -2.5170    1.4630   -0.6000 c3        1 3HU      0.069000
      6 OAB         4.5050   -0.1140    2.2730 o         1 3HU     -0.829800
      7 OAF         6.3140   -0.5890    1.0590 o         1 3HU     -0.829800
      8 CAH         3.5910    0.0470   -2.4540 cc        1 3HU     -0.229100
      9 CAI         2.5130    0.1160   -1.6010 cd        1 3HU     -0.143000
     10 CAJ        -1.8040   -3.1800    0.3350 cc        1 3HU     -0.121100
     11 CAK        -3.3260   -1.3900   -0.3820 cc        1 3HU     -0.224100
     12 SAN        -3.3810   -3.0480   -0.1810 ss        1 3HU      0.008200
     13 SAO         5.0230   -0.1570   -1.6190 ss        1 3HU     -0.021800
     14 CAP         5.0850   -0.3010    1.1670 c         1 3HU      0.933200
     15 CAR         2.9100   -0.0110   -0.2280 cd        1 3HU     -0.133300
     16 CAS         4.2810   -0.1610   -0.1020 cc        1 3HU     -0.094700
     17 CAT         0.1990   -1.6520    0.7590 c         1 3HU      0.739100
     18 CAU        -0.2940    0.7260    0.2590 c         1 3HU      0.808500
     19 CAV        -1.1830   -1.9510    0.3670 cd        1 3HU     -0.209600
     20 CAW        -2.0740   -0.8880   -0.0560 cd        1 3HU      0.053600
     21 NAY         0.5940   -0.3050    0.6700 n         1 3HU     -0.480400
     22 NAZ        -1.6320    0.4270   -0.0970 n         1 3HU     -0.348000
     23 O          -5.3890    3.0260   -1.0110 o         1 3HU     -0.841800
     24 HN         -4.4270    0.3180    1.3230 hn        1 3HU      0.337300
     25 HNA        -3.0730    0.9350    1.9860 hn        1 3HU      0.337300
     26 HA         -3.4890    2.9700    0.6220 h1        1 3HU      0.056700
     27 HB         -2.9470    1.0770   -1.5700 h1        1 3HU      0.067700
     28 HBA        -1.8920    2.3730   -0.8240 h1        1 3HU      0.067700
     29 HAH         3.5410    0.1190   -3.5360 h4        1 3HU      0.138000
     30 HAI         1.4770    0.2650   -1.9090 ha        1 3HU      0.136000
     31 HAJ        -1.3210   -4.1170    0.6120 h4        1 3HU      0.176000
     32 HAK        -4.1910   -0.7850   -0.7110 h4        1 3HU      0.257000
     33 HAL         2.3790   -0.6400    1.7440 h1        1 3HU      0.107200
     34 HALA        2.0020    1.1060    1.3450 h1        1 3HU      0.107200
     35 OAE         0.0950    1.9150    0.2240 o         1 3HU     -0.647500
     36 CAL         1.9840    0.0530    0.9370 c3        1 3HU      0.158300
     37 OAD         0.9780   -2.5320    1.1680 o         1 3HU     -0.615500
@<TRIPOS>BOND
     1    1    3 1   
     2    1    4 1   
     3    1   23 1   
     4    2    4 1   
     5    2   24 1   
     6    2   25 1   
     7    4    5 1   
     8    4   26 1   
     9    5   22 1   
    10    5   27 1   
    11    5   28 1   
    12    6   14 1   
    13    7   14 1   
    14    8    9 2   
    15    8   13 1   
    16    8   29 1   
    17    9   15 1   
    18    9   30 1   
    19   10   12 1   
    20   10   19 2   
    21   10   31 1   
    22   11   12 1   
    23   11   20 2   
    24   11   32 1   
    25   13   16 1   
    26   14   16 1   
    27   15   16 2   
    28   15   36 1   
    29   17   19 1   
    30   17   21 1   
    31   17   37 2   
    32   18   21 1   
    33   18   22 1   
    34   18   35 2   
    35   19   20 1   
    36   20   22 1   
    37   21   36 1   
    38   33   36 1   
    39   34   36 1   
@<TRIPOS>SUBSTRUCTURE
     1 3HU         1 TEMP              0 ****  ****    0 ROOT
