@<TRIPOS>MOLECULE
3HV
   61    65     1     0     0
SMALL
bcc


@<TRIPOS>ATOM
      1 C10        -0.4280   -1.4500    0.3990 c2        1 3HV      0.078000
      2 C15         2.3120   -1.1260    4.3160 c2        1 3HV     -0.171000
      3 C17        -0.9150   -1.2600    6.9030 c3        1 3HV     -0.139000
      4 C21        -1.4780    2.6450    9.1050 c2        1 3HV     -0.127000
      5 C22        -0.6300    3.3820    9.8630 c2        1 3HV     -0.139000
      6 C24        -2.9420    2.6930    9.3530 c3        1 3HV     -0.189000
      7 C26        -2.4670    4.2780   11.2140 c2        1 3HV     -0.079000
      8 C28        -2.3130    6.3090   12.7550 c2        1 3HV     -0.175000
      9 C02         1.2650    1.2640    6.8080 c2        1 3HV     -0.075000
     10 C03         1.1460    0.0880    6.1240 c2        1 3HV     -0.091000
     11 C04        -0.0160   -0.7700    5.8390 c2        1 3HV     -0.138000
     12 C05        -0.0120   -1.3050    4.6140 c1        1 3HV     -0.275000
     13 C06         0.9870   -1.2790    3.6760 c2        1 3HV      0.099000
     14 C07         0.9310   -1.3730    2.2910 c2        1 3HV     -0.318000
     15 C08         1.5430   -1.5760   -1.2970 c1        1 3HV     -0.184000
     16 C09         0.6600   -1.5170   -0.4860 c1        1 3HV     -0.145000
     17 C11        -1.8940   -1.4600   -0.1670 c2        1 3HV      0.401000
     18 O12        -2.4020   -0.3330   -0.3390 o         1 3HV     -0.490000
     19 O13        -2.3540   -2.5940   -0.4140 o         1 3HV     -0.490000
     20 O14        -0.3090   -1.3730    1.6960 os        1 3HV      0.103000
     21 C16         2.3680   -0.4250    5.4720 c2        1 3HV     -0.077000
     22 C18        -1.2470    2.0050    6.5930 cx        1 3HV     -0.144000
     23 N19         0.1080    2.1110    7.1620 nx        1 3HV     -0.024000
     24 C23        -1.1260    4.2180   10.9220 c2        1 3HV     -0.050000
     25 C25        -3.4160    3.5270   10.4490 c1        1 3HV     -0.071000
     26 C27        -2.9340    5.1510   12.2680 c2        1 3HV     -0.056000
     27 C29        -3.2250    6.8630   13.7470 c2        1 3HV     -0.126000
     28 C30        -2.9200    8.1410   14.5270 c2        1 3HV      0.393000
     29 O31        -1.7020    8.4640   14.5820 o         1 3HV     -0.544500
     30 O32        -3.8710    8.7840   15.0350 o         1 3HV     -0.544500
     31 N33        -4.3200    6.0800   13.8470 n2        1 3HV     -0.047000
     32 N34        -4.1710    5.0520   12.9690 na        1 3HV     -0.113000
     33 C35        -5.0980    3.9890   12.8950 ca        1 3HV      0.148000
     34 C36        -4.6670    2.6550   12.7120 ca        1 3HV     -0.116000
     35 C37        -5.5910    1.6200   12.6470 ca        1 3HV     -0.113000
     36 C38        -6.9580    1.8780   12.7780 ca        1 3HV     -0.087000
     37 Cl3        -8.0570    0.5810   12.7000 cl        1 3HV     -0.027000
     38 C40        -7.3950    3.1940   12.9760 ca        1 3HV     -0.047000
     39 Cl4        -9.0520    3.5450   13.1450 cl        1 3HV     -0.020000
     40 C42        -6.4800    4.2460   13.0340 ca        1 3HV     -0.120000
     41 H151        3.3230   -0.1450    5.9470 ha        1 3HV      0.151000
     42 H171       -1.8520   -0.6510    6.9700 hc        1 3HV      0.060333
     43 H202       -1.0030    0.6620    8.4060 hx        1 3HV      0.187000
     44 H201        0.4950    3.0580    7.3280 hn        1 3HV      0.268000
     45 H221        0.4630    3.3560    9.7090 ha        1 3HV      0.157000
     46 H241       -3.3360    1.6490    9.5360 hc        1 3HV      0.163000
     47 H051       -1.4190    1.1670    5.8740 hx        1 3HV      0.171000
     48 H081        2.3160   -1.6270   -2.0180 ha        1 3HV      0.213000
     49 H091        1.8080   -1.4330    1.6430 h4        1 3HV      0.143000
     50 H161        3.2020   -1.5040    3.8040 ha        1 3HV      0.119000
     51 H181       -0.4040   -1.2530    7.8970 hc        1 3HV      0.060333
     52 H231       -0.3900    4.8080   11.4940 ha        1 3HV      0.155000
     53 H251       -3.4740    3.0640    8.4240 hc        1 3HV      0.163000
     54 H361       -3.5930    2.4250   12.6240 ha        1 3HV      0.142000
     55 H371       -5.2410    0.5870   12.4980 ha        1 3HV      0.138000
     56 H421       -6.8400    5.2760   13.1940 ha        1 3HV      0.179000
     57 H3         -1.2230   -2.3130    6.6760 hc        1 3HV      0.060333
     58 H4         -1.7300    2.9520    6.2710 hx        1 3HV      0.171000
     59 S01         2.6240    2.0570    7.3020 s         1 3HV     -0.469000
     60 C20        -1.0230    1.7220    8.0470 cx        1 3HV     -0.073000
     61 H281       -1.3600    6.7480   12.4830 ha        1 3HV      0.173000
@<TRIPOS>BOND
     1    1   16 1   
     2    1   17 1   
     3    1   20 1   
     4    2   13 1   
     5    2   21 1   
     6    2   50 1   
     7    3   11 1   
     8    3   42 1   
     9    3   51 1   
    10    3   57 1   
    11    4    5 1   
    12    4    6 1   
    13    4   60 1   
    14    5   24 1   
    15    5   45 1   
    16    6   25 1   
    17    6   46 1   
    18    6   53 1   
    19    7   24 1   
    20    7   25 1   
    21    7   26 1   
    22    8   26 1   
    23    8   27 1   
    24    8   61 1   
    25    9   10 1   
    26    9   23 1   
    27    9   59 1   
    28   10   11 1   
    29   10   21 1   
    30   11   12 1   
    31   12   13 1   
    32   13   14 1   
    33   14   20 1   
    34   14   49 1   
    35   15   16 1   
    36   15   48 1   
    37   17   18 1   
    38   17   19 1   
    39   21   41 1   
    40   22   23 1   
    41   22   47 1   
    42   22   58 1   
    43   22   60 1   
    44   23   44 1   
    45   23   60 1   
    46   24   52 1   
    47   26   32 1   
    48   27   28 1   
    49   27   31 1   
    50   28   29 1   
    51   28   30 1   
    52   31   32 1   
    53   32   33 1   
    54   33   34 1   
    55   33   40 1   
    56   34   35 1   
    57   34   54 1   
    58   35   36 1   
    59   35   55 1   
    60   36   37 1   
    61   36   38 1   
    62   38   39 1   
    63   38   40 1   
    64   40   56 1   
    65   43   60 1   
@<TRIPOS>SUBSTRUCTURE
     1 3HV         1 TEMP              0 ****  ****    0 ROOT
