@<TRIPOS>MOLECULE
3HW
   58    59     1     0     0
SMALL
bcc


@<TRIPOS>ATOM
      1 C10        -0.9190    2.1130    1.1830 ca        1 3HW     -0.090000
      2 C13        -0.4870    1.6120    3.5130 ca        1 3HW     -0.121000
      3 C15         3.8810    0.7080    3.1320 ca        1 3HW      0.047000
      4 C17         4.7260    2.5620    1.8150 ca        1 3HW     -0.087000
      5 C21         8.4050    4.4660   -4.4420 c2        1 3HW     -0.183000
      6 C22         8.9550    4.0410   -3.2950 c2        1 3HW     -0.002000
      7 C24        10.5170    5.1530   -1.7800 c1        1 3HW     -0.031000
      8 C26        12.9900    5.5320   -1.0570 c2        1 3HW      0.175000
      9 C28        15.6980    5.9720   -0.6180 c1        1 3HW      0.230000
     10 O01         0.9570   -1.5840    7.9150 o         1 3HW     -0.534000
     11 C03         1.9840   -0.9230    5.8490 c2        1 3HW     -0.121000
     12 N04         0.9960   -0.2470    5.2360 n2        1 3HW     -0.044000
     13 N05         1.5450    0.4250    4.1800 na        1 3HW     -0.125000
     14 C06         0.7270    0.9710    3.1650 ca        1 3HW      0.118000
     15 C07         1.0840    0.8900    1.8030 ca        1 3HW     -0.161000
     16 C08         0.2710    1.4680    0.8260 ca        1 3HW     -0.042000
     17 Cl0         0.7530    1.3580   -0.8020 cl        1 3HW     -0.015000
     18 Cl1        -1.9260    2.8240    0.0120 cl        1 3HW     -0.016000
     19 C12        -1.2910    2.1700    2.5300 ca        1 3HW     -0.109000
     20 C14         2.9420    0.1320    4.0690 c2        1 3HW     -0.099000
     21 C16         3.7790    2.0340    2.6860 ca        1 3HW     -0.136500
     22 C18         5.7910    1.7710    1.3610 ca        1 3HW     -0.136000
     23 C19         6.7710    2.3470    0.4200 c2        1 3HW      0.104000
     24 N20         7.2350    1.5310   -0.5610 nt        1 3HW     -0.351000
     25 C23         9.1420    4.9580   -2.1230 c3        1 3HW     -0.072000
     26 C25        11.6580    5.3280   -1.4580 c1        1 3HW     -0.181000
     27 C27        13.4350    5.5260    0.2100 c2        1 3HW     -0.307000
     28 C29        15.1710    5.9600   -1.8560 c2        1 3HW     -0.320000
     29 C30        15.9670    6.1730   -3.0840 c2        1 3HW      0.379000
     30 O31        15.3570    6.1220   -4.2980 oh        1 3HW     -0.275000
     31 O32        17.1760    6.4000   -3.1290 o         1 3HW     -0.301000
     32 O33        13.8220    5.7510   -2.1620 os        1 3HW     -0.154000
     33 C34         9.7020    1.5650   -2.9490 c1        1 3HW     -0.211000
     34 C35         9.3590    2.7010   -3.1100 c1        1 3HW     -0.126000
     35 S36         7.2480    3.8750    0.5560 s         1 3HW     -0.279000
     36 C37         5.9090    0.4510    1.8220 ca        1 3HW     -0.087000
     37 C38         4.9680   -0.0730    2.6990 ca        1 3HW     -0.136500
     38 C39         3.2430   -0.7160    5.1360 c2        1 3HW     -0.144000
     39 O40         2.7920   -2.6700    7.2140 o         1 3HW     -0.534000
     40 H131       -0.8050    1.6600    4.5680 ha        1 3HW      0.174000
     41 H171        4.6530    3.6110    1.4820 ha        1 3HW      0.141000
     42 H211        8.0910    5.5080   -4.5850 ha        1 3HW      0.123000
     43 H212        8.2350    3.7980   -5.2960 ha        1 3HW      0.123000
     44 H241        8.6740    5.9600   -2.3450 hc        1 3HW      0.150000
     45 H281       14.4990    5.6920    0.5270 ha        1 3HW      0.171000
     46 H071        2.0070    0.3680    1.5010 ha        1 3HW      0.162000
     47 H121       -2.2330    2.6650    2.8160 ha        1 3HW      0.147000
     48 H161        2.9450    2.6640    3.0340 ha        1 3HW      0.153000
     49 H201        6.9120    0.5980   -0.6490 hn        1 3HW      0.235000
     50 H231        8.5840    4.5260   -1.2200 hc        1 3HW      0.150000
     51 H271       12.7630    5.3500    1.0600 ha        1 3HW      0.171000
     52 H341       10.0200    0.5630   -2.8110 ha        1 3HW      0.226000
     53 H351       14.4090    5.9380   -4.2070 ho        1 3HW      0.251000
     54 H371        6.7580   -0.1770    1.5150 ha        1 3HW      0.141000
     55 H381        5.0680   -1.1060    3.0690 ha        1 3HW      0.153000
     56 H391        4.1950   -1.1450    5.4340 ha        1 3HW      0.180000
     57 H202        7.9030    1.8740   -1.2150 hn        1 3HW      0.235000
     58 C02         1.8870   -1.7990    7.1030 c2        1 3HW      0.394000
@<TRIPOS>BOND
     1    1   16 1   
     2    1   18 1   
     3    1   19 1   
     4    2   14 1   
     5    2   19 1   
     6    2   40 1   
     7    3   20 1   
     8    3   21 1   
     9    3   37 1   
    10    4   21 1   
    11    4   22 1   
    12    4   41 1   
    13    5    6 1   
    14    5   42 1   
    15    5   43 1   
    16    6   25 1   
    17    6   34 1   
    18    7   25 1   
    19    7   26 1   
    20    8   26 1   
    21    8   27 1   
    22    8   32 1   
    23    9   28 1   
    24   10   58 1   
    25   11   12 1   
    26   11   38 1   
    27   11   58 1   
    28   12   13 1   
    29   13   14 1   
    30   13   20 1   
    31   14   15 1   
    32   15   16 1   
    33   15   46 1   
    34   16   17 1   
    35   19   47 1   
    36   20   38 1   
    37   21   48 1   
    38   22   23 1   
    39   22   36 1   
    40   23   24 1   
    41   23   35 1   
    42   24   49 1   
    43   24   57 1   
    44   25   44 1   
    45   25   50 1   
    46   27   45 1   
    47   27   51 1   
    48   28   29 1   
    49   28   32 1   
    50   29   30 1   
    51   29   31 1   
    52   30   53 1   
    53   33   34 1   
    54   33   52 1   
    55   36   37 1   
    56   36   54 1   
    57   37   55 1   
    58   38   56 1   
    59   39   58 1   
@<TRIPOS>SUBSTRUCTURE
     1 3HW         1 TEMP              0 ****  ****    0 ROOT
