@<TRIPOS>MOLECULE
3HX
   39    36     1     0     0
SMALL
bcc


@<TRIPOS>ATOM
      1 NO          4.9130   -0.7300    5.7920 n2        1 3HX      0.512400
      2 O2          6.0790   -0.0080    5.8360 o         1 3HX     -0.299700
      3 O3          4.4860   -1.2610    6.8020 o         1 3HX     -0.299700
      4 N          -1.7770    0.7550    0.1200 n3        1 3HX     -0.331000
      5 CA         -0.6720    0.3550   -0.6710 c3        1 3HX     -0.024000
      6 C          -1.1680   -0.4390   -1.8740 c3        1 3HX     -0.141000
      7 CB          0.2550   -0.5090    0.1590 c3        1 3HX     -0.150000
      8 CG          1.1790    0.3990    1.0150 c3        1 3HX     -0.159000
      9 CD          1.7590   -0.4130    2.1860 c3        1 3HX     -0.069000
     10 NE          2.8790    0.3250    2.7880 n3        1 3HX     -0.296000
     11 CZ          3.2140    0.1240    4.1960 c2        1 3HX      0.152000
     12 NH1         4.2090   -0.8630    4.5710 n2        1 3HX     -0.315000
     13 NH2         2.6060    0.8440    5.1340 n1        1 3HX     -0.241000
     14 NA         -1.8720    0.4400   -2.7740 n3        1 3HX     -0.114000
     15 O1'        -0.9860    1.2560   -3.3930 oh        1 3HX     -0.281000
     16 NB         -4.6430   -0.4830   -5.0070 n3        1 3HX     -0.337000
     17 C1'        -2.5770   -0.3470   -3.7640 c3        1 3HX     -0.153000
     18 C2'        -3.8720    0.3610   -4.1470 c3        1 3HX     -0.083000
     19 HN1        -2.5180    0.2660   -0.1200 hn        1 3HX      0.146500
     20 HN2        -1.9430    1.6500   -0.0150 hn        1 3HX      0.146500
     21 HA         -0.1910    1.1430   -0.9790 h1        1 3HX      0.113000
     22 H1         -0.3980   -0.8420   -2.3430 h1        1 3HX      0.087000
     23 H2         -1.7730   -1.1470   -1.5700 h1        1 3HX      0.087000
     24 HB1         0.8050   -1.0670   -0.4380 hc        1 3HX      0.080500
     25 HB2        -0.2750   -1.0860    0.7480 hc        1 3HX      0.080500
     26 HG1         1.9070    0.7360    0.4600 hc        1 3HX      0.102500
     27 HG2         0.6600    1.1540    1.3660 hc        1 3HX      0.102500
     28 HD1         1.0610   -0.5570    2.8620 h1        1 3HX      0.079000
     29 HD2         2.0770   -1.2740    1.8580 h1        1 3HX      0.079000
     30 HNE         3.3460    0.9340    2.2900 hn        1 3HX      0.208000
     31 HNH1        4.3590   -1.5920    4.0300 hn        1 3HX      0.253000
     32 HNH2        1.9650    1.4790    4.8920 DU        1 3HX      0.193000
     33 HO1'       -1.3480    2.0690   -3.4930 ho        1 3HX      0.218000
     34 HNB1       -4.5420   -1.3590   -4.7490 hn        1 3HX      0.143500
     35 HNB2       -4.3560   -0.3840   -5.8660 hn        1 3HX      0.143500
     36 H1'1       -2.0130   -0.4520   -4.5610 h1        1 3HX      0.082500
     37 H1'2       -2.7850   -1.2290   -3.3920 h1        1 3HX      0.082500
     38 H2'1       -4.3870    0.5610   -3.3370 h1        1 3HX      0.100000
     39 H2'2       -3.6620    1.1920   -4.6120 h1        1 3HX      0.100000
@<TRIPOS>BOND
     1    1    2 2   
     2    1    3 2   
     3    4    5 1   
     4    4   19 1   
     5    4   20 1   
     6    5    6 1   
     7    5    7 1   
     8    5   21 1   
     9    6   14 1   
    10    6   22 1   
    11    6   23 1   
    12    7    8 1   
    13    7   24 1   
    14    7   25 1   
    15    8    9 1   
    16    8   26 1   
    17    8   27 1   
    18    9   10 1   
    19    9   28 1   
    20    9   29 1   
    21   10   11 1   
    22   10   30 1   
    23   11   12 1   
    24   11   13 1   
    25   12   31 1   
    26   14   15 1   
    27   14   17 1   
    28   15   33 1   
    29   16   18 1   
    30   16   34 1   
    31   16   35 1   
    32   17   18 1   
    33   17   36 1   
    34   17   37 1   
    35   18   38 1   
    36   18   39 1   
@<TRIPOS>SUBSTRUCTURE
     1 3HX         1 TEMP              0 ****  ****    0 ROOT
