@<TRIPOS>MOLECULE
3HX
   39    37     1     0     0
SMALL
bcc


@<TRIPOS>ATOM
      1 NO         -3.1900    1.5160   -3.8040 no        1 3HX      0.435500
      2 O2         -2.6650    1.2490   -4.8570 o         1 3HX     -0.233000
      3 O3         -4.2240    2.1370   -3.7350 o         1 3HX     -0.233000
      4 N          -2.8130   -0.2020   -7.4900 n3        1 3HX     -0.902800
      5 CA         -3.1190   -1.6060   -7.4160 c3        1 3HX      0.159800
      6 C          -7.0590    0.8510   -4.1530 c3        1 3HX      0.363000
      7 CB         -3.8320   -2.0960   -6.1540 c3        1 3HX     -0.131400
      8 CG         -2.9030   -2.1560   -4.9640 c3        1 3HX     -0.096400
      9 CD         -3.6650   -2.3680   -3.6540 c3        1 3HX      0.157800
     10 NE         -4.2920   -1.1940   -3.1120 n2        1 3HX     -0.628600
     11 CZ         -5.4300   -0.7600   -3.4130 c1        1 3HX      0.585800
     12 NH1        -2.5480    1.1760   -2.6420 n3        1 3HX     -0.844100
     13 NH2        -6.5900   -0.3030   -3.4230 n2        1 3HX     -0.571600
     14 NA         -6.7340    1.0650   -5.5800 n3        1 3HX     -0.494100
     15 O1'        -5.4490    0.7760   -5.8370 oh        1 3HX     -0.441300
     16 C1'        -7.6140    0.3550   -6.5140 c3        1 3HX      0.139800
     17 C2'        -7.7610   -1.1670   -6.3380 c3        1 3HX      0.129800
     18 HN2        -6.6590    1.7750   -3.6270 h2        1 3HX      0.088200
     19 HA         -2.1300    0.0540   -6.8010 hn        1 3HX      0.352800
     20 H1         -2.1580   -2.1820   -7.5360 h1        1 3HX      0.045200
     21 H2         -8.1850    0.8170   -4.0610 h2        1 3HX      0.088200
     22 HB1        -3.7760   -1.8520   -8.2990 h1        1 3HX      0.045200
     23 HB2        -4.6950   -1.4130   -5.9250 hc        1 3HX      0.048700
     24 HG1        -4.2540   -3.1160   -6.3510 hc        1 3HX      0.048700
     25 HG2        -2.2920   -1.2150   -4.9050 hc        1 3HX      0.052700
     26 HD1        -2.1880   -3.0110   -5.0850 hc        1 3HX      0.052700
     27 HD2        -4.4010   -3.2100   -3.7970 h1        1 3HX      0.052700
     28 HNE        -2.9290   -2.6880   -2.8590 h1        1 3HX      0.052700
     29 HNH1       -1.9440    0.3780   -2.7590 hn        1 3HX      0.438800
     30 HNH2       -3.1790    1.1070   -1.8600 hn        1 3HX      0.438800
     31 HO1'       -4.9950    1.6440   -5.8510 ho        1 3HX      0.444000
     32 HNB1       -8.2470   -1.5540   -8.2720 hn        1 3HX      0.351800
     33 HNB2       -8.6530   -2.7440   -7.2310 hn        1 3HX      0.351800
     34 H1'1       -8.2480   -1.3780   -5.3430 h1        1 3HX      0.034700
     35 H1'2       -8.6230    0.8420   -6.4030 h1        1 3HX      0.070700
     36 H2'1       -7.2230    0.5740   -7.5480 h1        1 3HX      0.070700
     37 H2'2       -6.7260   -1.6220   -6.3100 h1        1 3HX      0.034700
     38 HN1        -3.6360    0.3490   -7.3310 hn        1 3HX      0.352800
     39 NB         -8.5990   -1.7520   -7.3560 n3        1 3HX     -0.913800
@<TRIPOS>BOND
     1    1    2 1   
     2    1    3 1   
     3    1   12 1   
     4    4    5 1   
     5    4   19 1   
     6    4   38 1   
     7    5    7 1   
     8    5   20 1   
     9    5   22 1   
    10    6   13 1   
    11    6   14 1   
    12    6   18 1   
    13    6   21 1   
    14    7    8 1   
    15    7   23 1   
    16    7   24 1   
    17    8    9 1   
    18    8   25 1   
    19    8   26 1   
    20    9   10 1   
    21    9   27 1   
    22    9   28 1   
    23   10   11 2   
    24   11   13 2   
    25   12   29 1   
    26   12   30 1   
    27   14   15 1   
    28   14   16 1   
    29   15   31 1   
    30   16   17 1   
    31   16   35 1   
    32   16   36 1   
    33   17   34 1   
    34   17   37 1   
    35   17   39 1   
    36   32   39 1   
    37   33   39 1   
@<TRIPOS>SUBSTRUCTURE
     1 3HX         1 TEMP              0 ****  ****    0 ROOT
