@<TRIPOS>MOLECULE
3HX
   39    38     1     0     0
SMALL
bcc


@<TRIPOS>ATOM
      1 NO          0.2120    1.2410    8.3080 no        1 3HX      0.444500
      2 O2         -0.2550    1.8950    9.2040 o         1 3HX     -0.202000
      3 O3          0.4920    0.0760    8.4100 o         1 3HX     -0.202000
      4 N          -3.2070    2.8990    0.4940 n3        1 3HX     -0.903800
      5 CA         -1.9850    2.1790    0.1890 c3        1 3HX      0.167500
      6 C          -2.1900    1.2980   -1.0710 c3        1 3HX      0.137800
      7 CB         -1.4410    1.3040    1.3300 c3        1 3HX     -0.119400
      8 CG         -1.1320    2.1180    2.5680 c3        1 3HX     -0.090400
      9 CD         -0.3710    1.2510    3.5730 c3        1 3HX      0.178800
     10 NE         -0.1130    1.9630    4.8130 nh        1 3HX     -0.797200
     11 CZ          0.5610    1.2180    5.8450 c2        1 3HX      0.753100
     12 NH1         0.5190    1.9230    7.1410 nh        1 3HX     -0.812500
     13 NH2         1.1410    0.0810    5.6370 n2        1 3HX     -0.792100
     14 NA         -0.9190    0.7810   -1.6240 n3        1 3HX     -0.479100
     15 O1'        -0.1370    1.8190   -1.9790 oh        1 3HX     -0.428300
     16 C1'        -1.2060   -0.0430   -2.8170 c3        1 3HX      0.087800
     17 C2'         0.0790   -0.6290   -3.4430 c3        1 3HX      0.153800
     18 HN2        -3.9490    2.2640    0.7150 hn        1 3HX      0.348300
     19 HA         -1.2040    2.9620   -0.0560 h1        1 3HX      0.073700
     20 H1         -2.8020    0.3970   -0.7960 h1        1 3HX      0.054700
     21 H2         -2.7530    1.8980   -1.8420 h1        1 3HX      0.054700
     22 HB1        -0.5050    0.7960    0.9770 hc        1 3HX      0.055200
     23 HB2        -2.1810    0.5000    1.5810 hc        1 3HX      0.055200
     24 HG1        -2.0810    2.4920    3.0350 hc        1 3HX      0.045700
     25 HG2        -0.5180    3.0140    2.2890 hc        1 3HX      0.045700
     26 HD1        -0.9910    0.3430    3.8210 h1        1 3HX      0.058200
     27 HD2         0.5820    0.8890    3.0870 h1        1 3HX      0.058200
     28 HNE         0.3400    2.8430    4.6470 hn        1 3HX      0.392800
     29 HNH1        0.0780    2.8330    7.1310 hn        1 3HX      0.450800
     30 HNH2        1.4910   -0.4290    6.4200 hn        1 3HX      0.444400
     31 HO1'        0.7040    1.6580   -1.5140 ho        1 3HX      0.418000
     32 HNB1       -0.5480   -0.9450   -5.3450 hn        1 3HX      0.347800
     33 HNB2       -0.7000   -2.2490   -4.3810 hn        1 3HX      0.347800
     34 H1'1       -1.7600    0.5450   -3.6030 h1        1 3HX      0.042700
     35 H1'2       -1.8690   -0.8820   -2.4690 h1        1 3HX      0.042700
     36 H2'1        0.6160   -1.2430   -2.6660 h1        1 3HX      0.061200
     37 H2'2        0.7550    0.2230   -3.7390 h1        1 3HX      0.061200
     38 HN1        -3.0590    3.5110    1.2720 hn        1 3HX      0.348300
     39 NB         -0.1250   -1.4590   -4.5980 n3        1 3HX     -0.904800
@<TRIPOS>BOND
     1    1    2 1   
     2    1    3 1   
     3    1   12 1   
     4    4    5 1   
     5    4   18 1   
     6    4   38 1   
     7    5    6 1   
     8    5    7 1   
     9    5   19 1   
    10    6   14 1   
    11    6   20 1   
    12    6   21 1   
    13    7    8 1   
    14    7   22 1   
    15    7   23 1   
    16    8    9 1   
    17    8   24 1   
    18    8   25 1   
    19    9   10 1   
    20    9   26 1   
    21    9   27 1   
    22   10   11 1   
    23   10   28 1   
    24   11   12 1   
    25   11   13 2   
    26   12   29 1   
    27   13   30 1   
    28   14   15 1   
    29   14   16 1   
    30   15   31 1   
    31   16   17 1   
    32   16   34 1   
    33   16   35 1   
    34   17   36 1   
    35   17   37 1   
    36   17   39 1   
    37   32   39 1   
    38   33   39 1   
@<TRIPOS>SUBSTRUCTURE
     1 3HX         1 TEMP              0 ****  ****    0 ROOT
