@<TRIPOS>MOLECULE
3HY
   17    17     1     0     0
SMALL
bcc


@<TRIPOS>ATOM
      1 C4         -0.0040    0.6470    0.1260 c3        1 3HY     -0.036000
      2 C5          1.4620    0.3520   -0.0160 c2        1 3HY     -0.163300
      3 C6          2.0860    0.2300    1.1450 c1        1 3HY     -0.095800
      4 C7          1.6060    0.0490    2.3860 ce        1 3HY      0.085000
      5 C8          0.2160   -0.4420    2.3890 ce        1 3HY     -0.186000
      6 O1         -2.7410    0.4200    0.3930 oh        1 3HY     -0.589800
      7 C3         -0.5550   -0.0710    1.3380 c2        1 3HY     -0.109400
      8 O2          2.2500    0.4050    3.5320 oh        1 3HY     -0.455100
      9 H1         -0.2310    1.7420    0.2250 hc        1 3HY      0.080200
     10 H2         -0.5340    0.2740   -0.7920 hc        1 3HY      0.080200
     11 H3          1.8830    0.1560   -1.0050 ha        1 3HY      0.152000
     12 H4         -0.1670   -0.9850    3.2610 ha        1 3HY      0.139000
     13 H5         -2.4570   -0.2400    2.3500 h1        1 3HY      0.061200
     14 H6         -2.1880   -1.4250    0.9770 h1        1 3HY      0.061200
     15 H7         -2.6120    1.3450    0.6350 ho        1 3HY      0.403000
     16 H8          1.8280   -0.0770    4.2600 ho        1 3HY      0.417000
     17 C2         -2.0200   -0.3650    1.3210 c3        1 3HY      0.158600
@<TRIPOS>BOND
     1    1    2 1   
     2    1    7 1   
     3    1    9 1   
     4    1   10 1   
     5    2    3 2   
     6    2   11 1   
     7    3    4 2   
     8    4    5 1   
     9    4    8 1   
    10    5    7 2   
    11    5   12 1   
    12    6   15 1   
    13    6   17 1   
    14    7   17 1   
    15    8   16 1   
    16   13   17 1   
    17   14   17 1   
@<TRIPOS>SUBSTRUCTURE
     1 3HY         1 TEMP              0 ****  ****    0 ROOT
