@<TRIPOS>MOLECULE
3HY
   17    16     1     0     0
SMALL
bcc


@<TRIPOS>ATOM
      1 C4          0.1690   -0.0740   -0.0940 c2        1 3HY     -0.146000
      2 C5          1.4680   -0.3290    0.1480 c2        1 3HY     -0.038000
      3 C6          1.9860   -0.1070    1.4320 c1        1 3HY     -0.203000
      4 C7          2.3150    0.1600    2.5560 c1        1 3HY      0.040000
      5 C8         -0.1950    0.2540    2.3260 c1        1 3HY     -0.068000
      6 O1         -3.1240    0.8130    1.3060 oh        1 3HY     -0.320000
      7 C3         -0.7300    0.4790    0.9630 c3        1 3HY     -0.205000
      8 O2          2.7470    0.3810    3.7820 oh        1 3HY     -0.145000
      9 H1         -0.8000    1.5970    0.7870 hc        1 3HY      0.139000
     10 H2         -0.2750   -0.2220   -1.0890 ha        1 3HY      0.140000
     11 H3          2.1570   -0.7040   -0.6250 ha        1 3HY      0.154000
     12 H4         -0.2560   -0.7970    2.6600 ha        1 3HY      0.030000
     13 H5         -2.2320   -1.0730    1.3710 h1        1 3HY      0.090500
     14 H6         -2.4150   -0.2410   -0.2510 h1        1 3HY      0.090500
     15 H7         -2.9140    1.0110    2.2270 ho        1 3HY      0.203000
     16 H8          2.0730    0.9610    4.1960 ho        1 3HY      0.256000
     17 C2         -2.1500   -0.0920    0.8310 c3        1 3HY     -0.017000
@<TRIPOS>BOND
     1    1    2 1   
     2    1    7 1   
     3    1   10 1   
     4    2    3 1   
     5    2   11 1   
     6    3    4 1   
     7    4    8 1   
     8    5    7 1   
     9    5   12 1   
    10    6   15 1   
    11    6   17 1   
    12    7    9 1   
    13    7   17 1   
    14    8   16 1   
    15   13   17 1   
    16   14   17 1   
@<TRIPOS>SUBSTRUCTURE
     1 3HY         1 TEMP              0 ****  ****    0 ROOT
