@<TRIPOS>MOLECULE
3HY
   17    13     1     0     0
SMALL
bcc


@<TRIPOS>ATOM
      1 C4          0.0790   -0.0180   -1.3960 c1        1 3HY     -0.156000
      2 C5          1.4740   -0.0090   -1.3670 c1        1 3HY     -0.150500
      3 C6          2.1510   -0.0470   -0.1340 c1        1 3HY     -0.150500
      4 C7          1.4240   -0.0950    1.0650 c1        1 3HY      0.079000
      5 C8          0.0200   -0.1040    1.0380 c1        1 3HY     -0.152000
      6 C2         -2.1830   -0.0580   -0.1920 c3        1 3HY      0.012000
      7 O1         -2.6450    1.2330   -0.5750 oh        1 3HY     -0.322000
      8 C3         -0.6550   -0.0660   -0.1750 c1        1 3HY     -0.090000
      9 O2          2.1100   -0.1370    2.3090 o         1 3HY     -0.252000
     10 H1         -0.4020    0.0100   -2.2700 ha        1 3HY      0.147000
     11 H2          1.9880    0.0240   -2.2110 ha        1 3HY      0.134500
     12 H3          3.1250   -0.0400   -0.1110 ha        1 3HY      0.134500
     13 H4         -0.5010   -0.1380    1.9020 ha        1 3HY      0.151000
     14 H5         -2.5250   -0.2800    0.7280 h1        1 3HY      0.096500
     15 H6         -2.5050   -0.7180   -0.8260 h1        1 3HY      0.096500
     16 H7         -3.4350    1.3860   -0.2050 ho        1 3HY      0.201000
     17 H8          2.4810   -0.9430    2.4200 ho        1 3HY      0.219000
@<TRIPOS>BOND
     1    1    8 1   
     2    1   10 1   
     3    2    3 1   
     4    2   11 1   
     5    3   12 1   
     6    4    5 1   
     7    5   13 1   
     8    6    7 1   
     9    6    8 1   
    10    6   14 1   
    11    6   15 1   
    12    7   16 1   
    13    9   17 1   
@<TRIPOS>SUBSTRUCTURE
     1 3HY         1 TEMP              0 ****  ****    0 ROOT
