@<TRIPOS>MOLECULE
3HY
   17    17     1     0     0
SMALL
bcc


@<TRIPOS>ATOM
      1 C4          0.4040    1.4840    0.4930 ca        1 3HY     -0.168000
      2 C5         -0.9350    1.8450    0.3560 ca        1 3HY     -0.097000
      3 C6         -1.8800    0.9220   -0.0830 ca        1 3HY     -0.157000
      4 C7         -1.4590   -0.3830   -0.3860 ca        1 3HY      0.121100
      5 C8         -0.1150   -0.7600   -0.2530 ca        1 3HY     -0.185000
      6 O1          2.4700   -1.5230   -0.0080 oh        1 3HY     -0.600800
      7 C3          0.8160    0.1800    0.1880 ca        1 3HY     -0.050300
      8 O2         -2.4310   -1.2580   -0.8160 oh        1 3HY     -0.500100
      9 H1          1.1400    2.2230    0.8400 ha        1 3HY      0.131000
     10 H2         -1.2510    2.8710    0.5970 ha        1 3HY      0.134000
     11 H3         -2.9380    1.1930   -0.1960 ha        1 3HY      0.150000
     12 H4          0.2080   -1.7850   -0.4930 ha        1 3HY      0.155000
     13 H5          2.5700   -0.0030    1.4190 h1        1 3HY      0.034700
     14 H6          2.8830    0.5000   -0.3120 h1        1 3HY      0.034700
     15 H7          3.4120   -1.6900    0.1140 ho        1 3HY      0.404000
     16 H8         -2.0070   -2.1110   -0.9880 ho        1 3HY      0.420000
     17 C2          2.2600   -0.1640    0.3490 c3        1 3HY      0.174700
@<TRIPOS>BOND
     1    1    2 ar  
     2    1    7 ar  
     3    1    9 1   
     4    2    3 ar  
     5    2   10 1   
     6    3    4 ar  
     7    3   11 1   
     8    4    5 ar  
     9    4    8 1   
    10    5    7 ar  
    11    5   12 1   
    12    6   15 1   
    13    6   17 1   
    14    7   17 1   
    15    8   16 1   
    16   13   17 1   
    17   14   17 1   
@<TRIPOS>SUBSTRUCTURE
     1 3HY         1 TEMP              0 ****  ****    0 ROOT
