@<TRIPOS>MOLECULE
3HZ
   64    64     1     0     0
SMALL
bcc


@<TRIPOS>ATOM
      1 C10         1.6190   -0.7170   -0.4140 c2        1 3HZ     -0.051000
      2 C13        -0.8080   -0.3030    0.4200 c1        1 3HZ     -0.200000
      3 C15         0.0620   -1.6830    4.7350 ca        1 3HZ      0.020000
      4 C17        -1.8990   -2.5270    3.5860 ca        1 3HZ     -0.123500
      5 C21        -2.2960   -6.7340    3.3020 c2        1 3HZ      0.300000
      6 C22        -2.4990   -6.2040    1.9090 c3        1 3HZ     -0.237000
      7 C24        -0.5030   -7.3540    6.5180 c2        1 3HZ     -0.203000
      8 C26        -2.2950   -9.0550    6.5830 c3        1 3HZ     -0.203000
      9 C28        -3.9360   -8.7950    8.4460 c2        1 3HZ     -0.126000
     10 O01         3.8220    2.7370    6.5570 o         1 3HZ     -0.534000
     11 C03         2.5330    0.8480    5.8240 c2        1 3HZ     -0.117000
     12 N04         2.7450    0.8510    4.4980 n2        1 3HZ     -0.042000
     13 N05         1.8760   -0.0440    3.9370 na        1 3HZ     -0.122000
     14 C06         1.9240   -0.4590    2.6130 c2        1 3HZ      0.066000
     15 C07         2.7900   -0.0050    1.6680 c2        1 3HZ     -0.246000
     16 C08         2.7450   -0.4630    0.3020 c2        1 3HZ      0.037000
     17 Cl0         4.2800   -0.6540   -0.4240 cl        1 3HZ     -0.011000
     18 Cl1         1.6870   -1.3080   -2.0200 cl        1 3HZ     -0.019000
     19 C12         0.3160   -0.5010    0.0540 c1        1 3HZ     -0.109000
     20 C14         1.0870   -0.6840    4.9510 c2        1 3HZ     -0.093000
     21 C16        -0.9010   -1.5640    3.7240 ca        1 3HZ     -0.122000
     22 C18        -1.9600   -3.6170    4.4580 ca        1 3HZ     -0.131000
     23 C19        -3.0810   -4.6090    4.3290 c3        1 3HZ      0.012000
     24 N20        -2.7140   -5.9950    4.3970 ns        1 3HZ     -0.369000
     25 O23        -1.8040   -7.8660    3.5060 o         1 3HZ     -0.395000
     26 C25        -1.4930   -7.9520    7.1960 c2        1 3HZ     -0.124000
     27 C27        -3.5040   -9.4860    7.2580 c1        1 3HZ     -0.011000
     28 C29        -5.1910   -8.9330    8.9380 c2        1 3HZ     -0.016000
     29 C30        -8.4270   -9.0850   10.8950 c1        1 3HZ     -0.101000
     30 C31        -7.8330   -9.4320    9.9090 c1        1 3HZ     -0.269000
     31 C32        -7.3190   -9.9460    8.7020 c1        1 3HZ      0.121000
     32 C33        -8.5120  -11.4180    7.0610 c1        1 3HZ      0.452000
     33 O34        -8.2230  -12.4220    7.6350 o         1 3HZ     -0.235500
     34 O35        -8.8840  -10.4990    6.3990 o         1 3HZ     -0.235500
     35 O36        -6.1260   -9.7270    8.2520 os        1 3HZ     -0.019000
     36 C37        -2.9790   -7.9470    9.1500 c2        1 3HZ     -0.165000
     37 C38        -1.8370   -7.5590    8.5550 c2        1 3HZ     -0.095000
     38 C39        -1.0020   -3.7370    5.4710 ca        1 3HZ     -0.123500
     39 C40        -0.0000   -2.7820    5.6090 ca        1 3HZ     -0.122000
     40 C41         1.4870   -0.1240    6.1600 c2        1 3HZ     -0.146000
     41 O42         3.1220    1.2400    8.0740 o         1 3HZ     -0.534000
     42 H131       -1.7970   -0.1180    0.7520 ha        1 3HZ      0.223000
     43 H171       -2.6460   -2.4210    2.7850 ha        1 3HZ      0.124500
     44 H222       -1.9870   -5.2180    1.7870 hc        1 3HZ      0.107333
     45 H223       -3.5880   -6.0810    1.6960 hc        1 3HZ      0.107333
     46 H221       -2.0660   -6.9330    1.1800 hc        1 3HZ      0.107333
     47 H241        0.1130   -6.5560    6.9510 ha        1 3HZ      0.129500
     48 H242       -0.2630   -7.6370    5.4810 ha        1 3HZ      0.129500
     49 H071        1.1630   -1.2270    2.3640 h4        1 3HZ      0.145000
     50 H121        3.5860    0.7200    1.9130 ha        1 3HZ      0.182000
     51 H161       -0.8800   -0.7010    3.0390 ha        1 3HZ      0.148000
     52 H192       -3.6330   -4.4260    3.3620 h1        1 3HZ      0.096000
     53 H191       -3.8070   -4.4170    5.1760 h1        1 3HZ      0.096000
     54 H271       -2.5800   -8.7850    5.5170 hc        1 3HZ      0.169000
     55 H301       -5.5660   -8.4360    9.8470 h4        1 3HZ      0.146000
     56 H311       -8.9540   -8.7780   11.7650 ha        1 3HZ      0.228000
     57 H371       -3.2250   -7.6340   10.1770 ha        1 3HZ      0.127000
     58 H381       -1.1180   -6.9090    9.0800 ha        1 3HZ      0.134000
     59 H391       -1.0350   -4.5910    6.1650 ha        1 3HZ      0.124500
     60 H401        0.7510   -2.8750    6.4090 ha        1 3HZ      0.148000
     61 H411        1.1360   -0.3170    7.1690 ha        1 3HZ      0.182000
     62 H201       -2.4120   -6.3290    5.2900 hn        1 3HZ      0.227000
     63 C02         3.2290    1.6880    6.9000 c2        1 3HZ      0.393000
     64 H261       -1.6430   -9.9760    6.4800 hc        1 3HZ      0.169000
@<TRIPOS>BOND
     1    1   16 1   
     2    1   18 1   
     3    1   19 1   
     4    2   19 1   
     5    2   42 1   
     6    3   20 1   
     7    3   21 1   
     8    3   39 1   
     9    4   21 1   
    10    4   22 1   
    11    4   43 1   
    12    5    6 1   
    13    5   24 1   
    14    5   25 1   
    15    6   44 1   
    16    6   45 1   
    17    6   46 1   
    18    7   26 1   
    19    7   47 1   
    20    7   48 1   
    21    8   26 1   
    22    8   27 1   
    23    8   54 1   
    24    8   64 1   
    25    9   27 1   
    26    9   28 1   
    27    9   36 1   
    28   10   63 1   
    29   11   12 1   
    30   11   40 1   
    31   11   63 1   
    32   12   13 1   
    33   13   14 1   
    34   13   20 1   
    35   14   15 1   
    36   14   49 1   
    37   15   16 1   
    38   15   50 1   
    39   16   17 1   
    40   20   40 1   
    41   21   51 1   
    42   22   23 1   
    43   22   38 1   
    44   23   24 1   
    45   23   52 1   
    46   23   53 1   
    47   24   62 1   
    48   26   37 1   
    49   28   35 1   
    50   28   55 1   
    51   29   30 1   
    52   29   56 1   
    53   30   31 1   
    54   31   35 1   
    55   32   33 1   
    56   32   34 1   
    57   36   37 1   
    58   36   57 1   
    59   37   58 1   
    60   38   39 1   
    61   38   59 1   
    62   39   60 1   
    63   40   61 1   
    64   41   63 1   
@<TRIPOS>SUBSTRUCTURE
     1 3HZ         1 TEMP              0 ****  ****    0 ROOT
