@<TRIPOS>MOLECULE
3I6
   42    43     1     0     0
SMALL
bcc


@<TRIPOS>ATOM
      1 O15         0.1560   -1.3120   -0.0910 oh        1 3I6     -0.640800
      2 C14         1.3090   -0.5050   -0.2140 c3        1 3I6      0.111400
      3 C13         1.7910   -0.1710    1.2230 c3        1 3I6      0.135500
      4 C15         0.8700    0.8500    1.8610 c3        1 3I6     -0.141100
      5 N9          1.8440   -1.4700    2.0260 n4        1 3I6     -0.766700
      6 C9          2.3670   -1.3220    3.3960 ca        1 3I6      0.557200
      7 N10         3.6940   -1.0040    3.5290 nb        1 3I6     -0.658000
      8 C8          1.5190   -1.5260    4.5160 ca        1 3I6     -0.206500
      9 BR1        -0.2680   -1.9810    4.4020 br        1 3I6      0.142900
     10 C7          2.1310   -1.3660    5.7990 ca        1 3I6      0.517200
     11 N12         3.4190   -1.0490    5.9650 nb        1 3I6     -0.626000
     12 C11         4.1500   -0.8800    4.8080 ca        1 3I6      0.739900
     13 N1          5.5910   -0.4830    4.9720 n4        1 3I6     -0.626100
     14 C2          6.3240   -1.3170    5.9430 ca        1 3I6      0.050600
     15 C3          7.1530   -2.3530    5.4780 ca        1 3I6     -0.107000
     16 C4          7.8750   -3.1080    6.4020 ca        1 3I6      0.024000
     17 C1          6.2230   -1.0420    7.3170 ca        1 3I6     -0.107000
     18 C6          6.9560   -1.8170    8.2190 ca        1 3I6      0.024000
     19 C5          7.7880   -2.8600    7.7820 ca        1 3I6     -0.429500
     20 S1          8.5000   -3.8940    8.8770 sy        1 3I6      1.449200
     21 O2          7.9350   -3.7700   10.1220 o         1 3I6     -0.520300
     22 O3          8.8880   -5.0660    8.2750 o         1 3I6     -0.520300
     23 N4         10.1470   -3.0490    9.1340 n4        1 3I6     -0.808500
     24 H15        -0.3930   -1.1860   -0.8810 ho        1 3I6      0.478000
     25 H141        1.0990    0.4650   -0.7410 h1        1 3I6      0.090700
     26 H142        2.1030   -1.0730   -0.7730 h1        1 3I6      0.090700
     27 H13         2.8480    0.2230    1.1670 hx        1 3I6      0.112700
     28 H151       -0.1980    0.5190    1.8110 hc        1 3I6      0.089700
     29 H152        0.9570    1.8090    1.2830 hc        1 3I6      0.089700
     30 H153        1.1490    1.0620    2.9210 hc        1 3I6      0.089700
     31 H9          0.8720   -1.8410    2.0690 hn        1 3I6      0.495300
     32 H7          1.5390   -1.5000    6.7400 h4        1 3I6      0.124100
     33 H1          6.0670   -0.5320    4.0530 hn        1 3I6      0.499800
     34 H3          7.2510   -2.5910    4.4030 ha        1 3I6      0.197000
     35 HA          5.5690   -0.2390    7.7090 ha        1 3I6      0.197000
     36 H4          8.5080   -3.9420    6.0250 ha        1 3I6      0.208500
     37 H6          6.8440   -1.6090    9.3050 ha        1 3I6      0.208500
     38 H41N       10.2770   -2.8080   10.1240 hn        1 3I6      0.479467
     39 H42N       10.2790   -2.1920    8.6000 hn        1 3I6      0.479467
     40 H92         2.4200   -2.1460    1.4990 hn        1 3I6      0.495300
     41 H12         5.6000    0.5010    5.3010 hn        1 3I6      0.499800
     42 H43        10.9180   -3.6790    8.8840 hn        1 3I6      0.479467
@<TRIPOS>BOND
     1    1    2 1   
     2    1   24 1   
     3    2    3 1   
     4    2   25 1   
     5    2   26 1   
     6    3    4 1   
     7    3    5 1   
     8    3   27 1   
     9    4   28 1   
    10    4   29 1   
    11    4   30 1   
    12    5    6 1   
    13    5   31 1   
    14    5   40 1   
    15    6    7 ar  
    16    6    8 ar  
    17    7   12 ar  
    18    8    9 1   
    19    8   10 ar  
    20   10   11 ar  
    21   10   32 1   
    22   11   12 ar  
    23   12   13 1   
    24   13   14 1   
    25   13   33 1   
    26   13   41 1   
    27   14   15 ar  
    28   14   17 ar  
    29   15   16 ar  
    30   15   34 1   
    31   16   19 ar  
    32   16   36 1   
    33   17   18 ar  
    34   17   35 1   
    35   18   19 ar  
    36   18   37 1   
    37   19   20 1   
    38   20   21 2   
    39   20   22 2   
    40   20   23 1   
    41   23   38 1   
    42   23   39 1   
    43   23   42 1   
@<TRIPOS>SUBSTRUCTURE
     1 3I6         1 TEMP              0 ****  ****    0 ROOT
