@<TRIPOS>MOLECULE
3I6
   39    35     1     0     0
SMALL
bcc


@<TRIPOS>ATOM
      1 O15        -2.8280    4.1470   -3.1950 oh        1 3I6     -0.327000
      2 C14        -2.9930    2.7560   -3.4700 c3        1 3I6     -0.045000
      3 C13        -3.4340    2.0440   -2.2200 c3        1 3I6      0.028000
      4 C15        -4.9670    2.2320   -2.0270 c3        1 3I6     -0.224000
      5 N9         -3.1450    0.6810   -2.3320 n3        1 3I6     -0.303000
      6 C9         -2.3360    0.0400   -1.3500 c2        1 3I6      0.238000
      7 N10        -1.1500    0.5630   -1.0170 n1        1 3I6     -0.291000
      8 C8         -2.7260   -1.1520   -0.8160 c2        1 3I6     -0.403000
      9 BR1        -4.4110   -1.9120   -1.2940 br        1 3I6      0.077000
     10 C7         -1.9070   -1.8080    0.0560 c1        1 3I6      0.055000
     11 N12        -0.7290   -1.2840    0.3840 n1        1 3I6     -0.241000
     12 C11        -0.3380   -0.0920   -0.1510 c1        1 3I6      0.203000
     13 N1          0.9510    0.4080    0.1170 n3        1 3I6     -0.246000
     14 C2          1.8550   -0.3480    0.9470 c2        1 3I6      0.135000
     15 C3          2.7010   -1.2850    0.3760 c2        1 3I6     -0.153000
     16 C4          3.6450   -1.9360    1.1570 c1        1 3I6      0.000000
     17 C1          1.9500   -0.0660    2.2790 c1        1 3I6     -0.206000
     18 C6          2.8910   -0.7150    3.0580 c1        1 3I6      0.003000
     19 C5          3.7390   -1.6540    2.4870 c1        1 3I6     -0.856000
     20 S1          4.8560   -2.5720    3.5110 s4        1 3I6      2.086800
     21 O2          4.3070   -2.7880    4.8050 o         1 3I6     -0.547400
     22 O3          5.0060   -3.9450    3.0330 o         1 3I6     -0.547400
     23 N4          6.3030   -1.8130    3.5980 n2        1 3I6     -0.953000
     24 H15        -2.7670    4.5980   -3.9650 ho        1 3I6      0.205000
     25 H141       -2.1190    2.3720   -3.7840 h1        1 3I6      0.072500
     26 H142       -3.6660    2.6410   -4.1620 h1        1 3I6      0.072500
     27 H13        -2.9680    2.4080   -1.4650 h1        1 3I6      0.133000
     28 H151       -5.3910    1.3730   -1.9920 hc        1 3I6      0.090667
     29 H152       -5.3260    2.7390   -2.7690 hc        1 3I6      0.090667
     30 H153       -5.1360    2.7150   -1.1870 hc        1 3I6      0.090667
     31 H9         -3.4550    0.2220   -3.0130 hn        1 3I6      0.242000
     32 H7         -2.1890   -2.6730    0.4440 ha        1 3I6      0.178000
     33 H1          1.1800    1.2750   -0.1530 hn        1 3I6      0.248000
     34 H3          2.6350   -1.4830   -0.5540 ha        1 3I6      0.165000
     35 HA          1.3660    0.5800    2.6730 ha        1 3I6      0.141000
     36 H4          4.2270   -2.5800    0.7660 ha        1 3I6      0.154000
     37 H6          2.9580   -0.5150    4.0010 ha        1 3I6      0.154000
     38 H41N        6.9910   -2.0650    3.0360 hn        1 3I6      0.241000
     39 H42N        6.4200   -1.1070    4.1870 hn        1 3I6      0.241000
@<TRIPOS>BOND
     1    1    2 1   
     2    1   24 1   
     3    2    3 1   
     4    2   25 1   
     5    2   26 1   
     6    3    4 1   
     7    3    5 1   
     8    3   27 1   
     9    4   28 1   
    10    4   29 1   
    11    4   30 1   
    12    5    6 1   
    13    5   31 1   
    14    6    7 1   
    15    6    8 1   
    16    8    9 1   
    17    8   10 1   
    18   10   32 1   
    19   11   12 1   
    20   12   13 1   
    21   13   14 1   
    22   13   33 1   
    23   14   15 1   
    24   14   17 1   
    25   15   16 1   
    26   15   34 1   
    27   16   36 1   
    28   17   35 1   
    29   18   19 1   
    30   18   37 1   
    31   19   20 1   
    32   20   21 1   
    33   20   22 1   
    34   23   38 1   
    35   23   39 1   
@<TRIPOS>SUBSTRUCTURE
     1 3I6         1 TEMP              0 ****  ****    0 ROOT
