@<TRIPOS>MOLECULE
3I6
   39    40     1     0     0
SMALL
bcc


@<TRIPOS>ATOM
      1 O15         6.6530    1.9610    0.0100 oh        1 3I6     -0.606800
      2 C14         5.6820    2.5550    0.8560 c3        1 3I6      0.119400
      3 C13         4.2820    2.2350    0.2820 c3        1 3I6      0.221500
      4 C15         4.1470    2.9000   -1.0880 c3        1 3I6     -0.120100
      5 N9          4.0560    0.8020    0.2760 nh        1 3I6     -0.836900
      6 C9          2.7970    0.2430    0.1380 ca        1 3I6      0.750200
      7 N10         1.6830    1.0320    0.2690 nb        1 3I6     -0.817000
      8 C8          2.6670   -1.1770   -0.0760 ca        1 3I6     -0.385500
      9 BR1         4.1210   -2.3070   -0.3010 br        1 3I6     -0.060100
     10 C7          1.3630   -1.6930   -0.1080 ca        1 3I6      0.516200
     11 N12         0.2540   -0.9570    0.0470 nb        1 3I6     -0.766000
     12 C11         0.4530    0.4030    0.2430 ca        1 3I6      0.919900
     13 N1         -0.6520    1.2500    0.4550 nh        1 3I6     -0.725300
     14 C2         -1.9920    0.8810    0.2560 ca        1 3I6      0.217600
     15 C3         -2.5390   -0.3220    0.7540 ca        1 3I6     -0.180500
     16 C4         -3.8930   -0.5880    0.5890 ca        1 3I6      0.002500
     17 C1         -2.8580    1.7990   -0.3930 ca        1 3I6     -0.180500
     18 C6         -4.2060    1.5080   -0.5350 ca        1 3I6      0.002500
     19 C5         -4.7510    0.3150   -0.0460 ca        1 3I6     -0.412500
     20 S1         -6.3850   -0.0370   -0.2530 sy        1 3I6      1.532200
     21 O2         -6.8650    0.6990   -1.3580 o         1 3I6     -0.660300
     22 O3         -6.5440   -1.4400   -0.2790 o         1 3I6     -0.660300
     23 N4         -7.0580    0.5360    1.0850 n3        1 3I6     -1.026700
     24 H15         7.5110    2.1120    0.4250 ho        1 3I6      0.408000
     25 H141        5.7820    2.1570    1.9010 h1        1 3I6      0.036200
     26 H142        5.8140    3.6700    0.8680 h1        1 3I6      0.036200
     27 H13         3.5330    2.7060    0.9880 h1        1 3I6      0.081700
     28 H151        4.9390    2.5280   -1.7820 hc        1 3I6      0.049367
     29 H152        3.1450    2.6950   -1.5330 hc        1 3I6      0.049367
     30 H153        4.2660    4.0030   -0.9700 hc        1 3I6      0.049367
     31 H9          4.8180    0.2640   -0.0860 hn        1 3I6      0.449800
     32 H7          1.1830   -2.7750   -0.2720 h4        1 3I6      0.041100
     33 H1         -0.4630    2.2280    0.3580 hn        1 3I6      0.450800
     34 H3         -1.9110   -1.0600    1.2760 ha        1 3I6      0.153500
     35 HA         -2.4670    2.7460   -0.7960 ha        1 3I6      0.153500
     36 H4         -4.3000   -1.5460    0.9610 ha        1 3I6      0.154000
     37 H6         -4.8620    2.2220   -1.0650 ha        1 3I6      0.154000
     38 H41N       -7.4080    1.4570    1.1710 hn        1 3I6      0.445800
     39 H42N       -7.1900   -0.0010    1.9050 hn        1 3I6      0.445800
@<TRIPOS>BOND
     1    1    2 1   
     2    1   24 1   
     3    2    3 1   
     4    2   25 1   
     5    2   26 1   
     6    3    4 1   
     7    3    5 1   
     8    3   27 1   
     9    4   28 1   
    10    4   29 1   
    11    4   30 1   
    12    5    6 1   
    13    5   31 1   
    14    6    7 ar  
    15    6    8 ar  
    16    7   12 ar  
    17    8    9 1   
    18    8   10 ar  
    19   10   11 ar  
    20   10   32 1   
    21   11   12 ar  
    22   12   13 1   
    23   13   14 1   
    24   13   33 1   
    25   14   15 ar  
    26   14   17 ar  
    27   15   16 ar  
    28   15   34 1   
    29   16   19 ar  
    30   16   36 1   
    31   17   18 ar  
    32   17   35 1   
    33   18   19 ar  
    34   18   37 1   
    35   19   20 1   
    36   20   21 2   
    37   20   22 2   
    38   20   23 1   
    39   23   38 1   
    40   23   39 1   
@<TRIPOS>SUBSTRUCTURE
     1 3I6         1 TEMP              0 ****  ****    0 ROOT
