@<TRIPOS>MOLECULE
3I6
   40    41     1     0     0
SMALL
bcc


@<TRIPOS>ATOM
      1 O15        -0.3280    0.0050    0.4120 oh        1 3I6     -0.609800
      2 C14         0.9880    0.5300    0.3630 c3        1 3I6      0.117400
      3 C13         1.6990    0.1610    1.6870 c3        1 3I6      0.223500
      4 C15         1.0160    0.8990    2.8380 c3        1 3I6     -0.119100
      5 N9          1.7360   -1.2820    1.8550 nh        1 3I6     -0.825900
      6 C9          2.5810   -1.9330    2.7160 ca        1 3I6      0.754200
      7 N10         3.5980   -1.2380    3.3390 nb        1 3I6     -0.786000
      8 C8          2.4440   -3.3590    2.9280 ca        1 3I6     -0.351500
      9 BR1         1.0980   -4.3640    2.1450 br        1 3I6     -0.018100
     10 C7          3.3850   -3.9720    3.7600 ca        1 3I6      0.508200
     11 N12         4.3950   -3.3210    4.3690 nb        1 3I6     -0.765000
     12 C11         4.4550   -1.9660    4.1230 ca        1 3I6      0.883900
     13 N1          5.5360   -1.2120    4.6860 nh        1 3I6     -0.690300
     14 C2          6.1720   -1.4510    5.8630 ca        1 3I6      0.336600
     15 C3          5.7450   -2.4020    6.8460 ca        1 3I6     -0.218500
     16 C4          6.4620   -2.5860    7.9980 ca        1 3I6      0.051500
     17 C1          7.3500   -0.6800    6.1700 ca        1 3I6     -0.218500
     18 C6          8.0470   -0.8910    7.3270 ca        1 3I6      0.051500
     19 C5          7.6530   -1.8620    8.2900 ca        1 3I6     -0.668500
     20 S1          8.4280   -2.0590    9.6320 sy        1 3I6      1.521200
     21 O2          9.3790   -1.1080    9.9360 o         1 3I6     -0.583800
     22 O3          7.7730   -2.7550   10.6270 o         1 3I6     -0.583800
     23 N4          9.6360   -3.4940    9.0290 n4        1 3I6     -0.778500
     24 H15        -0.7700    0.2830   -0.3990 ho        1 3I6      0.420000
     25 H141        0.9620    1.6490    0.2780 h1        1 3I6      0.043200
     26 H142        1.5400    0.1010   -0.5160 h1        1 3I6      0.043200
     27 H13         2.7640    0.5340    1.5950 h1        1 3I6      0.077700
     28 H151       -0.0670    0.6320    2.8850 hc        1 3I6      0.054367
     29 H152        1.1040    1.9980    2.6640 hc        1 3I6      0.054367
     30 H153        1.4970    0.6530    3.8140 hc        1 3I6      0.054367
     31 H9          0.9130   -1.7700    1.5590 hn        1 3I6      0.469800
     32 H7          3.3480   -5.0620    3.9640 h4        1 3I6      0.053100
     33 H1          5.8170   -0.4080    4.1550 hn        1 3I6      0.479800
     34 H3          4.8230   -2.9880    6.6950 ha        1 3I6      0.179500
     35 HA          7.6970    0.0930    5.4630 ha        1 3I6      0.179500
     36 H4          6.0940   -3.3120    8.7490 ha        1 3I6      0.164000
     37 H6          8.9460   -0.2780    7.5370 ha        1 3I6      0.164000
     38 H41N        9.4690   -3.7460    8.0630 hn        1 3I6      0.444467
     39 H42N        9.5060   -4.3220    9.6020 hn        1 3I6      0.444467
     40 H43        10.6030   -3.1970    9.1200 hn        1 3I6      0.444467
@<TRIPOS>BOND
     1    1    2 1   
     2    1   24 1   
     3    2    3 1   
     4    2   25 1   
     5    2   26 1   
     6    3    4 1   
     7    3    5 1   
     8    3   27 1   
     9    4   28 1   
    10    4   29 1   
    11    4   30 1   
    12    5    6 1   
    13    5   31 1   
    14    6    7 ar  
    15    6    8 ar  
    16    7   12 ar  
    17    8    9 1   
    18    8   10 ar  
    19   10   11 ar  
    20   10   32 1   
    21   11   12 ar  
    22   12   13 1   
    23   13   14 1   
    24   13   33 1   
    25   14   15 ar  
    26   14   17 ar  
    27   15   16 ar  
    28   15   34 1   
    29   16   19 ar  
    30   16   36 1   
    31   17   18 ar  
    32   17   35 1   
    33   18   19 ar  
    34   18   37 1   
    35   19   20 1   
    36   20   21 2   
    37   20   22 2   
    38   20   23 1   
    39   23   38 1   
    40   23   39 1   
    41   23   40 1   
@<TRIPOS>SUBSTRUCTURE
     1 3I6         1 TEMP              0 ****  ****    0 ROOT
