@<TRIPOS>MOLECULE
3I6
   40    41     1     0     0
SMALL
bcc


@<TRIPOS>ATOM
      1 O15        -0.3180    0.0330    0.4100 oh        1 3I6     -0.609800
      2 C14         1.0090    0.5260    0.3450 c3        1 3I6      0.117400
      3 C13         1.7180    0.1670    1.6730 c3        1 3I6      0.223500
      4 C15         1.0580    0.9410    2.8120 c3        1 3I6     -0.119100
      5 N9          1.7240   -1.2730    1.8680 nu        1 3I6     -0.825900
      6 C9          2.5580   -1.9260    2.7360 ca        1 3I6      0.754200
      7 N10         3.5940   -1.2430    3.3420 nb        1 3I6     -0.786000
      8 C8          2.3910   -3.3450    2.9760 ca        1 3I6     -0.351500
      9 Br1         1.0180   -4.3350    2.2190 br        1 3I6     -0.018100
     10 C7          3.3230   -3.9630    3.8160 ca        1 3I6      0.508200
     11 N12         4.3500   -3.3230    4.4070 nb        1 3I6     -0.765000
     12 C11         4.4390   -1.9750    4.1350 ca        1 3I6      0.883900
     13 N1          5.5380   -1.2350    4.6780 nu        1 3I6     -0.690300
     14 C2          6.1780   -1.4680    5.8560 ca        1 3I6      0.336600
     15 C3          5.7370   -2.3920    6.8570 ca        1 3I6     -0.218500
     16 C4          6.4580   -2.5710    8.0070 ca        1 3I6      0.051500
     17 C1          7.3730   -0.7160    6.1410 ca        1 3I6     -0.218500
     18 C6          8.0740   -0.9220    7.2980 ca        1 3I6      0.051500
     19 C5          7.6660   -1.8680    8.2790 ca        1 3I6     -0.668500
     20 S1          8.4460   -2.0590    9.6190 sy        1 3I6      1.521200
     21 O2          9.4200   -1.1230    9.9010 o         1 3I6     -0.583800
     22 O3          7.7840   -2.7240   10.6300 o         1 3I6     -0.583800
     23 N4          9.6200   -3.5300    9.0330 nz        1 3I6     -0.778500
     24 H15        -0.7580    0.3050   -0.4050 ho        1 3I6      0.420000
     25 H141        1.0070    1.6440    0.2390 h1        1 3I6      0.043200
     26 H142        1.5460    0.0690   -0.5280 h1        1 3I6      0.043200
     27 H13         2.7900    0.5140    1.5690 h1        1 3I6      0.077700
     28 H151        1.5380    0.7040    3.7910 hc        1 3I6      0.054367
     29 H152       -0.0310    0.7000    2.8690 hc        1 3I6      0.054367
     30 H153        1.1690    2.0350    2.6170 hc        1 3I6      0.054367
     31 H9          0.8890   -1.7480    1.5850 hn        1 3I6      0.469800
     32 H7          3.2620   -5.0480    4.0400 h4        1 3I6      0.053100
     33 H1          5.8330   -0.4460    4.1320 hn        1 3I6      0.479800
     34 H3          4.8020   -2.9610    6.7230 ha        1 3I6      0.179500
     35 HA          7.7310    0.0370    5.4190 ha        1 3I6      0.179500
     36 H4          6.0800   -3.2770    8.7730 ha        1 3I6      0.164000
     37 H6          8.9870   -0.3250    7.4910 ha        1 3I6      0.164000
     38 H41N        9.4760   -4.3450    9.6200 hn        1 3I6      0.444467
     39 H42N       10.5930   -3.2520    9.1120 hn        1 3I6      0.444467
     40 H43         9.4410   -3.7930    8.0720 hn        1 3I6      0.444467
@<TRIPOS>BOND
     1    1    2 1   
     2    1   24 1   
     3    2    3 1   
     4    2   25 1   
     5    2   26 1   
     6    3    4 1   
     7    3    5 1   
     8    3   27 1   
     9    4   28 1   
    10    4   29 1   
    11    4   30 1   
    12    5    6 1   
    13    5   31 1   
    14    6    7 ar  
    15    6    8 ar  
    16    7   12 ar  
    17    8    9 1   
    18    8   10 ar  
    19   10   11 ar  
    20   10   32 1   
    21   11   12 ar  
    22   12   13 1   
    23   13   14 1   
    24   13   33 1   
    25   14   15 ar  
    26   14   17 ar  
    27   15   16 ar  
    28   15   34 1   
    29   16   19 ar  
    30   16   36 1   
    31   17   18 ar  
    32   17   35 1   
    33   18   19 ar  
    34   18   37 1   
    35   19   20 1   
    36   20   21 2   
    37   20   22 2   
    38   20   23 1   
    39   23   38 1   
    40   23   39 1   
    41   23   40 1   
@<TRIPOS>SUBSTRUCTURE
     1 3I6         1 TEMP              0 ****  ****    0 ROOT
