@<TRIPOS>MOLECULE
3I7
   46    48     1     0     0
SMALL
bcc


@<TRIPOS>ATOM
      1 N1          1.5570   -0.4860    2.5640 nz        1 3I7     -0.837600
      2 C2          1.3480    0.1620    1.2440 c3        1 3I7      0.108800
      3 C3          2.2220    1.3910    1.0340 c3        1 3I7     -0.114400
      4 C4          3.7090    1.0770    0.9960 c3        1 3I7      0.115400
      5 O5          4.0640    0.7060    2.3350 os        1 3I7     -0.372900
      6 C6          5.3500    0.2280    2.5280 ca        1 3I7      0.162100
      7 C7          6.3510    0.2900    1.5580 ca        1 3I7     -0.209000
      8 C8          7.6330   -0.2120    1.8410 ca        1 3I7      0.108000
      9 C9          7.8800   -0.7700    3.1090 ca        1 3I7     -0.162000
     10 C10         6.8810   -0.8150    4.0730 ca        1 3I7     -0.057000
     11 C11         5.6010   -0.3180    3.8040 ca        1 3I7     -0.205600
     12 C12         4.5220   -0.3780    4.8280 c         1 3I7      0.726700
     13 O13         3.3660   -0.7790    4.5350 o         1 3I7     -0.713100
     14 N14         4.8580    0.0240    6.0980 ns        1 3I7     -0.441100
     15 C15         4.0010    0.0450    7.2220 ca        1 3I7      0.034600
     16 C16         2.9200   -0.8480    7.3600 ca        1 3I7     -0.151000
     17 C17         2.1250   -0.8040    8.5040 ca        1 3I7     -0.107000
     18 C18         2.3880    0.1120    9.5190 ca        1 3I7     -0.131000
     19 C19         3.4590    0.9960    9.3900 ca        1 3I7     -0.107000
     20 C20         4.2640    0.9720    8.2570 ca        1 3I7     -0.151000
     21 C21         8.6670   -0.1550    0.8510 cc        1 3I7     -0.260300
     22 C22         8.6340    0.5320   -0.4300 cc        1 3I7      0.321200
     23 N23         9.8070    0.3530   -1.0840 nd        1 3I7     -0.492800
     24 N24        10.5770   -0.4050   -0.2980 na        1 3I7     -0.001600
     25 C25         9.9510   -0.7470    0.8930 cd        1 3I7     -0.094300
     26 HN1         2.5460   -0.8010    2.6640 hn        1 3I7      0.472467
     27 HN1A        1.4050    0.1800    3.3310 hn        1 3I7      0.472467
     28 HN1B        0.9350   -1.2850    2.6830 hn        1 3I7      0.472467
     29 HN24       11.4950   -0.6570   -0.5900 hn        1 3I7      0.337700
     30 H2          1.5680   -0.6080    0.4490 hx        1 3I7      0.101700
     31 H2A         0.2620    0.4590    1.1690 hx        1 3I7      0.101700
     32 H3          2.0220    2.1560    1.8310 hc        1 3I7      0.098700
     33 H3A         1.9350    1.8410    0.0450 hc        1 3I7      0.098700
     34 H4          4.2890    1.9920    0.6990 h1        1 3I7      0.069200
     35 H4A         3.9370    0.2350    0.2910 h1        1 3I7      0.069200
     36 H7          6.1550    0.7330    0.5710 ha        1 3I7      0.149000
     37 H9          8.8790   -1.1700    3.3420 ha        1 3I7      0.151000
     38 H10         7.1000   -1.2640    5.0560 ha        1 3I7      0.152000
     39 HN14        5.7680    0.4080    6.2390 hn        1 3I7      0.333500
     40 H16         2.7010   -1.5840    6.5720 ha        1 3I7      0.143500
     41 H17         1.2860   -1.5100    8.6040 ha        1 3I7      0.143000
     42 H18         1.7570    0.1370   10.4210 ha        1 3I7      0.147000
     43 H19         3.6740    1.7200   10.1920 ha        1 3I7      0.143000
     44 H20         5.1060    1.6780    8.1780 ha        1 3I7      0.143500
     45 H22         7.8240    1.1260   -0.8530 h4        1 3I7      0.044100
     46 H25        10.4320   -1.3630    1.6530 h4        1 3I7      0.187000
@<TRIPOS>BOND
     1    1    2 1   
     2    1   26 1   
     3    1   27 1   
     4    1   28 1   
     5    2    3 1   
     6    2   30 1   
     7    2   31 1   
     8    3    4 1   
     9    3   32 1   
    10    3   33 1   
    11    4    5 1   
    12    4   34 1   
    13    4   35 1   
    14    5    6 1   
    15    6    7 ar  
    16    6   11 ar  
    17    7    8 ar  
    18    7   36 1   
    19    8    9 ar  
    20    8   21 1   
    21    9   10 ar  
    22    9   37 1   
    23   10   11 ar  
    24   10   38 1   
    25   11   12 1   
    26   12   13 2   
    27   12   14 1   
    28   14   15 1   
    29   14   39 1   
    30   15   16 ar  
    31   15   20 ar  
    32   16   17 ar  
    33   16   40 1   
    34   17   18 ar  
    35   17   41 1   
    36   18   19 ar  
    37   18   42 1   
    38   19   20 ar  
    39   19   43 1   
    40   20   44 1   
    41   21   22 1   
    42   21   25 2   
    43   22   23 2   
    44   22   45 1   
    45   23   24 1   
    46   24   25 1   
    47   24   29 1   
    48   25   46 1   
@<TRIPOS>SUBSTRUCTURE
     1 3I7         1 TEMP              0 ****  ****    0 ROOT
