@<TRIPOS>MOLECULE
3I7
   46    48     1     0     0
SMALL
bcc


@<TRIPOS>ATOM
      1 N1          0.6070   -1.0530    1.8080 n4        1 3I7     -0.838600
      2 C2          1.5010   -0.0000    1.2310 c3        1 3I7      0.116800
      3 C3          2.6890    0.2440    2.1380 c3        1 3I7     -0.172400
      4 C4          3.6120    1.3250    1.5980 c3        1 3I7      0.143400
      5 O5          4.6040    1.6090    2.5850 os        1 3I7     -0.324900
      6 C6          5.6320    0.6700    2.6540 ca        1 3I7      0.110100
      7 C7          6.6450    0.7040    1.6900 ca        1 3I7     -0.155000
      8 C8          7.7590   -0.1430    1.8110 ca        1 3I7      0.072000
      9 C9          7.8280   -1.0150    2.9120 ca        1 3I7     -0.139000
     10 C10         6.8170   -1.0440    3.8660 ca        1 3I7     -0.079000
     11 C11         5.7000   -0.2110    3.7440 ca        1 3I7     -0.180600
     12 C12         4.6090   -0.2980    4.7630 c         1 3I7      0.706700
     13 O13         3.5400   -0.9020    4.5130 o         1 3I7     -0.665100
     14 N14         4.8750    0.3030    5.9720 n         1 3I7     -0.444100
     15 C15         4.0130    0.3600    7.0860 ca        1 3I7      0.042600
     16 C16         3.0070   -0.6010    7.3130 ca        1 3I7     -0.156500
     17 C17         2.2040   -0.5130    8.4480 ca        1 3I7     -0.107000
     18 C18         2.3830    0.5150    9.3700 ca        1 3I7     -0.138000
     19 C19         3.3790    1.4680    9.1550 ca        1 3I7     -0.107000
     20 C20         4.1900    1.4020    8.0280 ca        1 3I7     -0.156500
     21 C21         8.8030   -0.1120    0.8300 cc        1 3I7     -0.250300
     22 C22         8.8760    0.7170   -0.3630 cc        1 3I7      0.318200
     23 N23        10.0210    0.4610   -1.0390 nd        1 3I7     -0.496800
     24 N24        10.6770   -0.4760   -0.3500 na        1 3I7     -0.005600
     25 C25         9.9970   -0.8690    0.7970 cd        1 3I7     -0.103300
     26 HN1         1.1360   -1.9230    1.9350 hn        1 3I7      0.463133
     27 HN1A        0.2690   -0.7510    2.7300 hn        1 3I7      0.463133
     28 HN1B       -0.1910   -1.2240    1.1920 hn        1 3I7      0.463133
     29 HN24       11.5600   -0.8060   -0.6680 hn        1 3I7      0.335700
     30 H2          1.8380   -0.3540    0.2140 hx        1 3I7      0.106200
     31 H2A         0.8900    0.9400    1.1070 hx        1 3I7      0.106200
     32 H3          3.2890   -0.7000    2.2740 hc        1 3I7      0.102700
     33 H3A         2.3490    0.5560    3.1660 hc        1 3I7      0.102700
     34 H4          3.0760    2.3040    1.4750 h1        1 3I7      0.067700
     35 H4A         4.0850    1.0140    0.6310 h1        1 3I7      0.067700
     36 H7          6.5710    1.4140    0.8530 ha        1 3I7      0.153000
     37 H9          8.6970   -1.6820    3.0250 ha        1 3I7      0.147000
     38 H10         6.8910   -1.7330    4.7230 ha        1 3I7      0.152000
     39 HN14        5.7150    0.8370    6.0450 hn        1 3I7      0.334500
     40 H16         2.8530   -1.4250    6.6000 ha        1 3I7      0.145000
     41 H17         1.4260   -1.2730    8.6180 ha        1 3I7      0.140000
     42 H18         1.7470    0.5740   10.2660 ha        1 3I7      0.144000
     43 H19         3.5280    2.2810    9.8820 ha        1 3I7      0.140000
     44 H20         4.9710    2.1640    7.8800 ha        1 3I7      0.145000
     45 H22         8.1530    1.4560   -0.7100 h4        1 3I7      0.045100
     46 H25        10.3890   -1.6220    1.4810 h4        1 3I7      0.185000
@<TRIPOS>BOND
     1    1    2 1   
     2    1   26 1   
     3    1   27 1   
     4    1   28 1   
     5    2    3 1   
     6    2   30 1   
     7    2   31 1   
     8    3    4 1   
     9    3   32 1   
    10    3   33 1   
    11    4    5 1   
    12    4   34 1   
    13    4   35 1   
    14    5    6 1   
    15    6    7 ar  
    16    6   11 ar  
    17    7    8 ar  
    18    7   36 1   
    19    8    9 ar  
    20    8   21 1   
    21    9   10 ar  
    22    9   37 1   
    23   10   11 ar  
    24   10   38 1   
    25   11   12 1   
    26   12   13 2   
    27   12   14 1   
    28   14   15 1   
    29   14   39 1   
    30   15   16 ar  
    31   15   20 ar  
    32   16   17 ar  
    33   16   40 1   
    34   17   18 ar  
    35   17   41 1   
    36   18   19 ar  
    37   18   42 1   
    38   19   20 ar  
    39   19   43 1   
    40   20   44 1   
    41   21   22 1   
    42   21   25 2   
    43   22   23 2   
    44   22   45 1   
    45   23   24 1   
    46   24   25 1   
    47   24   29 1   
    48   25   46 1   
@<TRIPOS>SUBSTRUCTURE
     1 3I7         1 TEMP              0 ****  ****    0 ROOT
