@<TRIPOS>MOLECULE
3I7
   46    48     1     0     0
SMALL
bcc


@<TRIPOS>ATOM
      1 N1          1.5820   -0.5980    2.5500 n4        1 3I7     -0.837600
      2 C2          1.3620    0.0280    1.2210 c3        1 3I7      0.108800
      3 C3          2.1990    1.2810    1.0020 c3        1 3I7     -0.114400
      4 C4          3.6950    1.0130    0.9780 c3        1 3I7      0.115400
      5 O5          4.0520    0.6680    2.3230 os        1 3I7     -0.372900
      6 C6          5.3510    0.2320    2.5300 ca        1 3I7      0.162100
      7 C7          6.3570    0.3150    1.5650 ca        1 3I7     -0.209000
      8 C8          7.6520   -0.1440    1.8620 ca        1 3I7      0.108000
      9 C9          7.9070   -0.6800    3.1370 ca        1 3I7     -0.162000
     10 C10         6.9040   -0.7460    4.0960 ca        1 3I7     -0.057000
     11 C11         5.6110   -0.2920    3.8130 ca        1 3I7     -0.205600
     12 C12         4.5270   -0.3750    4.8310 c         1 3I7      0.726700
     13 O13         3.3860   -0.8140    4.5350 o         1 3I7     -0.713100
     14 N14         4.8420    0.0510    6.0990 n         1 3I7     -0.441100
     15 C15         3.9780    0.0580    7.2160 ca        1 3I7      0.034600
     16 C16         2.9240   -0.8670    7.3580 ca        1 3I7     -0.151000
     17 C17         2.1200   -0.8350    8.4950 ca        1 3I7     -0.107000
     18 C18         2.3470    0.1000    9.5020 ca        1 3I7     -0.131000
     19 C19         3.3920    1.0150    9.3700 ca        1 3I7     -0.107000
     20 C20         4.2040    1.0040    8.2420 ca        1 3I7     -0.151000
     21 C21         8.6900   -0.0650    0.8780 cc        1 3I7     -0.260300
     22 C22         8.6450    0.6090   -0.4100 cc        1 3I7      0.321200
     23 N23         9.8270    0.4590   -1.0540 nd        1 3I7     -0.492800
     24 N24        10.6140   -0.2680   -0.2570 na        1 3I7     -0.001600
     25 C25         9.9910   -0.6180    0.9330 cd        1 3I7     -0.094300
     26 HN1         2.5800   -0.8810    2.6590 hn        1 3I7      0.472467
     27 HN1A        1.4040    0.0720    3.3080 hn        1 3I7      0.472467
     28 HN1B        0.9840   -1.4150    2.6740 hn        1 3I7      0.472467
     29 HN24       11.5410   -0.4950   -0.5410 hn        1 3I7      0.337700
     30 H2          1.6110   -0.7440    0.4360 hx        1 3I7      0.101700
     31 H2A         0.2680    0.2900    1.1350 hx        1 3I7      0.101700
     32 H3          1.9040    1.7110    0.0060 hc        1 3I7      0.098700
     33 H3A         1.9700    2.0490    1.7890 hc        1 3I7      0.098700
     34 H4          3.9530    0.1710    0.2840 h1        1 3I7      0.069200
     35 H4A         4.2480    1.9420    0.6740 h1        1 3I7      0.069200
     36 H7          6.1530    0.7410    0.5720 ha        1 3I7      0.149000
     37 H9          8.9160   -1.0480    3.3810 ha        1 3I7      0.151000
     38 H10         7.1290   -1.1780    5.0850 ha        1 3I7      0.152000
     39 HN14        5.7390    0.4650    6.2410 hn        1 3I7      0.333500
     40 H16         2.7330   -1.6180    6.5760 ha        1 3I7      0.143500
     41 H17         1.3030   -1.5660    8.5980 ha        1 3I7      0.143000
     42 H18         1.7100    0.1150   10.3990 ha        1 3I7      0.147000
     43 H19         3.5790    1.7540   10.1650 ha        1 3I7      0.143000
     44 H20         5.0240    1.7350    8.1620 ha        1 3I7      0.143500
     45 H22         7.8200    1.1750   -0.8430 h4        1 3I7      0.044100
     46 H25        10.4850   -1.2130    1.7020 h4        1 3I7      0.187000
@<TRIPOS>BOND
     1    1    2 1   
     2    1   26 1   
     3    1   27 1   
     4    1   28 1   
     5    2    3 1   
     6    2   30 1   
     7    2   31 1   
     8    3    4 1   
     9    3   32 1   
    10    3   33 1   
    11    4    5 1   
    12    4   34 1   
    13    4   35 1   
    14    5    6 1   
    15    6    7 ar  
    16    6   11 ar  
    17    7    8 ar  
    18    7   36 1   
    19    8    9 ar  
    20    8   21 1   
    21    9   10 ar  
    22    9   37 1   
    23   10   11 ar  
    24   10   38 1   
    25   11   12 1   
    26   12   13 2   
    27   12   14 1   
    28   14   15 1   
    29   14   39 1   
    30   15   16 ar  
    31   15   20 ar  
    32   16   17 ar  
    33   16   40 1   
    34   17   18 ar  
    35   17   41 1   
    36   18   19 ar  
    37   18   42 1   
    38   19   20 ar  
    39   19   43 1   
    40   20   44 1   
    41   21   22 1   
    42   21   25 2   
    43   22   23 2   
    44   22   45 1   
    45   23   24 1   
    46   24   25 1   
    47   24   29 1   
    48   25   46 1   
@<TRIPOS>SUBSTRUCTURE
     1 3I7         1 TEMP              0 ****  ****    0 ROOT
