@<TRIPOS>MOLECULE
3IB
   27    28     1     0     0
SMALL
bcc


@<TRIPOS>ATOM
      1 N1         -0.1340    1.0000    0.4560 na        1 3IB     -0.205400
      2 C2          1.2410    1.2110    0.6260 cc        1 3IB     -0.105100
      3 C3          1.6710    0.6480    1.8270 cd        1 3IB     -0.110400
      4 C4          0.2900   -0.6450    3.6400 ca        1 3IB     -0.077000
      5 C5         -0.9900   -1.0910    3.9380 ca        1 3IB     -0.175000
      6 C6         -2.0670   -0.8530    3.0670 ca        1 3IB     -0.124000
      7 C7         -1.8990   -0.1650    1.8740 ca        1 3IB     -0.157000
      8 C8         -0.6100    0.2920    1.5580 ca        1 3IB     -0.048200
      9 C9          0.5060    0.0500    2.4510 ca        1 3IB     -0.091800
     10 C10         3.0400    0.6490    2.3640 c3        1 3IB     -0.019200
     11 C11         3.9950    1.4990    1.5490 c3        1 3IB     -0.065400
     12 C12         5.3940    1.4820    2.1130 c3        1 3IB     -0.195400
     13 C13         6.3810    2.2210    1.1920 c         1 3IB      0.908600
     14 O1          7.3760    2.7820    1.7350 o         1 3IB     -0.852800
     15 O2          6.1670    2.2220   -0.0550 o         1 3IB     -0.852800
     16 HN1        -0.6730    1.2980   -0.3090 hn        1 3IB      0.289700
     17 H2          1.8250    1.7510   -0.1240 h4        1 3IB      0.185000
     18 H4          1.1310   -0.8310    4.3240 ha        1 3IB      0.134000
     19 H5         -1.1720   -1.6400    4.8730 ha        1 3IB      0.118000
     20 H6         -3.0660   -1.2230    3.3400 ha        1 3IB      0.115000
     21 H7         -2.7450    0.0160    1.2000 ha        1 3IB      0.120000
     22 H101        3.4200   -0.4100    2.3980 hc        1 3IB      0.039200
     23 H102        3.0190    1.0200    3.4250 hc        1 3IB      0.039200
     24 H111        4.0340    1.1310    0.4890 hc        1 3IB      0.045700
     25 H112        3.6220    2.5560    1.5150 hc        1 3IB      0.045700
     26 H121        5.7530    0.4270    2.2210 hc        1 3IB      0.020700
     27 H122        5.4140    1.9540    3.1270 hc        1 3IB      0.020700
@<TRIPOS>BOND
     1    1    2 1   
     2    1    8 1   
     3    1   16 1   
     4    2    3 2   
     5    2   17 1   
     6    3    9 1   
     7    3   10 1   
     8    4    5 ar  
     9    4    9 ar  
    10    4   18 1   
    11    5    6 ar  
    12    5   19 1   
    13    6    7 ar  
    14    6   20 1   
    15    7    8 ar  
    16    7   21 1   
    17    8    9 ar  
    18   10   11 1   
    19   10   22 1   
    20   10   23 1   
    21   11   12 1   
    22   11   24 1   
    23   11   25 1   
    24   12   13 1   
    25   12   26 1   
    26   12   27 1   
    27   13   14 1   
    28   13   15 1   
@<TRIPOS>SUBSTRUCTURE
     1 3IB         1 TEMP              0 ****  ****    0 ROOT
