@<TRIPOS>MOLECULE
3IB
   27    22     1     0     0
SMALL
bcc


@<TRIPOS>ATOM
      1 N1         -2.0880   -0.0730   -1.6950 n2        1 3IB     -0.228000
      2 C2         -0.7230   -0.1340   -1.7030 c1        1 3IB     -0.078000
      3 C3         -0.2880   -0.1570   -0.3930 c1        1 3IB     -0.118000
      4 C4         -1.5380   -0.1130    1.8220 c1        1 3IB     -0.077000
      5 C5         -2.8010   -0.0640    2.3920 c1        1 3IB     -0.149500
      6 C6         -3.9270   -0.0120    1.5810 c1        1 3IB     -0.149500
      7 C7         -3.7890   -0.0090    0.2010 c1        1 3IB     -0.157000
      8 C8         -2.5090   -0.0580   -0.3770 c1        1 3IB     -0.003000
      9 C9         -1.3970   -0.1100    0.4230 c1        1 3IB     -0.080000
     10 C10         1.1120   -0.6910   -0.1910 c2        1 3IB     -0.102000
     11 C11         2.1140    0.4120   -0.4500 c3        1 3IB     -0.144000
     12 C12         3.5050   -0.0830   -0.1220 c3        1 3IB     -0.224000
     13 C13         4.5290    0.7980   -0.8050 c2        1 3IB      0.328000
     14 O1          5.1450    0.3770   -1.8190 o         1 3IB     -0.587500
     15 O2          4.7750    1.9460   -0.3500 o         1 3IB     -0.587500
     16 HN1        -2.6270   -0.0470   -2.4290 DU        1 3IB      0.212500
     17 H2         -0.1550   -0.1700   -2.4960 DU        1 3IB      0.212500
     18 H4         -0.7460   -0.1500    2.3920 ha        1 3IB      0.134000
     19 H5         -2.8990   -0.0670    3.3630 ha        1 3IB      0.116500
     20 H6         -4.8160    0.0170    1.9820 ha        1 3IB      0.116500
     21 H7         -4.5810    0.0290   -0.3690 ha        1 3IB      0.120000
     22 H101        1.2720   -1.4290   -0.8130 ha        1 3IB      0.078500
     23 H102        1.2090   -1.0110    0.7280 ha        1 3IB      0.078500
     24 H111        1.9020    1.1840    0.1120 hc        1 3IB      0.085000
     25 H112        2.0750    0.6740   -1.3910 hc        1 3IB      0.085000
     26 H121        3.6060   -1.0040   -0.4370 hc        1 3IB      0.060000
     27 H122        3.6420   -0.0530    0.8450 hc        1 3IB      0.060000
@<TRIPOS>BOND
     1    1    2 1   
     2    1    8 1   
     3    2    3 1   
     4    3    9 1   
     5    4    9 1   
     6    4   18 1   
     7    5    6 1   
     8    5   19 1   
     9    6   20 1   
    10    7    8 1   
    11    7   21 1   
    12   10   11 1   
    13   10   22 1   
    14   10   23 1   
    15   11   12 1   
    16   11   24 1   
    17   11   25 1   
    18   12   13 1   
    19   12   26 1   
    20   12   27 1   
    21   13   14 1   
    22   13   15 1   
@<TRIPOS>SUBSTRUCTURE
     1 3IB         1 TEMP              0 ****  ****    0 ROOT
