@<TRIPOS>MOLECULE
3IB
   27    28     1     0     0
SMALL
bcc


@<TRIPOS>ATOM
      1 N1          1.3910    1.1870   -2.0590 na        1 3IB     -0.205400
      2 C2          1.2810    0.8440   -0.7050 cc        1 3IB     -0.105100
      3 C3          0.2230   -0.0440   -0.5150 cd        1 3IB     -0.110400
      4 C4         -1.4360   -1.0450   -2.2790 ca        1 3IB     -0.077000
      5 C5         -1.7410   -1.0360   -3.6330 ca        1 3IB     -0.175000
      6 C6         -0.9960   -0.2680   -4.5440 ca        1 3IB     -0.124000
      7 C7          0.0730    0.5140   -4.1310 ca        1 3IB     -0.157000
      8 C8          0.3930    0.5150   -2.7650 ca        1 3IB     -0.048200
      9 C9         -0.3690   -0.2760   -1.8190 ca        1 3IB     -0.091800
     10 C10        -0.2140   -0.6430    0.7550 c3        1 3IB     -0.019200
     11 C11         0.5110   -0.0710    1.9580 c3        1 3IB     -0.065400
     12 C12         0.0530   -0.7030    3.2490 c3        1 3IB     -0.195400
     13 C13         0.9030   -0.2260    4.4410 c         1 3IB      0.908600
     14 O1          0.3430   -0.1750    5.5740 o         1 3IB     -0.852800
     15 O2          2.1160    0.0760    4.2420 o         1 3IB     -0.852800
     16 HN1         2.0580    1.7930   -2.4480 hn        1 3IB      0.289700
     17 H2          1.9670    1.2580    0.0390 h4        1 3IB      0.185000
     18 H4         -2.0220   -1.6470   -1.5690 ha        1 3IB      0.134000
     19 H5         -2.5810   -1.6390   -4.0070 ha        1 3IB      0.118000
     20 H6         -1.2700   -0.2880   -5.6090 ha        1 3IB      0.115000
     21 H7          0.6490    1.1120   -4.8480 ha        1 3IB      0.120000
     22 H101       -0.0450   -1.7550    0.7120 hc        1 3IB      0.039200
     23 H102       -1.3210   -0.4870    0.8740 hc        1 3IB      0.039200
     24 H111        0.3440    1.0360    2.0060 hc        1 3IB      0.045700
     25 H112        1.6180   -0.2320    1.8570 hc        1 3IB      0.045700
     26 H121        0.1470   -1.8170    3.1880 hc        1 3IB      0.020700
     27 H122       -1.0210   -0.4610    3.4450 hc        1 3IB      0.020700
@<TRIPOS>BOND
     1    1    2 1   
     2    1    8 1   
     3    1   16 1   
     4    2    3 2   
     5    2   17 1   
     6    3    9 1   
     7    3   10 1   
     8    4    5 ar  
     9    4    9 ar  
    10    4   18 1   
    11    5    6 ar  
    12    5   19 1   
    13    6    7 ar  
    14    6   20 1   
    15    7    8 ar  
    16    7   21 1   
    17    8    9 ar  
    18   10   11 1   
    19   10   22 1   
    20   10   23 1   
    21   11   12 1   
    22   11   24 1   
    23   11   25 1   
    24   12   13 1   
    25   12   26 1   
    26   12   27 1   
    27   13   14 1   
    28   13   15 1   
@<TRIPOS>SUBSTRUCTURE
     1 3IB         1 TEMP              0 ****  ****    0 ROOT
