@<TRIPOS>MOLECULE
3IB
   27    28     1     0     0
SMALL
bcc


@<TRIPOS>ATOM
      1 N1         -0.0500    0.8880    0.3340 na        1 3IB     -0.205400
      2 C2          1.3080    1.1370    0.5700 cc        1 3IB     -0.105100
      3 C3          1.6830    0.6360    1.8160 cd        1 3IB     -0.110400
      4 C4          0.2290   -0.6110    3.6040 ca        1 3IB     -0.077000
      5 C5         -1.0560   -1.0730    3.8510 ca        1 3IB     -0.175000
      6 C6         -2.0870   -0.8970    2.9130 ca        1 3IB     -0.124000
      7 C7         -1.8670   -0.2570    1.7020 ca        1 3IB     -0.157000
      8 C8         -0.5730    0.2160    1.4380 ca        1 3IB     -0.048200
      9 C9          0.4970    0.0380    2.4000 ca        1 3IB     -0.091800
     10 C10         3.0190    0.6900    2.4270 c3        1 3IB     -0.019200
     11 C11         4.0010    1.5260    1.6280 c3        1 3IB     -0.065400
     12 C12         5.3660    1.5630    2.2690 c3        1 3IB     -0.195400
     13 C13         6.3880    2.2840    1.3710 c         1 3IB      0.908600
     14 O1          7.3390    2.8920    1.9420 o         1 3IB     -0.852800
     15 O2          6.2450    2.2240    0.1150 o         1 3IB     -0.852800
     16 HN1        -0.5510    1.1400   -0.4720 hn        1 3IB      0.289700
     17 H2          1.9220    1.6580   -0.1700 h4        1 3IB      0.185000
     18 H4          1.0340   -0.7490    4.3410 ha        1 3IB      0.134000
     19 H5         -1.2790   -1.5860    4.7970 ha        1 3IB      0.118000
     20 H6         -3.0920   -1.2780    3.1460 ha        1 3IB      0.115000
     21 H7         -2.6780   -0.1230    0.9750 ha        1 3IB      0.120000
     22 H101        3.4170   -0.3580    2.5280 hc        1 3IB      0.039200
     23 H102        2.9310    1.1060    3.4680 hc        1 3IB      0.039200
     24 H111        4.1060    1.1130    0.5890 hc        1 3IB      0.045700
     25 H112        3.6090    2.5710    1.5270 hc        1 3IB      0.045700
     26 H121        5.7390    0.5220    2.4420 hc        1 3IB      0.020700
     27 H122        5.3200    2.0790    3.2600 hc        1 3IB      0.020700
@<TRIPOS>BOND
     1    1    2 1   
     2    1    8 1   
     3    1   16 1   
     4    2    3 2   
     5    2   17 1   
     6    3    9 1   
     7    3   10 1   
     8    4    5 ar  
     9    4    9 ar  
    10    4   18 1   
    11    5    6 ar  
    12    5   19 1   
    13    6    7 ar  
    14    6   20 1   
    15    7    8 ar  
    16    7   21 1   
    17    8    9 ar  
    18   10   11 1   
    19   10   22 1   
    20   10   23 1   
    21   11   12 1   
    22   11   24 1   
    23   11   25 1   
    24   12   13 1   
    25   12   26 1   
    26   12   27 1   
    27   13   14 1   
    28   13   15 1   
@<TRIPOS>SUBSTRUCTURE
     1 3IB         1 TEMP              0 ****  ****    0 ROOT
