@<TRIPOS>MOLECULE
3ID
   18    19     1     0     0
SMALL
bcc


@<TRIPOS>ATOM
      1 N1          1.0750    0.0070   -2.3610 na        1 3ID     -0.192400
      2 C2         -0.0920   -0.0520   -3.1290 cc        1 3ID     -0.109100
      3 C3         -1.2100   -0.0810   -2.2990 cd        1 3ID     -0.186200
      4 C4         -1.3590   -0.0420    0.3080 ca        1 3ID     -0.129000
      5 C5         -0.5660    0.0080    1.4470 ca        1 3ID      0.022100
      6 C6          0.8560    0.0620    1.3690 ca        1 3ID      0.132100
      7 C7          1.5120    0.0670    0.1410 ca        1 3ID     -0.159000
      8 C8          0.7140    0.0160   -1.0120 ca        1 3ID     -0.040200
      9 C9         -0.7300   -0.0390   -0.9370 ca        1 3ID     -0.095800
     10 O1         -1.0830    0.0100    2.7300 oh        1 3ID     -0.523100
     11 O2          1.6430    0.1120    2.4960 oh        1 3ID     -0.499100
     12 HN1         1.9960    0.0370   -2.7050 hn        1 3ID      0.299700
     13 H2         -0.0360   -0.0680   -4.2190 h4        1 3ID      0.165000
     14 H3         -2.2490   -0.1270   -2.6070 ha        1 3ID      0.156000
     15 H4         -2.4540   -0.0840    0.3810 ha        1 3ID      0.139000
     16 H7          2.6070    0.1080    0.0980 ha        1 3ID      0.154000
     17 H1O        -2.0460   -0.0290    2.6590 ho        1 3ID      0.427000
     18 H2O         1.0600    0.1020    3.2710 ho        1 3ID      0.438000
@<TRIPOS>BOND
     1    1    2 1   
     2    1    8 1   
     3    1   12 1   
     4    2    3 2   
     5    2   13 1   
     6    3    9 1   
     7    3   14 1   
     8    4    5 ar  
     9    4    9 ar  
    10    4   15 1   
    11    5    6 ar  
    12    5   10 1   
    13    6    7 ar  
    14    6   11 1   
    15    7    8 ar  
    16    7   16 1   
    17    8    9 ar  
    18   10   17 1   
    19   11   18 1   
@<TRIPOS>SUBSTRUCTURE
     1 3ID         1 TEMP              0 ****  ****    0 ROOT
