@<TRIPOS>MOLECULE
3ID
   18    19     1     0     0
SMALL
bcc


@<TRIPOS>ATOM
      1 N1         -0.0320   -0.0060   -0.0040 na        1 3ID     -0.192400
      2 C2          1.3650   -0.0550    0.0080 cc        1 3ID     -0.111100
      3 C3          1.8340   -0.0200    1.3190 cd        1 3ID     -0.184200
      4 C4          0.5090    0.1150    3.5650 ca        1 3ID     -0.145000
      5 C5         -0.7800    0.1810    4.0810 ca        1 3ID      0.081100
      6 C6         -1.9190    0.1870    3.2200 ca        1 3ID      0.127100
      7 C7         -1.7820    0.1280    1.8370 ca        1 3ID     -0.212000
      8 C8         -0.4800    0.0620    1.3170 ca        1 3ID     -0.040200
      9 C9          0.6780    0.0550    2.1810 ca        1 3ID     -0.090800
     10 O1         -1.0460    0.2430    5.4320 oh        1 3ID     -0.479100
     11 O2         -3.1440    0.2550    3.8410 oh        1 3ID     -0.474100
     12 HN1        -0.6070   -0.0170   -0.8030 hn        1 3ID      0.297700
     13 H2          1.9240   -0.1110   -0.9280 h4        1 3ID      0.165000
     14 H3          2.8690   -0.0440    1.6420 ha        1 3ID      0.157000
     15 H4          1.3820    0.1100    4.2330 ha        1 3ID      0.140000
     16 H7         -2.6620    0.1340    1.1820 ha        1 3ID      0.137000
     17 H1O        -0.1960    0.2310    5.8950 ho        1 3ID      0.412000
     18 H2O        -3.8240    0.2520    3.1510 ho        1 3ID      0.413000
@<TRIPOS>BOND
     1    1    2 1   
     2    1    8 1   
     3    1   12 1   
     4    2    3 2   
     5    2   13 1   
     6    3    9 1   
     7    3   14 1   
     8    4    5 ar  
     9    4    9 ar  
    10    4   15 1   
    11    5    6 ar  
    12    5   10 1   
    13    6    7 ar  
    14    6   11 1   
    15    7    8 ar  
    16    7   16 1   
    17    8    9 ar  
    18   10   17 1   
    19   11   18 1   
@<TRIPOS>SUBSTRUCTURE
     1 3ID         1 TEMP              0 ****  ****    0 ROOT
