@<TRIPOS>MOLECULE
3ID
   18    13     1     0     0
SMALL
bcc


@<TRIPOS>ATOM
      1 N1          0.3150    0.0320   -2.3230 n2        1 3ID     -0.326600
      2 C2          1.6820    0.0320   -2.3230 cg        1 3ID     -0.028200
      3 C3          2.1090    0.0320   -1.0100 ch        1 3ID     -0.196000
      4 C4          0.8460    0.0320    1.1970 c1        1 3ID     -0.087500
      5 C5         -0.4220    0.0320    1.7600 c1        1 3ID      0.087600
      6 C6         -1.5440    0.0320    0.9420 c1        1 3ID      0.087600
      7 C7         -1.3980    0.0320   -0.4370 c1        1 3ID     -0.154500
      8 C8         -0.1140    0.0320   -1.0080 cg        1 3ID      0.060800
      9 C9          0.9950    0.0320   -0.2010 ch        1 3ID     -0.079000
     10 O1         -0.5290   -0.0790    3.1580 oh        1 3ID     -0.460100
     11 O2         -2.7290    0.5900    1.4580 oh        1 3ID     -0.460100
     12 HN1        -0.2210    0.0320   -3.0610 DU        1 3ID      0.190000
     13 H2          2.2560    0.0310   -3.1130 DU        1 3ID      0.190000
     14 H3          3.0380    0.0320   -0.7090 DU        1 3ID      0.190000
     15 H4          1.6350    0.0320    1.7720 ha        1 3ID      0.082500
     16 H7         -2.1870    0.0320   -1.0110 ha        1 3ID      0.079500
     17 H1O        -0.3780   -0.9200    3.4000 ho        1 3ID      0.412500
     18 H2O        -3.3540   -0.0390    1.5090 ho        1 3ID      0.412500
@<TRIPOS>BOND
     1    1    2 1   
     2    1    8 1   
     3    2    3 3   
     4    3    9 1   
     5    4    9 3   
     6    4   15 1   
     7    5    6 3   
     8    5   10 1   
     9    6   11 1   
    10    7    8 3   
    11    7   16 1   
    12   10   17 1   
    13   11   18 1   
@<TRIPOS>SUBSTRUCTURE
     1 3ID         1 TEMP              0 ****  ****    0 ROOT
