@<TRIPOS>MOLECULE
3IG
   58    60     1     0     0
SMALL
bcc


@<TRIPOS>ATOM
      1 C1          0.1510   -1.5080    0.5110 ca        1 3IG      0.496200
      2 N1          1.4820   -1.8270    0.6040 nb        1 3IG     -0.664000
      3 C2          2.1990   -1.0580    1.4650 ca        1 3IG      0.750900
      4 N2          1.7270   -0.0080    2.2240 nb        1 3IG     -0.629000
      5 C3          0.4170    0.2860    2.1220 ca        1 3IG      0.532600
      6 C4         -0.4590   -0.4610    1.2450 cp        1 3IG     -0.126600
      7 N3         -0.6450   -2.3370   -0.4190 n4        1 3IG     -0.824300
      8 N4          3.6480   -1.3810    1.6220 n4        1 3IG     -0.816300
      9 C5         -0.1470    1.4110    2.9440 c3        1 3IG     -0.147700
     10 C6          0.5520    1.6350    4.2620 c3        1 3IG     -0.104100
     11 C7         -2.7750   -1.2380    1.5200 ca        1 3IG     -0.122000
     12 C8         -4.1440   -1.0270    1.4960 ca        1 3IG     -0.107000
     13 C9         -4.6490    0.2200    1.0890 ca        1 3IG      0.165100
     14 C10        -3.7750    1.2840    0.7070 ca        1 3IG      0.009600
     15 C11        -2.3900    1.0510    0.7780 ca        1 3IG     -0.098000
     16 C12        -1.8900   -0.2060    1.1600 cp        1 3IG     -0.170000
     17 O3         -6.0080    0.3190    1.0140 os        1 3IG     -0.283900
     18 C14        -6.5740    1.6410    1.1880 c3        1 3IG      0.114800
     19 C15        -5.7280    2.7160    0.5010 c         1 3IG      0.697500
     20 N5         -4.3450    2.5170    0.3110 n         1 3IG     -0.390000
     21 C16        -3.6500    3.3960   -0.6040 c3        1 3IG      0.075000
     22 C17        -3.2410    4.7710   -0.0350 c3        1 3IG      0.089800
     23 N6         -4.3260    5.7880   -0.0420 n4        1 3IG     -0.690800
     24 C13        -3.8510    7.1800    0.3820 c         1 3IG      0.565100
     25 C19        -4.8190    8.2780    0.1180 c3        1 3IG     -0.193100
     26 C21        -7.9460    1.5560    0.5270 c3        1 3IG     -0.114100
     27 C20        -6.6800    1.9590    2.6720 c3        1 3IG     -0.114100
     28 O4         -6.2170    3.8010    0.1410 o         1 3IG     -0.633500
     29 O1         -2.7400    7.2280    0.8780 o         1 3IG     -0.405100
     30 HN31       -0.2060   -2.3540   -1.3530 hn        1 3IG      0.494467
     31 HN32       -1.5970   -1.9410   -0.4900 hn        1 3IG      0.494467
     32 HN41        3.8190   -1.6930    2.5930 hn        1 3IG      0.503467
     33 HN42        4.2090   -0.5330    1.4380 hn        1 3IG      0.503467
     34 H51        -1.2370    1.1960    3.1270 hc        1 3IG      0.091200
     35 H52        -0.0800    2.3460    2.3170 hc        1 3IG      0.091200
     36 H61         0.5730    0.7000    4.8720 hc        1 3IG      0.071700
     37 H62        -0.0050    2.4160    4.8410 hc        1 3IG      0.071700
     38 H63         1.5990    1.9950    4.1180 hc        1 3IG      0.071700
     39 H11        -1.6750    1.8530    0.5330 ha        1 3IG      0.146000
     40 H161       -2.6970    2.9040   -0.9530 h1        1 3IG      0.092200
     41 H162       -4.3040    3.5500   -1.5160 h1        1 3IG      0.092200
     42 H171       -2.8620    4.6810    1.0230 hx        1 3IG      0.116200
     43 H172       -2.4010    5.1730   -0.6750 hx        1 3IG      0.116200
     44 HN6        -5.0800    5.4900    0.5990 hn        1 3IG      0.473300
     45 H191       -5.8730    7.9920    0.3650 hc        1 3IG      0.128367
     46 H192       -4.7640    8.5820   -0.9610 hc        1 3IG      0.128367
     47 H193       -4.5290    9.1650    0.7470 hc        1 3IG      0.128367
     48 H211       -7.8520    1.2370   -0.5370 hc        1 3IG      0.082700
     49 H212       -8.4360    2.5600    0.5730 hc        1 3IG      0.082700
     50 H213       -8.5750    0.8100    1.0720 hc        1 3IG      0.082700
     51 H201       -7.2060    2.9350    2.8100 hc        1 3IG      0.082700
     52 H202       -5.6710    2.0090    3.1450 hc        1 3IG      0.082700
     53 H203       -7.2750    1.1590    3.1790 hc        1 3IG      0.082700
     54 H7         -2.3920   -2.2020    1.8930 ha        1 3IG      0.150000
     55 H33        -0.7040   -3.3050   -0.0650 hn        1 3IG      0.494467
     56 H43         3.9320   -2.1290    0.9690 hn        1 3IG      0.503467
     57 H621       -4.7440    5.8450   -0.9780 hn        1 3IG      0.473300
     58 H8         -4.8560   -1.8190    1.7950 ha        1 3IG      0.206000
@<TRIPOS>BOND
     1    1    2 ar  
     2    1    6 ar  
     3    1    7 1   
     4    2    3 ar  
     5    3    4 ar  
     6    3    8 1   
     7    4    5 ar  
     8    5    6 ar  
     9    5    9 1   
    10    6   16 1   
    11    7   30 1   
    12    7   31 1   
    13    7   55 1   
    14    8   32 1   
    15    8   33 1   
    16    8   56 1   
    17    9   10 1   
    18    9   34 1   
    19    9   35 1   
    20   10   36 1   
    21   10   37 1   
    22   10   38 1   
    23   11   12 ar  
    24   11   16 ar  
    25   11   54 1   
    26   12   13 ar  
    27   12   58 1   
    28   13   14 ar  
    29   13   17 1   
    30   14   15 ar  
    31   14   20 1   
    32   15   16 ar  
    33   15   39 1   
    34   17   18 1   
    35   18   19 1   
    36   18   26 1   
    37   18   27 1   
    38   19   20 1   
    39   19   28 2   
    40   20   21 1   
    41   21   22 1   
    42   21   40 1   
    43   21   41 1   
    44   22   23 1   
    45   22   42 1   
    46   22   43 1   
    47   23   24 1   
    48   23   44 1   
    49   23   57 1   
    50   24   25 1   
    51   24   29 2   
    52   25   45 1   
    53   25   46 1   
    54   25   47 1   
    55   26   48 1   
    56   26   49 1   
    57   26   50 1   
    58   27   51 1   
    59   27   52 1   
    60   27   53 1   
@<TRIPOS>SUBSTRUCTURE
     1 3IG         1 TEMP              0 ****  ****    0 ROOT
