@<TRIPOS>MOLECULE
3IG
   55    50     1     0     0
SMALL
bcc


@<TRIPOS>ATOM
      1 C1          2.5220   -0.7540    2.9700 c1        1 3IG      0.262800
      2 N1          3.7760   -1.0180    3.3840 n1        1 3IG     -0.625800
      3 C2          4.6030   -1.7950    2.6150 c1        1 3IG      0.564600
      4 N2          4.1540   -2.3060    1.4220 n1        1 3IG     -0.583800
      5 C3          2.9050   -2.0460    1.0060 c1        1 3IG      0.470700
      6 C4          2.0710   -1.2650    1.7760 c1        1 3IG     -0.274000
      7 N3          1.6860    0.0890    3.7410 n3        1 3IG     -0.817400
      8 N4          5.9310   -2.0440    3.0350 n3        1 3IG     -0.787400
      9 C5          2.4080   -2.6130   -0.3350 c3        1 3IG     -0.083300
     10 C6          3.6070   -3.1400   -1.1450 c3        1 3IG     -0.080100
     11 C7         -0.2480   -2.1050    1.9500 c1        1 3IG     -0.086500
     12 C8         -1.6390   -1.9240    1.7410 c1        1 3IG     -0.064500
     13 C9         -2.1010   -0.8160    1.0310 c1        1 3IG      0.048600
     14 C10        -1.1600    0.1490    0.5070 c1        1 3IG      0.030200
     15 C11         0.2130   -0.0300    0.7130 c1        1 3IG     -0.077500
     16 C12         0.6790   -1.1580    1.4360 c1        1 3IG      0.003000
     17 O3         -3.5640   -0.4650    0.9910 os        1 3IG     -0.300400
     18 C14        -3.9000    0.7980    0.6150 c3        1 3IG      0.099800
     19 C15        -2.9980    1.3420   -0.4250 c         1 3IG      0.644100
     20 N5         -1.6980    1.3140   -0.1970 n         1 3IG     -0.377600
     21 C16        -0.8250    2.1660   -0.9380 c3        1 3IG      0.058000
     22 C17        -1.4180    2.4180   -2.3360 c3        1 3IG      0.069000
     23 N6         -0.3480    2.4880   -3.3080 n         1 3IG     -0.567900
     24 C13        -0.4930    1.8380   -4.5890 c         1 3IG      0.653100
     25 C19         0.6900    1.7920   -5.5620 c3        1 3IG     -0.174100
     26 C21        -5.3580    0.8850    0.1870 c3        1 3IG     -0.102100
     27 C20        -3.9060    1.7190    1.8330 c3        1 3IG     -0.102100
     28 O4         -3.4450    2.0480   -1.3090 o         1 3IG     -0.587100
     29 O1         -1.5500    1.3270   -4.8950 o         1 3IG     -0.615100
     30 HN31        2.0030    0.4650    4.5200 hn        1 3IG      0.427800
     31 HN32        0.8250    0.2320    3.4860 hn        1 3IG      0.427800
     32 HN41        6.5060   -2.4850    2.4860 hn        1 3IG      0.421800
     33 HN42        6.2140   -1.7530    3.8580 hn        1 3IG      0.421800
     34 H51         1.9590   -1.9070   -0.8400 hc        1 3IG      0.071700
     35 H52         1.7810   -3.3440   -0.1670 hc        1 3IG      0.071700
     36 H61         3.2840   -3.7470   -1.8520 hc        1 3IG      0.037700
     37 H62         4.0840   -2.3840   -1.5540 hc        1 3IG      0.037700
     38 H63         4.2150   -3.6270   -0.5500 hc        1 3IG      0.037700
     39 H7          0.0740   -2.8910    2.4300 ha        1 3IG      0.083500
     40 H8         -2.2760   -2.5770    2.0950 ha        1 3IG      0.094500
     41 H11         0.8440    0.6650    0.4320 ha        1 3IG      0.114500
     42 H161        0.0450    1.7400   -1.0260 h1        1 3IG      0.074700
     43 H162       -0.7250    3.0210   -0.4660 h1        1 3IG      0.074700
     44 H171       -2.0250    1.6860   -2.5710 h1        1 3IG      0.068700
     45 H172       -1.9140    3.2690   -2.3330 h1        1 3IG      0.068700
     46 HN6         0.4190    2.9410   -3.1110 hn        1 3IG      0.309500
     47 H191        1.0610    2.6930   -5.6700 hc        1 3IG      0.068367
     48 H192        1.3830    1.1940   -5.2070 hc        1 3IG      0.068367
     49 H193        0.3840    1.4560   -6.4360 hc        1 3IG      0.068367
     50 H211       -5.9350    0.6520    0.9430 hc        1 3IG      0.059033
     51 H212       -5.5580    1.7980   -0.1060 hc        1 3IG      0.059033
     52 H213       -5.5200    0.2610   -0.5520 hc        1 3IG      0.059033
     53 H201       -4.6810    1.5110    2.3950 hc        1 3IG      0.059033
     54 H202       -3.0820    1.5840    2.3480 hc        1 3IG      0.059033
     55 H203       -3.9590    2.6520    1.5360 hc        1 3IG      0.059033
@<TRIPOS>BOND
     1    1    6 3   
     2    1    7 1   
     3    2    3 3   
     4    3    8 1   
     5    4    5 3   
     6    5    9 1   
     7    7   30 1   
     8    7   31 1   
     9    8   32 1   
    10    8   33 1   
    11    9   10 1   
    12    9   34 1   
    13    9   35 1   
    14   10   36 1   
    15   10   37 1   
    16   10   38 1   
    17   11   16 3   
    18   11   39 1   
    19   12   13 3   
    20   12   40 1   
    21   13   17 1   
    22   14   15 3   
    23   14   20 1   
    24   15   41 1   
    25   17   18 1   
    26   18   19 1   
    27   18   26 1   
    28   18   27 1   
    29   19   20 1   
    30   19   28 2   
    31   20   21 1   
    32   21   22 1   
    33   21   42 1   
    34   21   43 1   
    35   22   23 1   
    36   22   44 1   
    37   22   45 1   
    38   23   24 1   
    39   23   46 1   
    40   24   25 1   
    41   24   29 2   
    42   25   47 1   
    43   25   48 1   
    44   25   49 1   
    45   26   50 1   
    46   26   51 1   
    47   26   52 1   
    48   27   53 1   
    49   27   54 1   
    50   27   55 1   
@<TRIPOS>SUBSTRUCTURE
     1 3IG         1 TEMP              0 ****  ****    0 ROOT
