@<TRIPOS>MOLECULE
3IG
   55    57     1     0     0
SMALL
bcc


@<TRIPOS>ATOM
      1 C1         -2.8330    0.6720    0.9270 ca        1 3IG      0.723200
      2 N1         -4.0720    1.2450    0.8070 nb        1 3IG     -0.823000
      3 C2         -4.8700    0.7910   -0.2230 ca        1 3IG      0.900900
      4 N2         -4.4840   -0.1230   -1.1950 nb        1 3IG     -0.788000
      5 C3         -3.2510   -0.6550   -1.0700 ca        1 3IG      0.519600
      6 C4         -2.3730   -0.3210   -0.0090 cp        1 3IG     -0.393600
      7 N3         -2.0610    1.0270    2.0290 nh        1 3IG     -0.909500
      8 N4         -6.1910    1.2580   -0.2670 nh        1 3IG     -0.925500
      9 C5         -2.8040   -1.6520   -2.1080 c3        1 3IG     -0.137700
     10 C6         -3.3610   -1.4070   -3.4870 c3        1 3IG     -0.082100
     11 C7         -0.9800   -2.3560    0.2360 ca        1 3IG     -0.121000
     12 C8          0.2580   -2.9870    0.3080 ca        1 3IG     -0.122000
     13 C9          1.4220   -2.2150    0.3140 ca        1 3IG      0.069100
     14 C10         1.3600   -0.7990    0.2710 ca        1 3IG      0.009600
     15 C11         0.1000   -0.1880    0.1430 ca        1 3IG     -0.152000
     16 C12        -1.0690   -0.9590    0.1310 cp        1 3IG      0.008000
     17 O3          2.6300   -2.8820    0.4340 os        1 3IG     -0.315900
     18 C14         3.7460   -2.2120   -0.1840 c3        1 3IG      0.099800
     19 C15         3.7770   -0.7090    0.1440 c         1 3IG      0.680500
     20 N5          2.5610   -0.0570    0.3450 n         1 3IG     -0.366000
     21 C16         2.5290    1.3010    0.8330 c3        1 3IG      0.068000
     22 C17         2.2960    2.3610   -0.2760 c3        1 3IG      0.075000
     23 N6          1.9720    3.6600    0.2420 n         1 3IG     -0.568900
     24 C13         0.8050    3.9090    0.9370 c         1 3IG      0.664100
     25 C19         0.5820    5.3120    1.4450 c3        1 3IG     -0.176100
     26 C21         4.9780   -2.8890    0.4060 c3        1 3IG     -0.102100
     27 C20         3.6890   -2.3800   -1.6950 c3        1 3IG     -0.102100
     28 O4          4.8500   -0.0820    0.2020 o         1 3IG     -0.624500
     29 O1         -0.0440    3.0090    1.1180 o         1 3IG     -0.643100
     30 HN31       -2.3300    1.8610    2.5060 hn        1 3IG      0.419800
     31 HN32       -1.0750    0.9440    1.8990 hn        1 3IG      0.419800
     32 HN41       -6.6600    1.1650   -1.1370 hn        1 3IG      0.422300
     33 HN42       -6.3830    2.0860    0.2470 hn        1 3IG      0.422300
     34 H51        -3.1150   -2.6730   -1.7510 hc        1 3IG      0.058700
     35 H52        -1.6820   -1.6400   -2.1570 hc        1 3IG      0.058700
     36 H61        -2.8920   -2.1180   -4.2110 hc        1 3IG      0.038700
     37 H62        -4.4670   -1.5600   -3.5100 hc        1 3IG      0.038700
     38 H63        -3.1440   -0.3640   -3.8220 hc        1 3IG      0.038700
     39 H8          0.3360   -4.0820    0.3720 ha        1 3IG      0.152000
     40 H11         0.0210    0.9110    0.0570 ha        1 3IG      0.166000
     41 H161        1.7050    1.3840    1.6000 h1        1 3IG      0.074200
     42 H162        3.5150    1.5190    1.3360 h1        1 3IG      0.074200
     43 H171        3.2280    2.4480   -0.9020 h1        1 3IG      0.064700
     44 H172        1.4510    2.0270   -0.9450 h1        1 3IG      0.064700
     45 HN6         2.6850    4.3490    0.2390 hn        1 3IG      0.314500
     46 H191        0.5750    6.0380    0.5960 hc        1 3IG      0.069367
     47 H192       -0.4070    5.3540    1.9650 hc        1 3IG      0.069367
     48 H193        1.3840    5.6010    2.1660 hc        1 3IG      0.069367
     49 H211        4.9970   -3.9620    0.1010 hc        1 3IG      0.059033
     50 H212        5.8930   -2.3710    0.0300 hc        1 3IG      0.059033
     51 H213        4.9520   -2.8300    1.5190 hc        1 3IG      0.059033
     52 H201        2.7520   -1.9300   -2.1010 hc        1 3IG      0.059033
     53 H202        4.5720   -1.8810   -2.1620 hc        1 3IG      0.059033
     54 H203        3.7030   -3.4670   -1.9510 hc        1 3IG      0.059033
     55 H7         -1.9010   -2.9580    0.2520 ha        1 3IG      0.144000
@<TRIPOS>BOND
     1    1    2 ar  
     2    1    6 ar  
     3    1    7 1   
     4    2    3 ar  
     5    3    4 ar  
     6    3    8 1   
     7    4    5 ar  
     8    5    6 ar  
     9    5    9 1   
    10    6   16 1   
    11    7   30 1   
    12    7   31 1   
    13    8   32 1   
    14    8   33 1   
    15    9   10 1   
    16    9   34 1   
    17    9   35 1   
    18   10   36 1   
    19   10   37 1   
    20   10   38 1   
    21   11   12 ar  
    22   11   16 ar  
    23   11   55 1   
    24   12   13 ar  
    25   12   39 1   
    26   13   14 ar  
    27   13   17 1   
    28   14   15 ar  
    29   14   20 1   
    30   15   16 ar  
    31   15   40 1   
    32   17   18 1   
    33   18   19 1   
    34   18   26 1   
    35   18   27 1   
    36   19   20 1   
    37   19   28 2   
    38   20   21 1   
    39   21   22 1   
    40   21   41 1   
    41   21   42 1   
    42   22   23 1   
    43   22   43 1   
    44   22   44 1   
    45   23   24 1   
    46   23   45 1   
    47   24   25 1   
    48   24   29 2   
    49   25   46 1   
    50   25   47 1   
    51   25   48 1   
    52   26   49 1   
    53   26   50 1   
    54   26   51 1   
    55   27   52 1   
    56   27   53 1   
    57   27   54 1   
@<TRIPOS>SUBSTRUCTURE
     1 3IG         1 TEMP              0 ****  ****    0 ROOT
