@<TRIPOS>MOLECULE
3IG
   56    58     1     0     0
SMALL
bcc


@<TRIPOS>ATOM
      1 C1          0.1940   -0.4670    0.2430 ca        1 3IG      0.711200
      2 N1          1.5480   -0.6380    0.2350 nb        1 3IG     -0.818000
      3 C2          2.1860   -0.5800    1.4640 ca        1 3IG      0.929900
      4 N2          1.5440   -0.4280    2.6930 nb        1 3IG     -0.777000
      5 C3          0.2090   -0.2790    2.6700 ca        1 3IG      0.536600
      6 C4         -0.5390   -0.2760    1.4630 cp        1 3IG     -0.431600
      7 N3         -0.4760   -0.4250   -0.9870 nh        1 3IG     -0.932500
      8 N4          3.5690   -0.6470    1.4690 nh        1 3IG     -0.936500
      9 C5         -0.5190   -0.1330    3.9810 c3        1 3IG     -0.138700
     10 C6          0.2780    0.5470    5.0650 c3        1 3IG     -0.086100
     11 C7         -2.8490   -0.9770    2.0700 ca        1 3IG     -0.103000
     12 C8         -4.2250   -0.7740    2.0500 ca        1 3IG     -0.111000
     13 C9         -4.7450    0.3350    1.3750 ca        1 3IG      0.082100
     14 C10        -3.8910    1.2510    0.7160 ca        1 3IG     -0.033400
     15 C11        -2.5030    1.0420    0.7700 ca        1 3IG     -0.131000
     16 C12        -1.9800   -0.0740    1.4380 cp        1 3IG      0.015000
     17 O3         -6.1220    0.4620    1.3100 os        1 3IG     -0.301900
     18 C14        -6.6020    1.8190    1.2990 c3        1 3IG      0.113800
     19 C15        -5.7890    2.7080    0.3450 c         1 3IG      0.691500
     20 N5         -4.4640    2.3760    0.0600 n         1 3IG     -0.382000
     21 C16        -3.8210    2.9190   -1.1080 c3        1 3IG      0.073000
     22 C17        -3.1210    4.2770   -0.8890 c3        1 3IG      0.082800
     23 N6         -4.0720    5.3430   -0.4700 n4        1 3IG     -0.678800
     24 C13        -3.5530    6.7520   -0.6530 c         1 3IG      0.550100
     25 C19        -4.2480    7.7900    0.1620 c3        1 3IG     -0.191100
     26 C21        -8.0400    1.7220    0.8010 c3        1 3IG     -0.107600
     27 C20        -6.5310    2.4150    2.6970 c3        1 3IG     -0.107600
     28 O4         -6.2610    3.7610   -0.1400 o         1 3IG     -0.695500
     29 O1         -2.6340    6.9060   -1.4410 o         1 3IG     -0.404100
     30 HN31       -1.4090   -0.7710   -0.9450 hn        1 3IG      0.411800
     31 HN32        0.0420   -0.7500   -1.7770 hn        1 3IG      0.411800
     32 HN41        4.0330   -0.7820    2.3350 hn        1 3IG      0.447800
     33 HN42        4.0360   -0.9160    0.6360 hn        1 3IG      0.447800
     34 H51        -0.8110   -1.1660    4.3180 hc        1 3IG      0.057200
     35 H52        -1.4660    0.4430    3.8010 hc        1 3IG      0.057200
     36 H61        -0.3710    0.7070    5.9610 hc        1 3IG      0.045367
     37 H62         0.6570    1.5380    4.7190 hc        1 3IG      0.045367
     38 H63         1.1540   -0.0750    5.3720 hc        1 3IG      0.045367
     39 H11        -1.8050    1.7450    0.2910 ha        1 3IG      0.143000
     40 H161       -3.0220    2.2070   -1.4730 h1        1 3IG      0.101700
     41 H162       -4.5880    3.0360   -1.9310 h1        1 3IG      0.101700
     42 H171       -2.6420    4.5860   -1.8650 hx        1 3IG      0.118700
     43 H172       -2.3160    4.1930   -0.1050 hx        1 3IG      0.118700
     44 HN6        -4.3290    5.2000    0.5140 hn        1 3IG      0.474800
     45 H191       -3.9690    7.6810    1.2420 hc        1 3IG      0.114700
     46 H192       -5.3600    7.7180    0.0590 hc        1 3IG      0.114700
     47 H193       -3.9160    8.8020   -0.1930 hc        1 3IG      0.114700
     48 H211       -8.0740    1.2020   -0.1860 hc        1 3IG      0.067700
     49 H212       -8.4620    2.7500    0.6960 hc        1 3IG      0.067700
     50 H213       -8.6460    1.1380    1.5340 hc        1 3IG      0.067700
     51 H201       -5.4770    2.4420    3.0620 hc        1 3IG      0.067700
     52 H202       -7.1300    1.7820    3.3970 hc        1 3IG      0.067700
     53 H203       -6.9540    3.4480    2.6910 hc        1 3IG      0.067700
     54 H7         -2.4330   -1.8530    2.5950 ha        1 3IG      0.160000
     55 H621       -4.9510    5.2330   -1.0110 hn        1 3IG      0.474800
     56 H8         -4.9140   -1.4770    2.5450 ha        1 3IG      0.170000
@<TRIPOS>BOND
     1    1    2 ar  
     2    1    6 ar  
     3    1    7 1   
     4    2    3 ar  
     5    3    4 ar  
     6    3    8 1   
     7    4    5 ar  
     8    5    6 ar  
     9    5    9 1   
    10    6   16 1   
    11    7   30 1   
    12    7   31 1   
    13    8   32 1   
    14    8   33 1   
    15    9   10 1   
    16    9   34 1   
    17    9   35 1   
    18   10   36 1   
    19   10   37 1   
    20   10   38 1   
    21   11   12 ar  
    22   11   16 ar  
    23   11   54 1   
    24   12   13 ar  
    25   12   56 1   
    26   13   14 ar  
    27   13   17 1   
    28   14   15 ar  
    29   14   20 1   
    30   15   16 ar  
    31   15   39 1   
    32   17   18 1   
    33   18   19 1   
    34   18   26 1   
    35   18   27 1   
    36   19   20 1   
    37   19   28 2   
    38   20   21 1   
    39   21   22 1   
    40   21   40 1   
    41   21   41 1   
    42   22   23 1   
    43   22   42 1   
    44   22   43 1   
    45   23   24 1   
    46   23   44 1   
    47   23   55 1   
    48   24   25 1   
    49   24   29 2   
    50   25   45 1   
    51   25   46 1   
    52   25   47 1   
    53   26   48 1   
    54   26   49 1   
    55   26   50 1   
    56   27   51 1   
    57   27   52 1   
    58   27   53 1   
@<TRIPOS>SUBSTRUCTURE
     1 3IG         1 TEMP              0 ****  ****    0 ROOT
