@<TRIPOS>MOLECULE
3IG
   56    58     1     0     0
SMALL
bcc


@<TRIPOS>ATOM
      1 C1          0.2060   -0.3140    0.2320 ca        1 3IG      0.709200
      2 N1          1.5630   -0.4510    0.2160 nb        1 3IG     -0.818000
      3 C2          2.1990   -0.4530    1.4480 ca        1 3IG      0.929900
      4 N2          1.5540   -0.3910    2.6820 nb        1 3IG     -0.776000
      5 C3          0.2160   -0.2730    2.6660 ca        1 3IG      0.536600
      6 C4         -0.5320   -0.2150    1.4600 cp        1 3IG     -0.430600
      7 N3         -0.4660   -0.2130   -0.9950 nv        1 3IG     -0.931500
      8 N4          3.5840   -0.4860    1.4500 nv        1 3IG     -0.936500
      9 C5         -0.5150   -0.2230    3.9830 c3        1 3IG     -0.138700
     10 C6          0.2630    0.4140    5.1050 c3        1 3IG     -0.086100
     11 C7         -2.8250   -1.0090    2.0160 ca        1 3IG     -0.103000
     12 C8         -4.2060   -0.8400    2.0030 ca        1 3IG     -0.111000
     13 C9         -4.7510    0.2960    1.3970 ca        1 3IG      0.084100
     14 C10        -3.9190    1.2750    0.8020 ca        1 3IG     -0.033400
     15 C11        -2.5270    1.0960    0.8490 ca        1 3IG     -0.131000
     16 C12        -1.9780   -0.0470    1.4450 cp        1 3IG      0.015000
     17 O3         -6.1310    0.3910    1.3320 os        1 3IG     -0.302900
     18 C14        -6.6480    1.7330    1.4030 c3        1 3IG      0.114800
     19 C15        -5.8570    2.7000    0.5080 c         1 3IG      0.691500
     20 N5         -4.5190    2.4240    0.2180 n         1 3IG     -0.383000
     21 C16        -3.8810    3.0710   -0.8970 c3        1 3IG      0.074000
     22 C17        -3.2070    4.4200   -0.5620 c3        1 3IG      0.088800
     23 N6         -4.1660    5.4130    0.0010 ny        1 3IG     -0.681800
     24 C13        -3.6140    6.8210   -0.0440 c         1 3IG      0.550100
     25 C19        -3.9000    7.5930   -1.2850 c3        1 3IG     -0.186100
     26 C21        -8.0810    1.6290    0.8950 c3        1 3IG     -0.108100
     27 C20        -6.5960    2.2450    2.8350 c3        1 3IG     -0.108100
     28 O4         -6.3540    3.7640    0.0770 o         1 3IG     -0.688500
     29 O1         -3.0080    7.1810    0.9530 o         1 3IG     -0.401100
     30 HN31        0.0590   -0.4810   -1.8000 hn        1 3IG      0.410300
     31 HN32       -1.3890   -0.5870   -0.9730 hn        1 3IG      0.410300
     32 HN41        4.0570   -0.6960    0.6040 hn        1 3IG      0.447300
     33 HN42        4.0510   -0.6630    2.3080 hn        1 3IG      0.447300
     34 H51        -0.7790   -1.2820    4.2590 hc        1 3IG      0.057200
     35 H52        -1.4780    0.3360    3.8350 hc        1 3IG      0.057200
     36 H61         1.1560   -0.2000    5.3770 hc        1 3IG      0.045367
     37 H62         0.6140    1.4330    4.8170 hc        1 3IG      0.045367
     38 H63        -0.3900    0.5040    6.0080 hc        1 3IG      0.045367
     39 H11        -1.8450    1.8460    0.4190 ha        1 3IG      0.142000
     40 H161       -4.6470    3.2450   -1.7090 h1        1 3IG      0.100700
     41 H162       -3.0670    2.4060   -1.3150 h1        1 3IG      0.100700
     42 H171       -2.7780    4.8390   -1.5160 hx        1 3IG      0.110200
     43 H172       -2.3730    4.2760    0.1840 hx        1 3IG      0.110200
     44 HN6        -4.3730    5.1520    0.9760 hn        1 3IG      0.475300
     45 H191       -3.5990    7.0240   -2.2000 hc        1 3IG      0.113367
     46 H192       -3.3220    8.5550   -1.2490 hc        1 3IG      0.113367
     47 H193       -4.9930    7.8350   -1.3450 hc        1 3IG      0.113367
     48 H211       -8.5310    2.6500    0.8510 hc        1 3IG      0.068367
     49 H212       -8.1000    1.1700   -0.1220 hc        1 3IG      0.068367
     50 H213       -8.6730    0.9850    1.5890 hc        1 3IG      0.068367
     51 H201       -5.5430    2.2770    3.2050 hc        1 3IG      0.068367
     52 H202       -7.1810    1.5550    3.4920 hc        1 3IG      0.068367
     53 H203       -7.0450    3.2650    2.8900 hc        1 3IG      0.068367
     54 H7         -2.3890   -1.9050    2.4860 ha        1 3IG      0.160000
     55 H621       -5.0580    5.3560   -0.5200 hn        1 3IG      0.475300
     56 H8         -4.8780   -1.5890    2.4490 ha        1 3IG      0.170000
@<TRIPOS>BOND
     1    1    2 ar  
     2    1    6 ar  
     3    1    7 1   
     4    2    3 ar  
     5    3    4 ar  
     6    3    8 1   
     7    4    5 ar  
     8    5    6 ar  
     9    5    9 1   
    10    6   16 1   
    11    7   30 1   
    12    7   31 1   
    13    8   32 1   
    14    8   33 1   
    15    9   10 1   
    16    9   34 1   
    17    9   35 1   
    18   10   36 1   
    19   10   37 1   
    20   10   38 1   
    21   11   12 ar  
    22   11   16 ar  
    23   11   54 1   
    24   12   13 ar  
    25   12   56 1   
    26   13   14 ar  
    27   13   17 1   
    28   14   15 ar  
    29   14   20 1   
    30   15   16 ar  
    31   15   39 1   
    32   17   18 1   
    33   18   19 1   
    34   18   26 1   
    35   18   27 1   
    36   19   20 1   
    37   19   28 2   
    38   20   21 1   
    39   21   22 1   
    40   21   40 1   
    41   21   41 1   
    42   22   23 1   
    43   22   42 1   
    44   22   43 1   
    45   23   24 1   
    46   23   44 1   
    47   23   55 1   
    48   24   25 1   
    49   24   29 2   
    50   25   45 1   
    51   25   46 1   
    52   25   47 1   
    53   26   48 1   
    54   26   49 1   
    55   26   50 1   
    56   27   51 1   
    57   27   52 1   
    58   27   53 1   
@<TRIPOS>SUBSTRUCTURE
     1 3IG         1 TEMP              0 ****  ****    0 ROOT
