@<TRIPOS>MOLECULE
3II
   77    81     1     0     0
SMALL
bcc


@<TRIPOS>ATOM
      1 C1         -4.1130   -3.4350    1.5080 ca        1 3II     -0.027000
      2 C2         -4.2080   -2.2050    0.8580 ca        1 3II     -0.192600
      3 C3         -4.1660   -0.9500    1.6640 c         1 3II      0.685700
      4 C4         -4.4260   -2.1810   -0.5370 ca        1 3II      0.179100
      5 O5         -4.5690   -5.7060   -1.3820 os        1 3II     -0.325900
      6 C6         -4.4980   -6.9670   -0.7250 c3        1 3II      0.112700
      7 O7         -5.1470   -0.6130    2.3560 o         1 3II     -0.594100
      8 N8         -2.9770   -0.2250    1.7220 n         1 3II     -0.441800
      9 C9         -1.8310    0.7170   -0.2850 c3        1 3II     -0.097900
     10 C10        -1.9130   -0.3980    0.7600 c3        1 3II      0.077500
     11 C11        -2.9620    1.0720    2.3660 c3        1 3II      0.077500
     12 C12        -1.7980    2.1150    0.3580 c3        1 3II      0.136200
     13 C13        -2.9300    2.2460    1.3860 c3        1 3II     -0.097900
     14 C14        -0.4220    2.3100    1.0740 c         1 3II      0.681500
     15 C15        -4.5470   -3.3670   -1.2640 ca        1 3II     -0.240000
     16 C16        -4.4410   -4.5920   -0.5790 ca        1 3II      0.173100
     17 O17        -4.4890   -0.9270   -1.1090 os        1 3II     -0.328900
     18 C18        -4.8510   -0.8740   -2.4860 c3        1 3II      0.112700
     19 C19        -4.2210   -4.6320    0.8030 ca        1 3II     -0.241000
     20 N20        -1.8180    3.1530   -0.7260 nh        1 3II     -0.610000
     21 N21         0.2300    3.3970    0.4880 n         1 3II     -0.490800
     22 O22         0.0360    1.6450    2.0150 o         1 3II     -0.627500
     23 C23        -0.4990    3.8230   -0.7120 c3        1 3II      0.315200
     24 C24        -2.9390    4.0420   -0.7050 ca        1 3II      0.079600
     25 C25         1.5990    3.7400    0.6860 c3        1 3II      0.034000
     26 C26        -2.9850    5.2280    0.0580 ca        1 3II     -0.132000
     27 C27        -4.0400    3.7280   -1.5320 ca        1 3II     -0.132000
     28 C28        -5.1350    4.5850   -1.5970 ca        1 3II     -0.123000
     29 C29         2.6330    2.8060    0.0270 c         1 3II      0.621100
     30 C30        -5.1620    5.7610   -0.8490 ca        1 3II     -0.127000
     31 C31        -4.0850    6.0770   -0.0220 ca        1 3II     -0.123000
     32 O32         3.4680    3.2740   -0.7710 o         1 3II     -0.608100
     33 N33         2.5760    1.4690    0.3490 n         1 3II     -0.559900
     34 C34         3.5550    0.5280   -0.1200 c3        1 3II      0.089000
     35 C35         4.6900    0.2430    0.8760 c3        1 3II     -0.069100
     36 C36         5.6330   -0.7580    0.3080 ca        1 3II     -0.068300
     37 C37         6.7630   -0.3110   -0.3910 ca        1 3II     -0.110000
     38 C38         7.6800   -1.2080   -0.9280 ca        1 3II     -0.122000
     39 C39         7.4720   -2.5820   -0.7690 ca        1 3II      0.021400
     40 CL40        8.5860   -3.6880   -1.4190 cl        1 3II     -0.085400
     41 C41         6.3530   -3.0550   -0.0800 ca        1 3II     -0.121000
     42 C42         5.4390   -2.1400    0.4520 ca        1 3II      0.025400
     43 CL43        4.0850   -2.7580    1.2790 cl        1 3II     -0.088400
     44 H1         -3.9580   -3.4560    2.5990 ha        1 3II      0.150000
     45 H6         -3.4990   -7.1050   -0.2440 h1        1 3II      0.048367
     46 H6A        -5.3150   -7.0650    0.0300 h1        1 3II      0.048367
     47 H6B        -4.6400   -7.7010   -1.5590 h1        1 3II      0.048367
     48 H9         -0.9110    0.5560   -0.9030 hc        1 3II      0.067950
     49 H9A        -2.7230    0.6550   -0.9670 hc        1 3II      0.067950
     50 H10        -0.9440   -0.4240    1.3410 h1        1 3II      0.073450
     51 H10A       -2.0330   -1.3790    0.2220 h1        1 3II      0.073450
     52 H11        -3.8720    1.1770    3.0230 h1        1 3II      0.073450
     53 H11A       -2.0390    1.1110    3.0150 h1        1 3II      0.073450
     54 H13        -3.9100    2.3020    0.8400 hc        1 3II      0.067950
     55 H13A       -2.8060    3.1950    1.9700 hc        1 3II      0.067950
     56 H15        -4.7240   -3.3730   -2.3470 ha        1 3II      0.158000
     57 H18        -5.8490   -1.3490   -2.6510 h1        1 3II      0.049033
     58 H18A       -4.8930    0.2250   -2.6960 h1        1 3II      0.049033
     59 H18B       -4.0710   -1.3670   -3.1150 h1        1 3II      0.049033
     60 H19        -4.1410   -5.5870    1.3380 ha        1 3II      0.144000
     61 H23         0.0460    3.4850   -1.6440 h2        1 3II      0.068200
     62 H23A       -0.5730    4.9480   -0.7210 h2        1 3II      0.068200
     63 H25         1.7790    4.7720    0.2680 h1        1 3II      0.087200
     64 H25A        1.8040    3.7490    1.7960 h1        1 3II      0.087200
     65 H26        -2.1520    5.4900    0.7290 ha        1 3II      0.139500
     66 H27        -4.0350    2.8010   -2.1260 ha        1 3II      0.139500
     67 H28        -5.9860    4.3280   -2.2460 ha        1 3II      0.135500
     68 H30        -6.0300    6.4340   -0.9080 ha        1 3II      0.136000
     69 H31        -4.1040    7.0000    0.5760 ha        1 3II      0.135500
     70 HN33        1.9990    1.1830    1.1090 hn        1 3II      0.331500
     71 H34         3.0220   -0.4410   -0.3420 h1        1 3II      0.067200
     72 H34A        4.0050    0.9190   -1.0770 h1        1 3II      0.067200
     73 H35         5.2410    1.1970    1.0960 hc        1 3II      0.063200
     74 H35A        4.2670   -0.1290    1.8470 hc        1 3II      0.063200
     75 H37         6.9240    0.7720   -0.5160 ha        1 3II      0.149000
     76 H38         8.5610   -0.8380   -1.4740 ha        1 3II      0.152000
     77 H41         6.1910   -4.1380    0.0430 ha        1 3II      0.161000
@<TRIPOS>BOND
     1    1    2 ar  
     2    1   19 ar  
     3    1   44 1   
     4    2    3 1   
     5    2    4 ar  
     6    3    7 2   
     7    3    8 1   
     8    4   15 ar  
     9    4   17 1   
    10    5    6 1   
    11    5   16 1   
    12    6   45 1   
    13    6   46 1   
    14    6   47 1   
    15    8   10 1   
    16    8   11 1   
    17    9   10 1   
    18    9   12 1   
    19    9   48 1   
    20    9   49 1   
    21   10   50 1   
    22   10   51 1   
    23   11   13 1   
    24   11   52 1   
    25   11   53 1   
    26   12   13 1   
    27   12   14 1   
    28   12   20 1   
    29   13   54 1   
    30   13   55 1   
    31   14   21 1   
    32   14   22 2   
    33   15   16 ar  
    34   15   56 1   
    35   16   19 ar  
    36   17   18 1   
    37   18   57 1   
    38   18   58 1   
    39   18   59 1   
    40   19   60 1   
    41   20   23 1   
    42   20   24 1   
    43   21   23 1   
    44   21   25 1   
    45   23   61 1   
    46   23   62 1   
    47   24   26 ar  
    48   24   27 ar  
    49   25   29 1   
    50   25   63 1   
    51   25   64 1   
    52   26   31 ar  
    53   26   65 1   
    54   27   28 ar  
    55   27   66 1   
    56   28   30 ar  
    57   28   67 1   
    58   29   32 2   
    59   29   33 1   
    60   30   31 ar  
    61   30   68 1   
    62   31   69 1   
    63   33   34 1   
    64   33   70 1   
    65   34   35 1   
    66   34   71 1   
    67   34   72 1   
    68   35   36 1   
    69   35   73 1   
    70   35   74 1   
    71   36   37 ar  
    72   36   42 ar  
    73   37   38 ar  
    74   37   75 1   
    75   38   39 ar  
    76   38   76 1   
    77   39   40 1   
    78   39   41 ar  
    79   41   42 ar  
    80   41   77 1   
    81   42   43 1   
@<TRIPOS>SUBSTRUCTURE
     1 3II         1 TEMP              0 ****  ****    0 ROOT
