@<TRIPOS>MOLECULE
3II
   78    82     1     0     0
SMALL
bcc


@<TRIPOS>ATOM
      1 C1         -0.7230   -0.4950   -0.0950 ca        1 3II     -0.024000
      2 C2          0.4500    0.2070   -0.3770 ca        1 3II     -0.204600
      3 C3          1.0100    0.1460   -1.7550 c         1 3II      0.692700
      4 C4          1.1210    0.8710    0.6710 ca        1 3II      0.175100
      5 O5         -0.9740    0.1490    3.5420 os        1 3II     -0.320900
      6 C6         -2.1200   -0.6340    3.8640 c3        1 3II      0.110700
      7 O7          1.5420   -0.8930   -2.1870 o         1 3II     -0.574100
      8 N8          0.8330    1.2420   -2.6100 n         1 3II     -0.453800
      9 C9          1.6920    3.5400   -2.1560 c3        1 3II     -0.101400
     10 C10         0.5150    2.5600   -2.1240 c3        1 3II      0.081500
     11 C11         1.4660    1.2360   -3.9100 c3        1 3II      0.081500
     12 C12         2.3700    3.5880   -3.5380 c3        1 3II      0.154200
     13 C13         2.6800    2.1620   -4.0150 c3        1 3II     -0.101400
     14 C14         1.4030    4.2670   -4.5510 c         1 3II      0.680500
     15 C15         0.6270    0.8320    1.9760 ca        1 3II     -0.236000
     16 C16        -0.5610    0.1210    2.2300 ca        1 3II      0.181100
     17 O17         2.2560    1.5740    0.3160 os        1 3II     -0.346900
     18 C18         3.1420    1.9110    1.3830 c3        1 3II      0.113700
     19 C19        -1.2400   -0.5400    1.1970 ca        1 3II     -0.236000
     20 N20         3.5600    4.4960   -3.4790 nh        1 3II     -0.602000
     21 N21         1.9240    5.5310   -4.9100 n         1 3II     -0.529800
     22 O22         0.3070    3.8760   -4.9830 o         1 3II     -0.643500
     23 C23         3.2150    5.7270   -4.2180 c3        1 3II      0.314200
     24 C24         4.8110    3.9100   -3.8630 ca        1 3II      0.049600
     25 C25         1.6540    6.1580   -6.1550 c3        1 3II      0.042000
     26 C26         5.2250    3.7660   -5.2030 ca        1 3II     -0.128000
     27 C27         5.6810    3.4970   -2.8330 ca        1 3II     -0.128000
     28 C28         6.9300    2.9640   -3.1470 ca        1 3II     -0.116000
     29 C29         0.3710    6.9980   -6.1730 c         1 3II      0.518100
     30 C30         7.3330    2.8330   -4.4740 ca        1 3II     -0.109000
     31 C31         6.4770    3.2360   -5.5000 ca        1 3II     -0.116000
     32 O32         0.2470    8.0850   -6.7130 o         1 3II     -0.409100
     33 N33        -0.8320    6.3840   -5.5130 ny        1 3II     -0.672800
     34 C34        -2.1330    7.0310   -5.8540 c3        1 3II      0.102800
     35 C35        -2.6320    6.6750   -7.2550 c3        1 3II     -0.046100
     36 C36        -4.0040    7.2200   -7.4430 ca        1 3II     -0.119300
     37 C37        -4.1800    8.4060   -8.1670 ca        1 3II     -0.096000
     38 C38        -5.4510    8.9270   -8.3900 ca        1 3II     -0.116000
     39 C39        -6.5720    8.2560   -7.8870 ca        1 3II      0.041400
     40 Cl40       -8.1210    8.8800   -8.1540 cl        1 3II     -0.041400
     41 C41        -6.4200    7.0690   -7.1630 ca        1 3II     -0.113000
     42 C42        -5.1380    6.5590   -6.9440 ca        1 3II      0.030400
     43 Cl43       -4.9870    5.1120   -6.0590 cl        1 3II     -0.085400
     44 H1         -1.2380   -1.0330   -0.9070 ha        1 3II      0.152000
     45 H6         -2.2260   -0.4910    4.9700 h1        1 3II      0.052700
     46 H6A        -1.9440   -1.7100    3.6190 h1        1 3II      0.052700
     47 H6B        -3.0200   -0.2480    3.3270 h1        1 3II      0.052700
     48 H9          2.4580    3.2220   -1.3950 hc        1 3II      0.075950
     49 H9A         1.3240    4.5570   -1.8680 hc        1 3II      0.075950
     50 H10        -0.3130    2.9670   -2.7760 h1        1 3II      0.071200
     51 H10A        0.1380    2.5020   -1.0640 h1        1 3II      0.071200
     52 H11         1.7960    0.1880   -4.1650 h1        1 3II      0.071200
     53 H11A        0.6910    1.5610   -4.6640 h1        1 3II      0.071200
     54 H13         3.0290    2.1780   -5.0800 hc        1 3II      0.075950
     55 H13A        3.5170    1.7540   -3.3860 hc        1 3II      0.075950
     56 H15         1.1390    1.3330    2.8090 ha        1 3II      0.163000
     57 H18         2.6930    2.7160    2.0140 h1        1 3II      0.051367
     58 H18A        3.3820    1.0130    2.0010 h1        1 3II      0.051367
     59 H18B        4.0540    2.2850    0.8530 h1        1 3II      0.051367
     60 H19        -2.1640   -1.1010    1.3950 ha        1 3II      0.151000
     61 H23         4.0210    6.0440   -4.9410 h2        1 3II      0.080700
     62 H23A        3.0640    6.5380   -3.4440 h2        1 3II      0.080700
     63 H25         1.5220    5.4000   -6.9880 h1        1 3II      0.115700
     64 H25A        2.4920    6.8660   -6.4340 h1        1 3II      0.115700
     65 H26         4.5630    4.0670   -6.0280 ha        1 3II      0.133000
     66 H27         5.3790    3.5940   -1.7780 ha        1 3II      0.133000
     67 H28         7.6020    2.6450   -2.3340 ha        1 3II      0.147000
     68 H30         8.3220    2.4130   -4.7140 ha        1 3II      0.150000
     69 H31         6.7900    3.1300   -6.5500 ha        1 3II      0.147000
     70 HN33       -0.8630    5.3780   -5.7680 hn        1 3II      0.478800
     71 H34        -2.8870    6.6870   -5.0860 hx        1 3II      0.115200
     72 H34A       -2.0040    8.1490   -5.7690 hx        1 3II      0.115200
     73 H35        -2.6460    5.5600   -7.4010 hc        1 3II      0.076700
     74 H35A       -1.9370    7.1130   -8.0230 hc        1 3II      0.076700
     75 H37        -3.3020    8.9330   -8.5740 ha        1 3II      0.147000
     76 H38        -5.5720    9.8590   -8.9650 ha        1 3II      0.167000
     77 H41        -7.3040    6.5380   -6.7710 ha        1 3II      0.177000
     78 H332       -0.6890    6.4340   -4.4960 hn        1 3II      0.478800
@<TRIPOS>BOND
     1    1    2 ar  
     2    1   19 ar  
     3    1   44 1   
     4    2    3 1   
     5    2    4 ar  
     6    3    7 2   
     7    3    8 1   
     8    4   15 ar  
     9    4   17 1   
    10    5    6 1   
    11    5   16 1   
    12    6   45 1   
    13    6   46 1   
    14    6   47 1   
    15    8   10 1   
    16    8   11 1   
    17    9   10 1   
    18    9   12 1   
    19    9   48 1   
    20    9   49 1   
    21   10   50 1   
    22   10   51 1   
    23   11   13 1   
    24   11   52 1   
    25   11   53 1   
    26   12   13 1   
    27   12   14 1   
    28   12   20 1   
    29   13   54 1   
    30   13   55 1   
    31   14   21 1   
    32   14   22 2   
    33   15   16 ar  
    34   15   56 1   
    35   16   19 ar  
    36   17   18 1   
    37   18   57 1   
    38   18   58 1   
    39   18   59 1   
    40   19   60 1   
    41   20   23 1   
    42   20   24 1   
    43   21   23 1   
    44   21   25 1   
    45   23   61 1   
    46   23   62 1   
    47   24   26 ar  
    48   24   27 ar  
    49   25   29 1   
    50   25   63 1   
    51   25   64 1   
    52   26   31 ar  
    53   26   65 1   
    54   27   28 ar  
    55   27   66 1   
    56   28   30 ar  
    57   28   67 1   
    58   29   32 2   
    59   29   33 1   
    60   30   31 ar  
    61   30   68 1   
    62   31   69 1   
    63   33   34 1   
    64   33   70 1   
    65   33   78 1   
    66   34   35 1   
    67   34   71 1   
    68   34   72 1   
    69   35   36 1   
    70   35   73 1   
    71   35   74 1   
    72   36   37 ar  
    73   36   42 ar  
    74   37   38 ar  
    75   37   75 1   
    76   38   39 ar  
    77   38   76 1   
    78   39   40 1   
    79   39   41 ar  
    80   41   42 ar  
    81   41   77 1   
    82   42   43 1   
@<TRIPOS>SUBSTRUCTURE
     1 3II         1 TEMP              0 ****  ****    0 ROOT
