@<TRIPOS>MOLECULE
3II
   78    82     1     0     0
SMALL
bcc


@<TRIPOS>ATOM
      1 C1         -0.8240   -0.5690   -0.6070 ca        1 3II     -0.025000
      2 C2          0.3450    0.1820   -0.7420 ca        1 3II     -0.205600
      3 C3          1.0770    0.1440   -2.0370 c         1 3II      0.692700
      4 C4          0.8490    0.8730    0.3800 ca        1 3II      0.175100
      5 O5         -1.5610    0.0640    2.9650 os        1 3II     -0.320900
      6 C6         -2.7050   -0.7680    3.1440 c3        1 3II      0.110700
      7 O7          1.7000   -0.8720   -2.3940 o         1 3II     -0.574100
      8 N8          0.9680    1.2340   -2.9130 n         1 3II     -0.454800
      9 C9          1.6640    3.5660   -2.3630 c3        1 3II     -0.101400
     10 C10         0.5350    2.5370   -2.4780 c3        1 3II      0.082000
     11 C11         1.7630    1.2560   -4.1200 c3        1 3II      0.082000
     12 C12         2.5110    3.6430   -3.6470 c3        1 3II      0.154200
     13 C13         2.9400    2.2320   -4.0730 c3        1 3II     -0.101400
     14 C14         1.6540    4.2810   -4.7800 c         1 3II      0.680500
     15 C15         0.1950    0.8140    1.6120 ca        1 3II     -0.236000
     16 C16        -0.9840    0.0530    1.7160 ca        1 3II      0.181100
     17 O17         1.9890    1.6240    0.1680 os        1 3II     -0.346900
     18 C18         2.7160    2.0000    1.3360 c3        1 3II      0.113700
     19 C19        -1.4990   -0.6360    0.6090 ca        1 3II     -0.237000
     20 N20         3.6440    4.6020   -3.4400 nh        1 3II     -0.601000
     21 N21         2.1630    5.5660   -5.0740 n         1 3II     -0.529800
     22 O22         0.6410    3.8430   -5.3460 o         1 3II     -0.645500
     23 C23         3.3440    5.8170   -4.2230 c3        1 3II      0.314200
     24 C24         4.9580    4.0700   -3.6580 ca        1 3II      0.048600
     25 C25         2.0270    6.1850   -6.3450 c3        1 3II      0.042000
     26 C26         5.5460    3.9450   -4.9340 ca        1 3II     -0.128000
     27 C27         5.7060    3.6940   -2.5240 ca        1 3II     -0.128000
     28 C28         7.0060    3.2150   -2.6730 ca        1 3II     -0.116000
     29 C29         0.7210    6.9660   -6.5320 c         1 3II      0.520100
     30 C30         7.5810    3.1030   -3.9380 ca        1 3II     -0.109000
     31 C31         6.8470    3.4690   -5.0660 ca        1 3II     -0.116000
     32 O32         0.6120    8.0360   -7.1070 o         1 3II     -0.403100
     33 N33        -0.5270    6.3070   -6.0120 n4        1 3II     -0.674800
     34 C34        -1.7870    6.9130   -6.5290 c3        1 3II      0.102800
     35 C35        -3.0330    6.2230   -5.9720 c3        1 3II     -0.047100
     36 C36        -4.2470    6.9520   -6.4280 ca        1 3II     -0.118300
     37 C37        -4.9970    6.4390   -7.4940 ca        1 3II     -0.097000
     38 C38        -6.1550    7.0780   -7.9280 ca        1 3II     -0.115000
     39 C39        -6.5790    8.2500   -7.2910 ca        1 3II      0.042400
     40 CL40       -7.9850    9.0330   -7.8110 cl        1 3II     -0.040400
     41 C41        -5.8480    8.7780   -6.2220 ca        1 3II     -0.112000
     42 C42        -4.6860    8.1270   -5.7980 ca        1 3II      0.033400
     43 CL43       -3.8210    8.7950   -4.4920 cl        1 3II     -0.088400
     44 H1         -1.2090   -1.1280   -1.4750 ha        1 3II      0.151000
     45 H6         -3.5450   -0.4210    2.4950 h1        1 3II      0.052700
     46 H6A        -2.9560   -0.6290    4.2260 h1        1 3II      0.052700
     47 H6B        -2.4540   -1.8350    2.9290 h1        1 3II      0.052700
     48 H9          1.2190    4.5660   -2.1300 hc        1 3II      0.075950
     49 H9A         2.3380    3.2810   -1.5080 hc        1 3II      0.075950
     50 H10         0.0280    2.4630   -1.4750 h1        1 3II      0.070700
     51 H10A       -0.2190    2.9090   -3.2320 h1        1 3II      0.070700
     52 H11         2.1670    0.2220   -4.3250 h1        1 3II      0.070700
     53 H11A        1.0790    1.5470   -4.9690 h1        1 3II      0.070700
     54 H13         3.4220    2.2630   -5.0840 hc        1 3II      0.075950
     55 H13A        3.7060    1.8590   -3.3380 hc        1 3II      0.075950
     56 H15         0.5760    1.3370    2.5000 ha        1 3II      0.163000
     57 H18         3.6720    2.4130    0.9240 h1        1 3II      0.051700
     58 H18A        2.9140    1.1130    1.9860 h1        1 3II      0.051700
     59 H18B        2.1570    2.7850    1.9000 h1        1 3II      0.051700
     60 H19        -2.4150   -1.2360    0.6920 ha        1 3II      0.151000
     61 H23         3.0600    6.6200   -3.4780 h2        1 3II      0.081200
     62 H23A        4.2220    6.1700   -4.8370 h2        1 3II      0.081200
     63 H25         2.8610    6.9310   -6.5150 h1        1 3II      0.116700
     64 H25A        2.0380    5.4250   -7.1860 h1        1 3II      0.116700
     65 H26         4.9820    4.2180   -5.8380 ha        1 3II      0.133000
     66 H27         5.2680    3.7770   -1.5170 ha        1 3II      0.133000
     67 H28         7.5820    2.9250   -1.7800 ha        1 3II      0.147000
     68 H30         8.6100    2.7260   -4.0470 ha        1 3II      0.151000
     69 H31         7.2960    3.3780   -6.0670 ha        1 3II      0.147000
     70 HN33       -0.5160    6.3660   -4.9860 hn        1 3II      0.475300
     71 H34        -1.7900    8.0070   -6.2490 hx        1 3II      0.115200
     72 H34A       -1.7710    6.8380   -7.6540 hx        1 3II      0.115200
     73 H35        -3.0710    5.1570   -6.3250 hc        1 3II      0.076200
     74 H35A       -3.0040    6.2050   -4.8470 hc        1 3II      0.076200
     75 H37        -4.6740    5.5110   -7.9930 ha        1 3II      0.145000
     76 H38        -6.7350    6.6590   -8.7670 ha        1 3II      0.168000
     77 H41        -6.1860    9.6980   -5.7160 ha        1 3II      0.177000
     78 H332       -0.4930    5.2980   -6.2550 hn        1 3II      0.475300
@<TRIPOS>BOND
     1    1    2 ar  
     2    1   19 ar  
     3    1   44 1   
     4    2    3 1   
     5    2    4 ar  
     6    3    7 2   
     7    3    8 1   
     8    4   15 ar  
     9    4   17 1   
    10    5    6 1   
    11    5   16 1   
    12    6   45 1   
    13    6   46 1   
    14    6   47 1   
    15    8   10 1   
    16    8   11 1   
    17    9   10 1   
    18    9   12 1   
    19    9   48 1   
    20    9   49 1   
    21   10   50 1   
    22   10   51 1   
    23   11   13 1   
    24   11   52 1   
    25   11   53 1   
    26   12   13 1   
    27   12   14 1   
    28   12   20 1   
    29   13   54 1   
    30   13   55 1   
    31   14   21 1   
    32   14   22 2   
    33   15   16 ar  
    34   15   56 1   
    35   16   19 ar  
    36   17   18 1   
    37   18   57 1   
    38   18   58 1   
    39   18   59 1   
    40   19   60 1   
    41   20   23 1   
    42   20   24 1   
    43   21   23 1   
    44   21   25 1   
    45   23   61 1   
    46   23   62 1   
    47   24   26 ar  
    48   24   27 ar  
    49   25   29 1   
    50   25   63 1   
    51   25   64 1   
    52   26   31 ar  
    53   26   65 1   
    54   27   28 ar  
    55   27   66 1   
    56   28   30 ar  
    57   28   67 1   
    58   29   32 2   
    59   29   33 1   
    60   30   31 ar  
    61   30   68 1   
    62   31   69 1   
    63   33   34 1   
    64   33   70 1   
    65   33   78 1   
    66   34   35 1   
    67   34   71 1   
    68   34   72 1   
    69   35   36 1   
    70   35   73 1   
    71   35   74 1   
    72   36   37 ar  
    73   36   42 ar  
    74   37   38 ar  
    75   37   75 1   
    76   38   39 ar  
    77   38   76 1   
    78   39   40 1   
    79   39   41 ar  
    80   41   42 ar  
    81   41   77 1   
    82   42   43 1   
@<TRIPOS>SUBSTRUCTURE
     1 3II         1 TEMP              0 ****  ****    0 ROOT
