@<TRIPOS>MOLECULE
3II
   78    82     1     0     0
SMALL
bcc


@<TRIPOS>ATOM
      1 C1         -0.7670   -0.6120   -0.6520 ca        1 3II     -0.025000
      2 C2          0.3920    0.1560   -0.7780 ca        1 3II     -0.205600
      3 C3          1.1270    0.1400   -2.0720 c         1 3II      0.692700
      4 C4          0.8850    0.8430    0.3510 ca        1 3II      0.175100
      5 O5         -1.5180   -0.0230    2.9250 os        1 3II     -0.320900
      6 C6         -2.6510   -0.8710    3.0930 c3        1 3II      0.110700
      7 O7          1.7650   -0.8640   -2.4380 o         1 3II     -0.574100
      8 N8          1.0030    1.2360   -2.9380 n         1 3II     -0.454800
      9 C9          1.6650    3.5730   -2.3650 c3        1 3II     -0.101400
     10 C10         0.5520    2.5290   -2.4910 c3        1 3II      0.082000
     11 C11         1.8010    1.2810   -4.1430 c3        1 3II      0.082000
     12 C12         2.5130    3.6740   -3.6470 c3        1 3II      0.154200
     13 C13         2.9630    2.2740   -4.0850 c3        1 3II     -0.101400
     14 C14         1.6490    4.3100   -4.7750 c         1 3II      0.680500
     15 C15         0.2300    0.7630    1.5810 ca        1 3II     -0.236000
     16 C16        -0.9390   -0.0140    1.6760 ca        1 3II      0.181100
     17 O17         2.0160    1.6100    0.1480 os        1 3II     -0.346900
     18 C18         2.7360    1.9830    1.3210 c3        1 3II      0.113700
     19 C19        -1.4430   -0.7000    0.5620 ca        1 3II     -0.237000
     20 N20         3.6320    4.6480   -3.4290 nh        1 3II     -0.601000
     21 N21         2.1390    5.6050   -5.0570 n         1 3II     -0.529800
     22 O22         0.6430    3.8630   -5.3470 o         1 3II     -0.645500
     23 C23         3.3150    5.8660   -4.2010 c3        1 3II      0.314200
     24 C24         4.9530    4.1370   -3.6500 ca        1 3II      0.048600
     25 C25         1.9950    6.2350   -6.3210 c3        1 3II      0.043000
     26 C26         5.5450    4.0320   -4.9260 ca        1 3II     -0.128000
     27 C27         5.7050    3.7610   -2.5180 ca        1 3II     -0.128000
     28 C28         7.0130    3.3030   -2.6690 ca        1 3II     -0.116000
     29 C29         0.6780    6.9980   -6.5020 c         1 3II      0.520100
     30 C30         7.5910    3.2110   -3.9330 ca        1 3II     -0.109000
     31 C31         6.8530    3.5760   -5.0590 ca        1 3II     -0.116000
     32 O32         0.5540    8.0720   -7.0670 o         1 3II     -0.403100
     33 N33        -0.5600    6.3160   -5.9900 n4        1 3II     -0.674800
     34 C34        -1.8290    6.9090   -6.5010 c3        1 3II      0.102800
     35 C35        -3.0650    6.1950   -5.9520 c3        1 3II     -0.047100
     36 C36        -4.2890    6.9130   -6.3990 ca        1 3II     -0.118300
     37 C37        -5.0320    6.4030   -7.4710 ca        1 3II     -0.097000
     38 C38        -6.1990    7.0310   -7.8970 ca        1 3II     -0.115000
     39 C39        -6.6390    8.1890   -7.2450 ca        1 3II      0.042400
     40 CL40       -8.0560    8.9580   -7.7550 cl        1 3II     -0.040400
     41 C41        -5.9150    8.7140   -6.1700 ca        1 3II     -0.112000
     42 C42        -4.7440    8.0740   -5.7540 ca        1 3II      0.033400
     43 CL43       -3.8890    8.7370   -4.4390 cl        1 3II     -0.088400
     44 H1         -1.1430   -1.1680   -1.5260 ha        1 3II      0.151000
     45 H6         -3.4950   -0.5290    2.4460 h1        1 3II      0.052700
     46 H6A        -2.3860   -1.9330    2.8690 h1        1 3II      0.052700
     47 H6B        -2.9060   -0.7460    4.1760 h1        1 3II      0.052700
     48 H9          1.2060    4.5640   -2.1230 hc        1 3II      0.075950
     49 H9A         2.3420    3.2890   -1.5120 hc        1 3II      0.075950
     50 H10         0.0430    2.4380   -1.4900 h1        1 3II      0.070700
     51 H10A       -0.2060    2.8970   -3.2440 h1        1 3II      0.070700
     52 H11         1.1140    1.5700   -4.9910 h1        1 3II      0.070700
     53 H11A        2.2200    0.2550   -4.3570 h1        1 3II      0.070700
     54 H13         3.7330    1.9050   -3.3530 hc        1 3II      0.075950
     55 H13A        3.4470    2.3210   -5.0950 hc        1 3II      0.075950
     56 H15         0.6030    1.2820    2.4750 ha        1 3II      0.163000
     57 H18         2.9450    1.0930    1.9620 h1        1 3II      0.051700
     58 H18A        2.1670    2.7560    1.8920 h1        1 3II      0.051700
     59 H18B        3.6870    2.4130    0.9150 h1        1 3II      0.051700
     60 H19        -2.3510   -1.3130    0.6370 ha        1 3II      0.151000
     61 H23         4.1890    6.2360   -4.8110 h2        1 3II      0.081200
     62 H23A        3.0190    6.6570   -3.4490 h2        1 3II      0.081200
     63 H25         2.8180    6.9950   -6.4830 h1        1 3II      0.116700
     64 H25A        2.0180    5.4830   -7.1700 h1        1 3II      0.116700
     65 H26         4.9790    4.3060   -5.8280 ha        1 3II      0.133000
     66 H27         5.2640    3.8290   -1.5100 ha        1 3II      0.133000
     67 H28         7.5910    3.0130   -1.7770 ha        1 3II      0.147000
     68 H30         8.6250    2.8500   -4.0440 ha        1 3II      0.151000
     69 H31         7.3050    3.5010   -6.0610 ha        1 3II      0.147000
     70 HN33       -0.5500    6.3640   -4.9630 hn        1 3II      0.475300
     71 H34        -1.8480    8.0000   -6.2080 hx        1 3II      0.115200
     72 H34A       -1.8110    6.8470   -7.6260 hx        1 3II      0.115200
     73 H35        -3.0880    5.1330   -6.3180 hc        1 3II      0.076200
     74 H35A       -3.0360    6.1640   -4.8280 hc        1 3II      0.076200
     75 H37        -4.6970    5.4860   -7.9820 ha        1 3II      0.145000
     76 H38        -6.7730    6.6150   -8.7410 ha        1 3II      0.168000
     77 H41        -6.2660    9.6230   -5.6520 ha        1 3II      0.177000
     78 H332       -0.5120    5.3110   -6.2430 hn        1 3II      0.475300
@<TRIPOS>BOND
     1    1    2 ar  
     2    1   19 ar  
     3    1   44 1   
     4    2    3 1   
     5    2    4 ar  
     6    3    7 2   
     7    3    8 1   
     8    4   15 ar  
     9    4   17 1   
    10    5    6 1   
    11    5   16 1   
    12    6   45 1   
    13    6   46 1   
    14    6   47 1   
    15    8   10 1   
    16    8   11 1   
    17    9   10 1   
    18    9   12 1   
    19    9   48 1   
    20    9   49 1   
    21   10   50 1   
    22   10   51 1   
    23   11   13 1   
    24   11   52 1   
    25   11   53 1   
    26   12   13 1   
    27   12   14 1   
    28   12   20 1   
    29   13   54 1   
    30   13   55 1   
    31   14   21 1   
    32   14   22 2   
    33   15   16 ar  
    34   15   56 1   
    35   16   19 ar  
    36   17   18 1   
    37   18   57 1   
    38   18   58 1   
    39   18   59 1   
    40   19   60 1   
    41   20   23 1   
    42   20   24 1   
    43   21   23 1   
    44   21   25 1   
    45   23   61 1   
    46   23   62 1   
    47   24   26 ar  
    48   24   27 ar  
    49   25   29 1   
    50   25   63 1   
    51   25   64 1   
    52   26   31 ar  
    53   26   65 1   
    54   27   28 ar  
    55   27   66 1   
    56   28   30 ar  
    57   28   67 1   
    58   29   32 2   
    59   29   33 1   
    60   30   31 ar  
    61   30   68 1   
    62   31   69 1   
    63   33   34 1   
    64   33   70 1   
    65   33   78 1   
    66   34   35 1   
    67   34   71 1   
    68   34   72 1   
    69   35   36 1   
    70   35   73 1   
    71   35   74 1   
    72   36   37 ar  
    73   36   42 ar  
    74   37   38 ar  
    75   37   75 1   
    76   38   39 ar  
    77   38   76 1   
    78   39   40 1   
    79   39   41 ar  
    80   41   42 ar  
    81   41   77 1   
    82   42   43 1   
@<TRIPOS>SUBSTRUCTURE
     1 3II         1 TEMP              0 ****  ****    0 ROOT
