@<TRIPOS>MOLECULE
3II
   77    74     1     0     0
SMALL
bcc


@<TRIPOS>ATOM
      1 C1          0.1160   -1.0540    5.2370 c1        1 3II     -0.053000
      2 C2          1.5080   -1.2490    5.3320 c1        1 3II     -0.175000
      3 C3          2.3560   -1.4890    4.0410 c1        1 3II      0.348000
      4 C4          2.1270   -1.2580    6.5830 c2        1 3II      0.118000
      5 O5         -0.8030   -0.7890    8.8270 os        1 3II     -0.207000
      6 C6         -0.8530   -1.9670    9.5620 c3        1 3II     -0.079000
      7 O7          3.5700   -1.6600    4.1290 o         1 3II     -0.368000
      8 N8          1.6840   -1.6470    2.7340 n3        1 3II     -0.302000
      9 C9         -0.0800   -0.5040    1.4080 c3        1 3II     -0.175500
     10 C10         0.2330   -1.4610    2.5440 c3        1 3II     -0.039000
     11 C11         2.4020   -2.0060    1.5100 c3        1 3II     -0.039000
     12 C12         0.6360   -0.8700    0.1520 c3        1 3II      0.027000
     13 C13         2.1040   -1.0550    0.3680 c3        1 3II     -0.175500
     14 C14        -0.0690   -1.8660   -0.8080 c2        1 3II      0.291000
     15 C15         1.3590   -1.0730    7.7520 c1        1 3II     -0.224000
     16 C16        -0.0270   -0.8790    7.6580 c2        1 3II      0.107000
     17 O17         3.5490   -1.3760    6.6740 os        1 3II     -0.231000
     18 C18         4.1640   -0.3130    7.3580 c3        1 3II     -0.075000
     19 C19        -0.6490   -0.8690    6.4030 c2        1 3II     -0.173000
     20 N20         0.5260    0.4710   -0.5260 n3        1 3II     -0.215000
     21 N21        -0.7060   -1.1250   -1.6410 n         1 3II     -0.359000
     22 O22        -0.2930   -3.0560   -0.5780 o         1 3II     -0.349000
     23 C23         0.1000    0.1860   -1.7630 c3        1 3II      0.048000
     24 C24         1.8690    1.0920   -0.6010 c2        1 3II     -0.005000
     25 C25        -1.7560   -1.5800   -2.5630 c3        1 3II     -0.028000
     26 C26         2.7190    0.9280   -1.6970 c2        1 3II     -0.156000
     27 C27         2.1850    2.0180    0.4000 c1        1 3II     -0.107000
     28 C28         3.3500    2.7790    0.3030 c1        1 3II     -0.126000
     29 C29        -2.5390   -0.3500   -3.1110 c2        1 3II      0.268000
     30 C30         4.2080    2.6140   -0.8010 c1        1 3II     -0.126000
     31 C31         3.8910    1.6910   -1.7960 c2        1 3II     -0.121000
     32 O32        -2.7580    0.6010   -2.3860 o         1 3II     -0.375000
     33 N33        -3.1670   -0.4110   -4.4590 n         1 3II     -0.373000
     34 C34        -3.6930    0.8280   -5.0900 c3        1 3II     -0.013000
     35 C35        -4.2720    0.5020   -6.4400 c3        1 3II     -0.154000
     36 C36        -3.7240    1.5000   -7.4840 c2        1 3II     -0.057000
     37 C37        -2.5640    1.2070   -8.1660 c2        1 3II     -0.114000
     38 C38        -2.1690    2.0010   -9.2520 c1        1 3II     -0.128000
     39 C39        -2.9400    3.0760   -9.6390 c2        1 3II     -0.061000
     40 CL40       -2.4690    4.0380  -11.0580 cl        1 3II     -0.006000
     41 C41        -4.1150    3.3760   -8.9510 c1        1 3II     -0.118000
     42 C42        -4.5080    2.5940   -7.8790 c1        1 3II     -0.056000
     43 CL43       -5.9340    3.0170   -6.9680 cl        1 3II     -0.010000
     44 H1         -0.3210   -1.0460    4.3570 DU        1 3II      0.148250
     45 H6         -0.9270   -1.7550   10.5130 h1        1 3II      0.087333
     46 H6A        -0.0360   -2.4850    9.4050 h1        1 3II      0.087333
     47 H6B        -1.6330   -2.4940    9.2830 h1        1 3II      0.087333
     48 H9          0.1800    0.3880    1.6690 hc        1 3II      0.104750
     49 H9A        -1.0590   -0.5170    1.2370 hc        1 3II      0.104750
     50 H10        -0.1880   -2.3550    2.3420 h1        1 3II      0.117750
     51 H10A       -0.1610   -1.1010    3.3900 h1        1 3II      0.117750
     52 H11         2.1450   -2.9030    1.2470 h1        1 3II      0.117750
     53 H11A        3.3570   -1.9930    1.6880 h1        1 3II      0.117750
     54 H13         2.4990   -0.2010    0.5640 hc        1 3II      0.104750
     55 H13A        2.4960   -1.4030   -0.4380 hc        1 3II      0.104750
     56 H15         1.8030   -1.0780    8.6480 DU        1 3II      0.148250
     57 H18         5.0770   -0.1640    6.9900 h1        1 3II      0.088000
     58 H18A        3.6310    0.4960    7.2450 h1        1 3II      0.088000
     59 H18B        4.2270   -0.5280    8.3010 h1        1 3II      0.088000
     60 H19        -1.6210   -0.7340    6.3370 ha        1 3II      0.155000
     61 H23         0.8710    0.0570   -2.3690 h2        1 3II      0.104500
     62 H23A       -0.4800    0.9120   -2.0990 h2        1 3II      0.104500
     63 H25        -1.3550   -2.0590   -3.2960 h1        1 3II      0.127000
     64 H25A       -2.3810   -2.1820   -2.0810 h1        1 3II      0.127000
     65 H26         2.4930    0.2680   -2.4070 ha        1 3II      0.135000
     66 H27         1.5780    2.1340    1.1790 ha        1 3II      0.145000
     67 H28         3.5710    3.4250    1.0020 ha        1 3II      0.137000
     68 H30         5.0260    3.1470   -0.8690 DU        1 3II      0.148250
     69 H31         4.4990    1.5720   -2.5820 ha        1 3II      0.136000
     70 HN33       -3.2390   -1.2340   -4.9070 hn        1 3II      0.251000
     71 H34        -2.9650    1.4770   -5.1950 h1        1 3II      0.100000
     72 H34A       -4.3930    1.2110   -4.5210 h1        1 3II      0.100000
     73 H35        -4.0220   -0.3980   -6.6900 hc        1 3II      0.112000
     74 H35A       -5.2460    0.5710   -6.4020 hc        1 3II      0.112000
     75 H37        -2.0060    0.4330   -7.8880 ha        1 3II      0.146000
     76 H38        -1.3250    1.7860   -9.7470 DU        1 3II      0.148250
     77 H41        -4.6630    4.1410   -9.2270 ha        1 3II      0.162000
@<TRIPOS>BOND
     1    1    2 1   
     2    1   19 1   
     3    2    4 1   
     4    3    7 1   
     5    3    8 1   
     6    4   15 1   
     7    4   17 1   
     8    5    6 1   
     9    5   16 1   
    10    6   45 1   
    11    6   46 1   
    12    6   47 1   
    13    8   10 1   
    14    8   11 1   
    15    9   10 1   
    16    9   12 1   
    17    9   48 1   
    18    9   49 1   
    19   10   50 1   
    20   10   51 1   
    21   11   13 1   
    22   11   52 1   
    23   11   53 1   
    24   12   13 1   
    25   12   14 1   
    26   12   20 1   
    27   13   54 1   
    28   13   55 1   
    29   14   21 1   
    30   14   22 1   
    31   15   16 1   
    32   16   19 1   
    33   17   18 1   
    34   18   57 1   
    35   18   58 1   
    36   18   59 1   
    37   19   60 1   
    38   20   23 1   
    39   20   24 1   
    40   21   23 1   
    41   21   25 1   
    42   23   61 1   
    43   23   62 1   
    44   24   26 1   
    45   24   27 1   
    46   25   29 1   
    47   25   63 1   
    48   25   64 1   
    49   26   31 1   
    50   26   65 1   
    51   27   66 1   
    52   28   30 1   
    53   28   67 1   
    54   29   32 1   
    55   29   33 1   
    56   30   31 1   
    57   31   69 1   
    58   33   34 1   
    59   33   70 1   
    60   34   35 1   
    61   34   71 1   
    62   34   72 1   
    63   35   36 1   
    64   35   73 1   
    65   35   74 1   
    66   36   37 1   
    67   36   42 1   
    68   37   38 1   
    69   37   75 1   
    70   38   39 1   
    71   39   40 1   
    72   39   41 1   
    73   41   77 1   
    74   42   43 1   
@<TRIPOS>SUBSTRUCTURE
     1 3II         1 TEMP              0 ****  ****    0 ROOT
