@<TRIPOS>MOLECULE
3IL
   25    26     1     0     0
SMALL
bcc


@<TRIPOS>ATOM
      1 N1          0.0130    0.4950   -0.0470 na        1 3IL     -0.193400
      2 C2          1.4160    0.3190   -0.0080 cc        1 3IL     -0.156100
      3 C3          1.8470    0.0370    1.2820 cd        1 3IL     -0.067400
      4 C4          0.4370   -0.3360    3.4560 ca        1 3IL     -0.061000
      5 C5         -0.8690   -0.3580    3.9330 ca        1 3IL     -0.178000
      6 C6         -1.9590   -0.1110    3.0850 ca        1 3IL     -0.125000
      7 C7         -1.7840    0.1630    1.7340 ca        1 3IL     -0.164000
      8 C8         -0.4740    0.1890    1.2370 ca        1 3IL     -0.063200
      9 C9          0.6520   -0.0590    2.1080 ca        1 3IL     -0.081800
     10 C10         5.1000   -1.7870    1.9400 c         1 3IL      0.892600
     11 O11         5.4750   -1.8160    0.7380 o         1 3IL     -0.833800
     12 O12         5.8490   -1.9880    2.9410 o         1 3IL     -0.833800
     13 C13         3.6060   -1.4870    2.2430 c3        1 3IL      0.020100
     14 O14         3.3290   -1.5630    3.6320 oh        1 3IL     -0.653800
     15 C15         3.2440   -0.0940    1.7230 c3        1 3IL     -0.034200
     16 HN1        -0.5110    0.2810   -0.8560 hn        1 3IL      0.264700
     17 H2          2.0090    0.4510   -0.9150 h4        1 3IL      0.164000
     18 H4          1.3020   -0.5550    4.1060 ha        1 3IL      0.174000
     19 H5         -1.0550   -0.5800    4.9930 ha        1 3IL      0.117000
     20 H6         -2.9770   -0.1410    3.4980 ha        1 3IL      0.110000
     21 H7         -2.6430    0.3510    1.0780 ha        1 3IL      0.116000
     22 H13         2.9670   -2.2670    1.7500 h1        1 3IL      0.043700
     23 H14         4.1840   -1.6430    4.0880 ho        1 3IL      0.426000
     24 H151        3.4420    0.6540    2.5380 hc        1 3IL      0.058700
     25 H152        3.9290    0.1350    0.8600 hc        1 3IL      0.058700
@<TRIPOS>BOND
     1    1    2 1   
     2    1    8 1   
     3    1   16 1   
     4    2    3 2   
     5    2   17 1   
     6    3    9 1   
     7    3   15 1   
     8    4    5 ar  
     9    4    9 ar  
    10    4   18 1   
    11    5    6 ar  
    12    5   19 1   
    13    6    7 ar  
    14    6   20 1   
    15    7    8 ar  
    16    7   21 1   
    17    8    9 ar  
    18   10   11 1   
    19   10   12 1   
    20   10   13 1   
    21   13   14 1   
    22   13   15 1   
    23   13   22 1   
    24   14   23 1   
    25   15   24 1   
    26   15   25 1   
@<TRIPOS>SUBSTRUCTURE
     1 3IL         1 TEMP              0 ****  ****    0 ROOT
