@<TRIPOS>MOLECULE
3IL
   25    19     1     0     0
SMALL
bcc


@<TRIPOS>ATOM
      1 N1         -1.6100   -0.4340   -1.7490 n2        1 3IL     -0.225000
      2 C2         -0.2440   -0.3760   -1.7800 c1        1 3IL     -0.087000
      3 C3          0.2120   -0.3270   -0.4780 c1        1 3IL     -0.102000
      4 C4         -1.0020   -0.3300    1.7580 c1        1 3IL     -0.076000
      5 C5         -2.2560   -0.3730    2.3500 c1        1 3IL     -0.152000
      6 C6         -3.3950   -0.4400    1.5590 c1        1 3IL     -0.152000
      7 C7         -3.2790   -0.4640    0.1760 c1        1 3IL     -0.159000
      8 C8         -2.0090   -0.4210   -0.4240 c1        1 3IL     -0.013000
      9 C9         -0.8840   -0.3550    0.3570 c1        1 3IL     -0.074000
     10 C10         3.5980    1.0210    0.2990 c1        1 3IL      0.313000
     11 O11         3.6170    1.8970    1.2040 os        1 3IL     -0.556000
     12 O12         4.6020    0.2850    0.1150 o         1 3IL     -0.580000
     13 C13         2.3740    0.8640   -0.5740 c3        1 3IL     -0.045000
     14 O14         2.7570    0.8960   -1.9280 oh        1 3IL     -0.385000
     15 C15         1.7050   -0.4580   -0.2700 c2        1 3IL     -0.112000
     16 HN1        -2.1610   -0.4740   -2.4740 DU        1 3IL      0.209000
     17 H2          0.3120   -0.3760   -2.5830 DU        1 3IL      0.209000
     18 H4         -0.2010   -0.2830    2.3140 ha        1 3IL      0.141000
     19 H5         -2.3370   -0.3510    3.3220 ha        1 3IL      0.113500
     20 H6         -4.2770   -0.4690    1.9760 ha        1 3IL      0.113500
     21 H7         -4.0810   -0.5110   -0.3800 ha        1 3IL      0.116000
     22 H13         1.7490    1.5940   -0.3950 h1        1 3IL      0.080000
     23 H14         2.8680    1.7390   -2.1850 ho        1 3IL      0.226000
     24 H151        1.8840   -0.7080    0.6580 ha        1 3IL      0.098500
     25 H152        2.0580   -1.1470   -0.8680 ha        1 3IL      0.098500
@<TRIPOS>BOND
     1    1    2 1   
     2    1    8 1   
     3    2    3 1   
     4    3    9 1   
     5    4    9 1   
     6    4   18 1   
     7    5    6 1   
     8    5   19 1   
     9    6   20 1   
    10    7    8 1   
    11    7   21 1   
    12   10   12 1   
    13   10   13 1   
    14   13   14 1   
    15   13   15 1   
    16   13   22 1   
    17   14   23 1   
    18   15   24 1   
    19   15   25 1   
@<TRIPOS>SUBSTRUCTURE
     1 3IL         1 TEMP              0 ****  ****    0 ROOT
