@<TRIPOS>MOLECULE
3IL
   25    26     1     0     0
SMALL
bcc


@<TRIPOS>ATOM
      1 N1         -2.0890   -2.1940   -0.0030 na        1 3IL     -0.193400
      2 C2         -0.6880   -2.1930   -0.1990 cc        1 3IL     -0.156100
      3 C3         -0.2150   -0.9040   -0.4050 cd        1 3IL     -0.067400
      4 C4         -1.5080    1.3700   -0.3140 ca        1 3IL     -0.061000
      5 C5         -2.7710    1.9130   -0.1020 ca        1 3IL     -0.178000
      6 C6         -3.8780    1.0970    0.1770 ca        1 3IL     -0.125000
      7 C7         -3.7620   -0.2860    0.2560 ca        1 3IL     -0.164000
      8 C8         -2.4970   -0.8480    0.0450 ca        1 3IL     -0.063200
      9 C9         -1.3550   -0.0120   -0.2480 ca        1 3IL     -0.081800
     10 C10         3.3890    0.0310    0.2950 c         1 3IL      0.892600
     11 O11         3.7720   -1.1390    0.5630 o         1 3IL     -0.833800
     12 O12         4.1510    1.0010    0.0150 o         1 3IL     -0.833800
     13 C13         1.8640    0.3290    0.3030 c3        1 3IL      0.020100
     14 O14         1.5990    1.7010    0.0550 oh        1 3IL     -0.653800
     15 C15         1.1630   -0.5280   -0.7530 c3        1 3IL     -0.034200
     16 HN1        -2.5310   -2.8810    0.5530 hn        1 3IL      0.264700
     17 H2         -0.1380   -3.1350   -0.2160 h4        1 3IL      0.164000
     18 H4         -0.6240    2.0030   -0.5080 ha        1 3IL      0.174000
     19 H5         -2.9080    3.0030   -0.1450 ha        1 3IL      0.117000
     20 H6         -4.8590    1.5640    0.3430 ha        1 3IL      0.110000
     21 H7         -4.6330   -0.9140    0.4780 ha        1 3IL      0.116000
     22 H13         1.4510    0.1070    1.3240 h1        1 3IL      0.043700
     23 H14         2.4400    2.1080   -0.2110 ho        1 3IL      0.426000
     24 H151        1.1540    0.0380   -1.7240 hc        1 3IL      0.058700
     25 H152        1.7780   -1.4600   -0.8950 hc        1 3IL      0.058700
@<TRIPOS>BOND
     1    1    2 1   
     2    1    8 1   
     3    1   16 1   
     4    2    3 2   
     5    2   17 1   
     6    3    9 1   
     7    3   15 1   
     8    4    5 ar  
     9    4    9 ar  
    10    4   18 1   
    11    5    6 ar  
    12    5   19 1   
    13    6    7 ar  
    14    6   20 1   
    15    7    8 ar  
    16    7   21 1   
    17    8    9 ar  
    18   10   11 1   
    19   10   12 1   
    20   10   13 1   
    21   13   14 1   
    22   13   15 1   
    23   13   22 1   
    24   14   23 1   
    25   15   24 1   
    26   15   25 1   
@<TRIPOS>SUBSTRUCTURE
     1 3IL         1 TEMP              0 ****  ****    0 ROOT
