@<TRIPOS>MOLECULE
3IO
   23    24     1     0     0
SMALL
bcc


@<TRIPOS>ATOM
      1 CAO         0.1840   -0.0870    0.0620 ca        1 3IO     -0.087800
      2 CAG         1.5420    0.2170    0.1120 ca        1 3IO     -0.079000
      3 CAE         2.1190    0.5280    1.3370 ca        1 3IO     -0.174000
      4 CAD         1.3600    0.5420    2.5180 ca        1 3IO     -0.128000
      5 CAF         0.0030    0.2490    2.5130 ca        1 3IO     -0.157000
      6 CAN        -0.5940   -0.0670    1.2840 ca        1 3IO     -0.055200
      7 NAJ        -1.9210   -0.3610    0.9570 na        1 3IO     -0.205400
      8 CAH        -1.9810   -0.6360   -0.4190 cc        1 3IO     -0.095100
      9 CAM        -0.7320   -0.4550   -1.0060 cd        1 3IO     -0.107400
     10 CAI        -0.3640   -0.5860   -2.4200 c3        1 3IO     -0.136200
     11 CAL        -1.3600   -1.2400   -3.3470 c         1 3IO      0.476100
     12 OAB        -2.4870   -1.5990   -2.9890 o         1 3IO     -0.603100
     13 CAK        -0.8150   -1.3930   -4.7800 c         1 3IO      0.854600
     14 OAC        -0.1760   -2.4460   -5.0380 o         1 3IO     -0.811800
     15 OAA        -1.0160   -0.4330   -5.5690 o         1 3IO     -0.811800
     16 HAG         2.1400    0.2070   -0.8110 ha        1 3IO      0.137000
     17 HAE         3.1910    0.7660    1.3890 ha        1 3IO      0.117000
     18 HAD         1.8530    0.7900    3.4690 ha        1 3IO      0.112000
     19 HAF        -0.5840    0.2650    3.4400 ha        1 3IO      0.118000
     20 HNAJ       -2.6080   -0.6210    1.6110 hn        1 3IO      0.281700
     21 HAH        -2.9190   -0.9330   -0.9000 h4        1 3IO      0.200000
     22 HAI1       -0.1570    0.4350   -2.8490 hc        1 3IO      0.077200
     23 HAI2        0.5910   -1.1780   -2.5030 hc        1 3IO      0.077200
@<TRIPOS>BOND
     1    1    2 ar  
     2    1    6 ar  
     3    1    9 1   
     4    2    3 ar  
     5    2   16 1   
     6    3    4 ar  
     7    3   17 1   
     8    4    5 ar  
     9    4   18 1   
    10    5    6 ar  
    11    5   19 1   
    12    6    7 1   
    13    7    8 1   
    14    7   20 1   
    15    8    9 2   
    16    8   21 1   
    17    9   10 1   
    18   10   11 1   
    19   10   22 1   
    20   10   23 1   
    21   11   12 2   
    22   11   13 1   
    23   13   14 1   
    24   13   15 1   
@<TRIPOS>SUBSTRUCTURE
     1 3IO         1 TEMP              0 ****  ****    0 ROOT
