@<TRIPOS>MOLECULE
3IO
   23    16     1     0     0
SMALL
bcc


@<TRIPOS>ATOM
      1 CAO         0.2680    0.3220    0.6030 c1        1 3IO     -0.043000
      2 CAG         1.6710    0.3320    0.5260 c1        1 3IO     -0.134500
      3 CAE         2.4300    0.3340    1.6870 c1        1 3IO     -0.134500
      4 CAD         1.8030    0.3280    2.9260 c1        1 3IO     -0.134500
      5 CAF         0.4180    0.3180    3.0030 c1        1 3IO     -0.134500
      6 CAN        -0.3510    0.3150    1.8270 c1        1 3IO     -0.043000
      7 NAJ        -1.7180    0.2990    1.6150 n1        1 3IO     -0.228000
      8 CAH        -1.9370    0.2960    0.2660 c1        1 3IO     -0.068000
      9 CAM        -0.7100    0.3100   -0.3670 c1        1 3IO     -0.115000
     10 CAI        -0.7440    0.4110   -1.8760 c2        1 3IO     -0.169000
     11 CAL        -0.8480   -0.9750   -2.4720 c2        1 3IO      0.187000
     12 OAB        -1.4770   -1.8390   -1.8940 o         1 3IO     -0.364000
     13 CAK        -0.1890   -1.2790   -3.7990 c2        1 3IO      0.324000
     14 OAC         1.0110   -1.6610   -3.8330 o         1 3IO     -0.546500
     15 OAA        -0.8440   -1.1650   -4.8680 o         1 3IO     -0.546500
     16 HAG         2.1120    0.3360   -0.3450 ha        1 3IO      0.121000
     17 HAE         3.4040    0.3400    1.6340 ha        1 3IO      0.121000
     18 HAD         2.3370    0.3130    3.7430 ha        1 3IO      0.121000
     19 HAF        -0.0220    0.3130    3.8750 ha        1 3IO      0.121000
     20 HNAJ       -2.3610    0.2910    2.2620 DU        1 3IO      0.216000
     21 HAH        -2.8090    0.2780   -0.1740 DU        1 3IO      0.216000
     22 HAI1        0.0750    0.8420   -2.1920 ha        1 3IO      0.116500
     23 HAI2       -1.5190    0.9420   -2.1490 ha        1 3IO      0.116500
@<TRIPOS>BOND
     1    1    6 1   
     2    2    3 1   
     3    2   16 1   
     4    3   17 1   
     5    4    5 1   
     6    4   18 1   
     7    5   19 1   
     8    7    8 1   
     9    8    9 1   
    10   10   11 1   
    11   10   22 1   
    12   10   23 1   
    13   11   12 1   
    14   11   13 1   
    15   13   14 1   
    16   13   15 1   
@<TRIPOS>SUBSTRUCTURE
     1 3IO         1 TEMP              0 ****  ****    0 ROOT
