@<TRIPOS>MOLECULE
3IO
   23    24     1     0     0
SMALL
bcc


@<TRIPOS>ATOM
      1 CAO         0.1880   -0.1120    0.0690 ca        1 3IO     -0.087800
      2 CAG         1.5620    0.1060    0.1440 ca        1 3IO     -0.079000
      3 CAE         2.1350    0.3800    1.3790 ca        1 3IO     -0.174000
      4 CAD         1.3570    0.4430    2.5460 ca        1 3IO     -0.128000
      5 CAF        -0.0150    0.2370    2.5160 ca        1 3IO     -0.157000
      6 CAN        -0.6090   -0.0420    1.2770 ca        1 3IO     -0.055200
      7 NAJ        -1.9450   -0.2520    0.9270 na        1 3IO     -0.205400
      8 CAH        -1.9980   -0.5230   -0.4500 cc        1 3IO     -0.095100
      9 CAM        -0.7300   -0.4220   -1.0150 cd        1 3IO     -0.107400
     10 CAI        -0.3460   -0.5780   -2.4220 c3        1 3IO     -0.136200
     11 CAL        -1.3650   -1.1660   -3.3680 c         1 3IO      0.476100
     12 OAB        -2.5200   -1.4510   -3.0300 o         1 3IO     -0.603100
     13 CAK        -0.8060   -1.3540   -4.7910 c         1 3IO      0.854600
     14 OAC        -0.2330   -2.4460   -5.0400 o         1 3IO     -0.811800
     15 OAA        -0.9300   -0.3820   -5.5820 o         1 3IO     -0.811800
     16 HAG         2.1740    0.0570   -0.7690 ha        1 3IO      0.137000
     17 HAE         3.2190    0.5510    1.4500 ha        1 3IO      0.117000
     18 HAD         1.8480    0.6610    3.5050 ha        1 3IO      0.112000
     19 HAF        -0.6160    0.2900    3.4330 ha        1 3IO      0.118000
     20 HNAJ       -2.6600   -0.4670    1.5680 hn        1 3IO      0.281700
     21 HAH        -2.9450   -0.7620   -0.9490 h4        1 3IO      0.200000
     22 HAI1       -0.0650    0.4280   -2.8470 hc        1 3IO      0.077200
     23 HAI2        0.5700   -1.2310   -2.4880 hc        1 3IO      0.077200
@<TRIPOS>BOND
     1    1    2 ar  
     2    1    6 ar  
     3    1    9 1   
     4    2    3 ar  
     5    2   16 1   
     6    3    4 ar  
     7    3   17 1   
     8    4    5 ar  
     9    4   18 1   
    10    5    6 ar  
    11    5   19 1   
    12    6    7 1   
    13    7    8 1   
    14    7   20 1   
    15    8    9 2   
    16    8   21 1   
    17    9   10 1   
    18   10   11 1   
    19   10   22 1   
    20   10   23 1   
    21   11   12 2   
    22   11   13 1   
    23   13   14 1   
    24   13   15 1   
@<TRIPOS>SUBSTRUCTURE
     1 3IO         1 TEMP              0 ****  ****    0 ROOT
