@<TRIPOS>MOLECULE
3IO
   23    24     1     0     0
SMALL
bcc


@<TRIPOS>ATOM
      1 CAO        -1.3920   -0.3000    0.2120 ca        1 3IO     -0.087800
      2 CAG        -1.6500   -1.6150    0.5940 ca        1 3IO     -0.079000
      3 CAE        -2.9580   -2.0820    0.5630 ca        1 3IO     -0.174000
      4 CAD        -4.0180   -1.2560    0.1580 ca        1 3IO     -0.128000
      5 CAF        -3.8070    0.0610   -0.2260 ca        1 3IO     -0.157000
      6 CAN        -2.4930    0.5480   -0.2020 ca        1 3IO     -0.055200
      7 NAJ        -1.9780    1.8150   -0.4870 na        1 3IO     -0.205400
      8 CAH        -0.5820    1.7640   -0.3360 cc        1 3IO     -0.095100
      9 CAM        -0.1880    0.5070    0.1130 cd        1 3IO     -0.107400
     10 CAI         1.1640    0.0440    0.4460 c3        1 3IO     -0.136200
     11 CAL         2.3270    0.9100    0.0290 c         1 3IO      0.476100
     12 OAB         2.1920    2.0160   -0.5080 o         1 3IO     -0.603100
     13 CAK         3.6870    0.2690    0.3620 c         1 3IO      0.854600
     14 OAC         4.1900   -0.4880   -0.5090 o         1 3IO     -0.811800
     15 OAA         4.1700    0.5170    1.4980 o         1 3IO     -0.811800
     16 HAG        -0.8220   -2.2640    0.9110 ha        1 3IO      0.137000
     17 HAE        -3.1720   -3.1190    0.8600 ha        1 3IO      0.117000
     18 HAD        -5.0390   -1.6630    0.1450 ha        1 3IO      0.112000
     19 HAF        -4.6420    0.7010   -0.5390 ha        1 3IO      0.118000
     20 HNAJ       -2.4620    2.5110   -0.9870 hn        1 3IO      0.281700
     21 HAH         0.0470    2.6360   -0.5470 h4        1 3IO      0.200000
     22 HAI1        1.3340   -0.9690   -0.0170 hc        1 3IO      0.077200
     23 HAI2        1.2500   -0.0860    1.5630 hc        1 3IO      0.077200
@<TRIPOS>BOND
     1    1    2 ar  
     2    1    6 ar  
     3    1    9 1   
     4    2    3 ar  
     5    2   16 1   
     6    3    4 ar  
     7    3   17 1   
     8    4    5 ar  
     9    4   18 1   
    10    5    6 ar  
    11    5   19 1   
    12    6    7 1   
    13    7    8 1   
    14    7   20 1   
    15    8    9 2   
    16    8   21 1   
    17    9   10 1   
    18   10   11 1   
    19   10   22 1   
    20   10   23 1   
    21   11   12 2   
    22   11   13 1   
    23   13   14 1   
    24   13   15 1   
@<TRIPOS>SUBSTRUCTURE
     1 3IO         1 TEMP              0 ****  ****    0 ROOT
