@<TRIPOS>MOLECULE
3IP
   28    29     1     0     0
SMALL
bcc


@<TRIPOS>ATOM
      1 N1          0.0110   -0.0620   -0.3290 n4        1 3IP     -0.799300
      2 C2          1.4690   -0.0390   -0.1110 ca        1 3IP      0.366200
      3 N3          1.9040   -0.0240    1.1850 nb        1 3IP     -0.618000
      4 C4          3.2200   -0.0110    1.3890 ca        1 3IP      0.399200
      5 C5          4.1760   -0.0130    0.3380 ca        1 3IP     -0.141300
      6 C6          3.7370   -0.0270   -0.9740 ca        1 3IP     -0.154000
      7 C7          2.3470   -0.0410   -1.2300 ca        1 3IP      0.092800
      8 O8          1.7590   -0.0590   -2.4590 os        1 3IP     -0.357900
      9 C9          2.6420   -0.0080   -3.6150 c3        1 3IP      0.194700
     10 C10         1.7490    0.0090   -4.8050 ca        1 3IP     -0.141300
     11 C11         1.3490    1.2280   -5.3640 ca        1 3IP     -0.100500
     12 C12         0.5480    1.2410   -6.5050 ca        1 3IP     -0.128000
     13 C13         0.1420    0.0400   -7.0880 ca        1 3IP     -0.094000
     14 C14         0.5360   -1.1770   -6.5300 ca        1 3IP     -0.128000
     15 C15         1.3380   -1.1950   -5.3890 ca        1 3IP     -0.100500
     16 H1N1       -0.1780    0.2140   -1.3010 hn        1 3IP      0.472467
     17 H1N2       -0.3400   -1.0130   -0.1670 hn        1 3IP      0.472467
     18 H4          3.5390    0.0020    2.4510 h4        1 3IP      0.068100
     19 H5          5.2520   -0.0020    0.5800 ha        1 3IP      0.185000
     20 H6          4.4530   -0.0290   -1.8110 ha        1 3IP      0.180000
     21 H9C1        3.2950   -0.9200   -3.5950 h1        1 3IP      0.066200
     22 H9C2        3.2620    0.9240   -3.5440 h1        1 3IP      0.066200
     23 H11         1.6750    2.1770   -4.9110 ha        1 3IP      0.136000
     24 H12         0.2420    2.2010   -6.9500 ha        1 3IP      0.150000
     25 H13        -0.4860    0.0530   -7.9930 ha        1 3IP      0.152000
     26 H14         0.2210   -2.1240   -6.9940 ha        1 3IP      0.150000
     27 H15         1.6550   -2.1550   -4.9560 ha        1 3IP      0.136000
     28 H131       -0.4570    0.5850    0.3170 hn        1 3IP      0.472467
@<TRIPOS>BOND
     1    1    2 1   
     2    1   16 1   
     3    1   17 1   
     4    1   28 1   
     5    2    3 ar  
     6    2    7 ar  
     7    3    4 ar  
     8    4    5 ar  
     9    4   18 1   
    10    5    6 ar  
    11    5   19 1   
    12    6    7 ar  
    13    6   20 1   
    14    7    8 1   
    15    8    9 1   
    16    9   10 1   
    17    9   21 1   
    18    9   22 1   
    19   10   11 ar  
    20   10   15 ar  
    21   11   12 ar  
    22   11   23 1   
    23   12   13 ar  
    24   12   24 1   
    25   13   14 ar  
    26   13   25 1   
    27   14   15 ar  
    28   14   26 1   
    29   15   27 1   
@<TRIPOS>SUBSTRUCTURE
     1 3IP         1 TEMP              0 ****  ****    0 ROOT
