@<TRIPOS>MOLECULE
3IP
   27    28     1     0     0
SMALL
bcc


@<TRIPOS>ATOM
      1 N1          0.3650   -0.6780   -0.4960 nv        1 3IP     -0.924500
      2 C2          1.6380   -0.1800   -0.2050 ca        1 3IP      0.628200
      3 N3          2.1210   -0.2490    1.0790 nb        1 3IP     -0.719000
      4 C4          3.3860    0.1400    1.2930 ca        1 3IP      0.433200
      5 C5          4.2530    0.6300    0.3020 ca        1 3IP     -0.289300
      6 C6          3.7730    0.7280   -1.0030 ca        1 3IP     -0.068000
      7 C7          2.4610    0.3320   -1.2670 ca        1 3IP     -0.091200
      8 O8          1.9100    0.5390   -2.5230 os        1 3IP     -0.341900
      9 C9          2.1240   -0.5790   -3.4090 c3        1 3IP      0.170700
     10 C10         1.4900   -0.2610   -4.7210 ca        1 3IP     -0.094300
     11 C11         1.3120    1.0590   -5.1470 ca        1 3IP     -0.115500
     12 C12         0.7430    1.3210   -6.3930 ca        1 3IP     -0.131500
     13 C13         0.3520    0.2680   -7.2200 ca        1 3IP     -0.127000
     14 C14         0.5280   -1.0500   -6.7970 ca        1 3IP     -0.131500
     15 C15         1.0920   -1.3160   -5.5510 ca        1 3IP     -0.115500
     16 H1N1       -0.0470   -0.2720   -1.3070 hn        1 3IP      0.414300
     17 H1N2       -0.2530   -0.7910    0.2770 hn        1 3IP      0.414300
     18 H4          3.7230    0.0550    2.3430 h4        1 3IP      0.022100
     19 H5          5.2770    0.9310    0.5540 ha        1 3IP      0.145000
     20 H6          4.4010    1.1170   -1.8180 ha        1 3IP      0.147000
     21 H9C1        1.6710   -1.5000   -2.9530 h1        1 3IP      0.049200
     22 H9C2        3.2300   -0.7300   -3.5370 h1        1 3IP      0.049200
     23 H11         1.6180    1.8870   -4.4890 ha        1 3IP      0.140000
     24 H12         0.6030    2.3600   -6.7220 ha        1 3IP      0.132500
     25 H13        -0.0950    0.4750   -8.2030 ha        1 3IP      0.131000
     26 H14         0.2200   -1.8820   -7.4470 ha        1 3IP      0.132500
     27 H15         1.2240   -2.3560   -5.2180 ha        1 3IP      0.140000
@<TRIPOS>BOND
     1    1    2 1   
     2    1   16 1   
     3    1   17 1   
     4    2    3 ar  
     5    2    7 ar  
     6    3    4 ar  
     7    4    5 ar  
     8    4   18 1   
     9    5    6 ar  
    10    5   19 1   
    11    6    7 ar  
    12    6   20 1   
    13    7    8 1   
    14    8    9 1   
    15    9   10 1   
    16    9   21 1   
    17    9   22 1   
    18   10   11 ar  
    19   10   15 ar  
    20   11   12 ar  
    21   11   23 1   
    22   12   13 ar  
    23   12   24 1   
    24   13   14 ar  
    25   13   25 1   
    26   14   15 ar  
    27   14   26 1   
    28   15   27 1   
@<TRIPOS>SUBSTRUCTURE
     1 3IP         1 TEMP              0 ****  ****    0 ROOT
