@<TRIPOS>MOLECULE
3IP
   27    28     1     0     0
SMALL
bcc


@<TRIPOS>ATOM
      1 N1          0.3540   -0.6860   -0.5050 nh        1 3IP     -0.924500
      2 C2          1.6260   -0.1920   -0.2070 ca        1 3IP      0.628200
      3 N3          2.1040   -0.2680    1.0780 nb        1 3IP     -0.719000
      4 C4          3.3680    0.1180    1.3000 ca        1 3IP      0.433200
      5 C5          4.2410    0.6110    0.3150 ca        1 3IP     -0.289300
      6 C6          3.7660    0.7160   -0.9910 ca        1 3IP     -0.068000
      7 C7          2.4550    0.3230   -1.2630 ca        1 3IP     -0.091200
      8 O8          1.9100    0.5370   -2.5200 os        1 3IP     -0.341900
      9 C9          2.1250   -0.5770   -3.4110 c3        1 3IP      0.170700
     10 C10         1.4970   -0.2520   -4.7240 ca        1 3IP     -0.094300
     11 C11         1.3260    1.0700   -5.1450 ca        1 3IP     -0.115500
     12 C12         0.7610    1.3380   -6.3920 ca        1 3IP     -0.131500
     13 C13         0.3700    0.2890   -7.2240 ca        1 3IP     -0.127000
     14 C14         0.5390   -1.0310   -6.8060 ca        1 3IP     -0.131500
     15 C15         1.0970   -1.3030   -5.5590 ca        1 3IP     -0.115500
     16 H1N1       -0.2680   -0.8010    0.2640 hn        1 3IP      0.414300
     17 H1N2       -0.0540   -0.2760   -1.3170 hn        1 3IP      0.414300
     18 H4          3.7010    0.0270    2.3510 h4        1 3IP      0.022100
     19 H5          5.2640    0.9090    0.5730 ha        1 3IP      0.145000
     20 H6          4.3990    1.1070   -1.8020 ha        1 3IP      0.147000
     21 H9C1        1.6690   -1.4990   -2.9600 h1        1 3IP      0.049200
     22 H9C2        3.2310   -0.7310   -3.5350 h1        1 3IP      0.049200
     23 H11         1.6320    1.8940   -4.4830 ha        1 3IP      0.140000
     24 H12         0.6260    2.3790   -6.7180 ha        1 3IP      0.132500
     25 H13        -0.0730    0.5020   -8.2080 ha        1 3IP      0.131000
     26 H14         0.2300   -1.8590   -7.4600 ha        1 3IP      0.132500
     27 H15         1.2250   -2.3450   -5.2290 ha        1 3IP      0.140000
@<TRIPOS>BOND
     1    1    2 1   
     2    1   16 1   
     3    1   17 1   
     4    2    3 ar  
     5    2    7 ar  
     6    3    4 ar  
     7    4    5 ar  
     8    4   18 1   
     9    5    6 ar  
    10    5   19 1   
    11    6    7 ar  
    12    6   20 1   
    13    7    8 1   
    14    8    9 1   
    15    9   10 1   
    16    9   21 1   
    17    9   22 1   
    18   10   11 ar  
    19   10   15 ar  
    20   11   12 ar  
    21   11   23 1   
    22   12   13 ar  
    23   12   24 1   
    24   13   14 ar  
    25   13   25 1   
    26   14   15 ar  
    27   14   26 1   
    28   15   27 1   
@<TRIPOS>SUBSTRUCTURE
     1 3IP         1 TEMP              0 ****  ****    0 ROOT
