@<TRIPOS>MOLECULE
3IP
   27    24     1     0     0
SMALL
bcc


@<TRIPOS>ATOM
      1 N1          0.2630   -3.0740   -0.4450 n3        1 3IP     -0.322000
      2 C2          1.4120   -2.4750    0.1320 c2        1 3IP      0.107000
      3 N3          2.5620   -3.1940    0.2620 n2        1 3IP     -0.193000
      4 C4          3.6610   -2.6270    0.8330 c1        1 3IP     -0.032000
      5 C5          3.6100   -1.3160    1.2830 c1        1 3IP     -0.137500
      6 C6          2.4590   -0.5950    1.1530 c1        1 3IP     -0.137500
      7 C7          1.3590   -1.1650    0.5810 c1        1 3IP     -0.071000
      8 O8          0.1530   -0.4460    0.5090 os        1 3IP     -0.225000
      9 C9          0.2460    0.7520   -0.2250 c3        1 3IP      0.013000
     10 C10        -1.1300    1.3690   -0.3610 c2        1 3IP     -0.087000
     11 C11        -2.1360    0.6810   -1.0200 c2        1 3IP     -0.105000
     12 C12        -3.3820    1.2640   -1.1840 c1        1 3IP     -0.132000
     13 C13        -3.6230    2.5360   -0.6880 c1        1 3IP     -0.137500
     14 C14        -2.6170    3.2240   -0.0280 c1        1 3IP     -0.137500
     15 C15        -1.3700    2.6410    0.1350 c1        1 3IP     -0.126000
     16 H1N1        0.3540   -3.7920   -1.0050 hn        1 3IP      0.209500
     17 H1N2       -0.5690   -2.7510   -0.2470 hn        1 3IP      0.209500
     18 H4          4.4850   -3.1430    0.9260 ha        1 3IP      0.159000
     19 H5          4.3980   -0.9100    1.6920 ha        1 3IP      0.138750
     20 H6          2.4230    0.3280    1.4700 ha        1 3IP      0.138750
     21 H9C1        0.6080    0.5620   -1.1160 h1        1 3IP      0.088500
     22 H9C2        0.8390    1.3760    0.2420 h1        1 3IP      0.088500
     23 H11        -1.9660   -0.2150   -1.3700 ha        1 3IP      0.148000
     24 H12        -4.0910    0.7790   -1.6490 ha        1 3IP      0.133000
     25 H13        -4.5010    2.9470   -0.8030 ha        1 3IP      0.138750
     26 H14        -2.7870    4.1200    0.3210 ha        1 3IP      0.138750
     27 H15        -0.6620    3.1260    0.6000 ha        1 3IP      0.132000
@<TRIPOS>BOND
     1    1    2 1   
     2    1   16 1   
     3    1   17 1   
     4    2    3 1   
     5    2    7 1   
     6    3    4 1   
     7    4   18 1   
     8    5    6 1   
     9    5   19 1   
    10    6   20 1   
    11    7    8 1   
    12    8    9 1   
    13    9   10 1   
    14    9   21 1   
    15    9   22 1   
    16   10   11 1   
    17   10   15 1   
    18   11   12 1   
    19   11   23 1   
    20   12   24 1   
    21   13   14 1   
    22   13   25 1   
    23   14   26 1   
    24   15   27 1   
@<TRIPOS>SUBSTRUCTURE
     1 3IP         1 TEMP              0 ****  ****    0 ROOT
