@<TRIPOS>MOLECULE
3IP
   27    28     1     0     0
SMALL
bcc


@<TRIPOS>ATOM
      1 N1          1.8620    0.7030    1.8710 nh        1 3IP     -0.924500
      2 C2          0.6920    0.1930    2.4410 ca        1 3IP      0.628200
      3 N3          0.5090    0.2620    3.8010 nb        1 3IP     -0.719000
      4 C4         -0.6710   -0.1390    4.2950 ca        1 3IP      0.433200
      5 C5         -1.7330   -0.6430    3.5250 ca        1 3IP     -0.289300
      6 C6         -1.5580   -0.7410    2.1460 ca        1 3IP     -0.068000
      7 C7         -0.3430   -0.3330    1.5930 ca        1 3IP     -0.091200
      8 O8         -0.0860   -0.5390    0.2450 os        1 3IP     -0.341900
      9 C9         -0.5060    0.5730   -0.5720 c3        1 3IP      0.170700
     10 C10        -0.1800    0.2560   -1.9930 ca        1 3IP     -0.094300
     11 C11        -0.0920   -1.0640   -2.4450 ca        1 3IP     -0.115500
     12 C12         0.1850   -1.3250   -3.7870 ca        1 3IP     -0.131500
     13 C13         0.3710   -0.2720   -4.6820 ca        1 3IP     -0.127000
     14 C14         0.2830    1.0460   -4.2330 ca        1 3IP     -0.131500
     15 C15         0.0120    1.3110   -2.8920 ca        1 3IP     -0.115500
     16 H1N1        2.6360    0.8250    2.4850 hn        1 3IP      0.414300
     17 H1N2        2.0850    0.2970    0.9890 hn        1 3IP      0.414300
     18 H4         -0.7640   -0.0540    5.3940 h4        1 3IP      0.022100
     19 H5         -2.6710   -0.9540    4.0010 ha        1 3IP      0.145000
     20 H6         -2.3480   -1.1400    1.4930 ha        1 3IP      0.147000
     21 H9C1       -1.6140    0.7130   -0.4480 h1        1 3IP      0.049200
     22 H9C2        0.0280    1.5000   -0.2310 h1        1 3IP      0.049200
     23 H11        -0.2340   -1.8930   -1.7340 ha        1 3IP      0.140000
     24 H12         0.2570   -2.3650   -4.1380 ha        1 3IP      0.132500
     25 H13         0.5870   -0.4800   -5.7400 ha        1 3IP      0.131000
     26 H14         0.4300    1.8780   -4.9370 ha        1 3IP      0.132500
     27 H15        -0.0510    2.3520   -2.5390 ha        1 3IP      0.140000
@<TRIPOS>BOND
     1    1    2 1   
     2    1   16 1   
     3    1   17 1   
     4    2    3 ar  
     5    2    7 ar  
     6    3    4 ar  
     7    4    5 ar  
     8    4   18 1   
     9    5    6 ar  
    10    5   19 1   
    11    6    7 ar  
    12    6   20 1   
    13    7    8 1   
    14    8    9 1   
    15    9   10 1   
    16    9   21 1   
    17    9   22 1   
    18   10   11 ar  
    19   10   15 ar  
    20   11   12 ar  
    21   11   23 1   
    22   12   13 ar  
    23   12   24 1   
    24   13   14 ar  
    25   13   25 1   
    26   14   15 ar  
    27   14   26 1   
    28   15   27 1   
@<TRIPOS>SUBSTRUCTURE
     1 3IP         1 TEMP              0 ****  ****    0 ROOT
