@<TRIPOS>MOLECULE
3IT
   22    22     1     0     0
SMALL
bcc


@<TRIPOS>ATOM
      1 CAB        -0.0430    0.0660    0.0240 c2        1 3IT     -0.179000
      2 CAI         1.2940   -0.0040    0.0250 ce        1 3IT     -0.090200
      3 CAA         2.0650   -0.1750    1.2840 c3        1 3IT     -0.057900
      4 CAK         2.0820    0.0800   -1.2210 cc        1 3IT     -0.050000
      5 CAG         3.0420   -0.9690   -1.3920 cc        1 3IT     -0.062000
      6 CAE         3.7880   -1.2990   -2.4690 cd        1 3IT     -0.165000
      7 CAF         3.8370   -0.6670   -3.7450 cd        1 3IT     -0.044000
      8 CAH         3.3150    0.5140   -4.1210 cc        1 3IT     -0.235200
      9 CAL         2.5540    1.4750   -3.3440 c         1 3IT      0.542500
     10 OAC         2.4050    2.6430   -3.7630 o         1 3IT     -0.577100
     11 CAJ         1.8590    1.1180   -2.0860 cd        1 3IT      0.048900
     12 OAD         0.8510    1.9930   -1.7370 oh        1 3IT     -0.499100
     13 H1         -0.6290   -0.0010    0.9500 ha        1 3IT      0.120000
     14 H2         -0.6230    0.2100   -0.8970 ha        1 3IT      0.120000
     15 H5          2.2040   -1.2620    1.5110 hc        1 3IT      0.043367
     16 H6          3.0740    0.2990    1.2020 hc        1 3IT      0.043367
     17 H7          1.5240    0.2920    2.1430 hc        1 3IT      0.043367
     18 H8          3.1540   -1.6200   -0.4990 ha        1 3IT      0.136000
     19 H9          4.4460   -2.1860   -2.3750 ha        1 3IT      0.132000
     20 H10         4.4060   -1.2340   -4.5110 ha        1 3IT      0.131000
     21 H11         3.4840    0.8570   -5.1620 ha        1 3IT      0.153000
     22 H12         0.9380    2.8040   -2.2700 ho        1 3IT      0.446000
@<TRIPOS>BOND
     1    1    2 2   
     2    1   13 1   
     3    1   14 1   
     4    2    3 1   
     5    2    4 1   
     6    3   15 1   
     7    3   16 1   
     8    3   17 1   
     9    4    5 1   
    10    4   11 2   
    11    5    6 2   
    12    5   18 1   
    13    6    7 1   
    14    6   19 1   
    15    7    8 2   
    16    7   20 1   
    17    8    9 1   
    18    8   21 1   
    19    9   10 2   
    20    9   11 1   
    21   11   12 1   
    22   12   22 1   
@<TRIPOS>SUBSTRUCTURE
     1 3IT         1 TEMP              0 ****  ****    0 ROOT
