@<TRIPOS>MOLECULE
3J0
   58    57     1     0     0
SMALL
bcc


@<TRIPOS>ATOM
      1 C10        -0.5290   -0.7970   -0.2020 c2        1 3J0     -0.157000
      2 C13         4.1560    1.1190    4.8320 c1        1 3J0      0.008000
      3 C15        -0.8860   -0.5730    3.4140 c2        1 3J0      0.111000
      4 C20        -2.2970    2.7450    6.6930 c3        1 3J0      0.016000
      5 C21        -0.9650    3.0610    7.1110 c1        1 3J0     -0.199000
      6 C22         0.1560    3.3120    7.4540 c1        1 3J0     -0.053000
      7 C24        -2.5440    4.6030    5.1000 c1        1 3J0      0.013000
      8 C26         2.6120    3.5070    6.9500 c2        1 3J0     -0.167000
      9 O01         3.7940   -1.1670   -2.8180 o         1 3J0     -0.464000
     10 C03         3.5460   -0.0260   -0.7580 c2        1 3J0      0.152000
     11 O04         1.8080   -0.1640   -2.3530 o         1 3J0     -0.464000
     12 C05         4.6240    0.8850   -0.4550 c2        1 3J0     -0.263000
     13 C06         4.6620    1.0280    0.9210 c2        1 3J0      0.003000
     14 C07         3.6080    0.2060    1.4790 c2        1 3J0     -0.152000
     15 O08         2.9490   -0.4390    0.3730 os        1 3J0     -0.045000
     16 C09         3.1500   -0.0350    2.7360 c2        1 3J0      0.192000
     17 C11        -0.8590   -0.3580    0.9710 c1        1 3J0     -0.075000
     18 C12        -1.2060    0.1040    2.1460 c2        1 3J0     -0.191000
     19 C14         3.7030    0.5810    3.8520 c1        1 3J0     -0.315000
     20 N16        -1.6140   -0.2060    4.4910 nt        1 3J0     -0.348000
     21 S17         0.2760   -1.6970    3.5020 s         1 3J0     -0.358000
     22 C18        -2.9340    2.3630    4.3140 c1        1 3J0     -0.094000
     23 C19        -2.6210    3.2960    5.3290 c2        1 3J0     -0.160000
     24 C23        -2.4110    5.8660    4.8550 c2        1 3J0     -0.201000
     25 C25         1.4820    3.5990    7.7750 c2        1 3J0     -0.013000
     26 C27         3.7290    3.9530    7.7670 c2        1 3J0     -0.131000
     27 N28         3.2940    4.2830    9.0040 n2        1 3J0     -0.036000
     28 N29         1.9610    4.0440    9.0390 na        1 3J0     -0.088000
     29 C30         1.1470    4.4330   10.1350 c2        1 3J0     -0.207000
     30 C31         0.0780    3.5250   10.5590 c2        1 3J0     -0.050000
     31 C32        -0.5460    3.6660   11.7460 c2        1 3J0     -0.123000
     32 C33        -0.1760    4.7020   12.7060 c2        1 3J0     -0.064000
     33 C34        -0.3020    6.0150   12.4580 c2        1 3J0     -0.163000
     34 C35         1.3550    5.5960   10.8050 c1        1 3J0      0.226000
     35 Cl6         0.4720    4.1380   14.1780 cl        1 3J0     -0.002000
     36 Cl7        -1.7980    2.6150   12.2120 cl        1 3J0     -0.003000
     37 C38         5.1640    4.0400    7.2590 c2        1 3J0      0.403000
     38 O39         5.8190    5.0800    7.4950 o         1 3J0     -0.542500
     39 O40         5.5800    3.0480    6.5900 o         1 3J0     -0.542500
     40 H1         -1.1790   -1.4700   -0.7800 ha        1 3J0      0.172000
     41 H2         -1.7800    1.0490    2.2130 ha        1 3J0      0.138000
     42 H3         -2.4250    1.6240    6.6670 hc        1 3J0      0.108000
     43 H4         -3.0350    3.1530    7.4400 hc        1 3J0      0.108000
     44 H5         -1.4650    6.2940    4.4810 ha        1 3J0      0.171000
     45 H6          2.6730    3.1600    5.9240 ha        1 3J0      0.167000
     46 H8          5.3390    1.6350    1.5260 ha        1 3J0      0.191000
     47 H9          5.2670    1.3430   -1.2050 ha        1 3J0      0.190000
     48 H10         0.4250   -0.5280   -0.7000 ha        1 3J0      0.172000
     49 H11         2.2790   -0.7320    2.8930 ha        1 3J0      0.227000
     50 H12         4.5770    1.6340    5.6900 ha        1 3J0      0.315000
     51 H13        -1.3910   -0.6110    5.3700 hn        1 3J0      0.253500
     52 H14        -3.3440    2.7440    3.3680 ha        1 3J0      0.059000
     53 H15        -3.2270    6.5880    5.0100 ha        1 3J0      0.171000
     54 H16        -0.2000    2.7170    9.8570 ha        1 3J0      0.170000
     55 H17        -0.7910    6.3920   11.5460 ha        1 3J0      0.144500
     56 H18         0.0460    6.7850   13.1600 ha        1 3J0      0.144500
     57 H162       -2.2590    0.5810    4.4600 hn        1 3J0      0.253500
     58 C02         2.9840   -0.5180   -2.1330 c2        1 3J0      0.394000
@<TRIPOS>BOND
     1    1   17 1   
     2    1   40 1   
     3    1   48 1   
     4    2   19 1   
     5    2   50 1   
     6    3   18 1   
     7    3   20 1   
     8    3   21 1   
     9    4    5 1   
    10    4   23 1   
    11    4   42 1   
    12    4   43 1   
    13    5    6 1   
    14    6   25 1   
    15    7   23 1   
    16    7   24 1   
    17    8   25 1   
    18    8   26 1   
    19    8   45 1   
    20    9   58 1   
    21   10   12 1   
    22   10   15 1   
    23   10   58 1   
    24   11   58 1   
    25   12   13 1   
    26   12   47 1   
    27   13   14 1   
    28   13   46 1   
    29   14   15 1   
    30   14   16 1   
    31   16   19 1   
    32   16   49 1   
    33   17   18 1   
    34   18   41 1   
    35   20   51 1   
    36   20   57 1   
    37   22   23 1   
    38   22   52 1   
    39   24   44 1   
    40   24   53 1   
    41   25   28 1   
    42   26   27 1   
    43   26   37 1   
    44   27   28 1   
    45   28   29 1   
    46   29   30 1   
    47   29   34 1   
    48   30   31 1   
    49   30   54 1   
    50   31   32 1   
    51   31   36 1   
    52   32   33 1   
    53   32   35 1   
    54   33   55 1   
    55   33   56 1   
    56   37   38 1   
    57   37   39 1   
@<TRIPOS>SUBSTRUCTURE
     1 3J0         1 TEMP              0 ****  ****    0 ROOT
