@<TRIPOS>MOLECULE
3J1
   41    44     1     0     0
SMALL
bcc


@<TRIPOS>ATOM
      1 C1         -0.0240    0.2760    0.1120 cc        1 3J1     -0.120300
      2 C2          1.3170   -0.1370   -0.0280 cd        1 3J1     -0.227300
      3 C3          1.6700   -0.6460    1.2860 cd        1 3J1      0.317200
      4 C7          3.7860    0.0540   -3.4750 ca        1 3J1     -0.161900
      5 C8          4.2050   -0.6660   -2.3500 ca        1 3J1     -0.087500
      6 C9          3.3940   -0.7290   -1.2220 ca        1 3J1     -0.138000
      7 C10         4.6500    0.1250   -4.6850 cc        1 3J1      0.550500
      8 C11         6.9000    0.5270   -5.5370 c         1 3J1      0.708100
      9 C12         6.3370    0.2840   -6.8770 ca        1 3J1     -0.190600
     10 C13         7.1640    0.3570   -8.0050 ca        1 3J1     -0.061000
     11 C14         6.6290    0.1270   -9.2630 ca        1 3J1     -0.154000
     12 C15         5.2700   -0.1780   -9.4050 ca        1 3J1     -0.070000
     13 C16         4.4280   -0.2570   -8.3010 ca        1 3J1     -0.080300
     14 O           8.0890    0.8030   -5.2960 o         1 3J1     -0.625500
     15 N2          5.9980    0.4320   -4.4630 ns        1 3J1     -0.493400
     16 C17         4.9550   -0.0220   -7.0000 ca        1 3J1      0.182400
     17 C18         2.9790   -0.5870   -8.4490 c3        1 3J1      0.182700
     18 O1          2.6790   -0.7770   -9.8270 oh        1 3J1     -0.609800
     19 N3          4.1200   -0.0960   -5.8770 nd        1 3J1     -0.627100
     20 C6          2.5460    0.7010   -3.4650 ca        1 3J1     -0.087500
     21 C5          1.7390    0.6390   -2.3330 ca        1 3J1     -0.138000
     22 C4          2.1500   -0.0740   -1.1950 ca        1 3J1      0.043000
     23 N1          0.6180   -0.5390    2.1320 nc        1 3J1     -0.505800
     24 N          -0.3930    0.0100    1.4320 na        1 3J1      0.090400
     25 C          -1.6960    0.2800    1.9880 c3        1 3J1      0.038600
     26 H1         -0.7120    0.7170   -0.6090 h4        1 3J1      0.178000
     27 H2          2.6270   -1.0590    1.6060 h4        1 3J1      0.046100
     28 H3          5.1680   -1.2000   -2.3540 ha        1 3J1      0.144500
     29 H4          3.7270   -1.3020   -0.3440 ha        1 3J1      0.137000
     30 H5          8.2310    0.5980   -7.8700 ha        1 3J1      0.158000
     31 H6          7.2700    0.1820  -10.1550 ha        1 3J1      0.141000
     32 H7          4.8540   -0.3620  -10.4100 ha        1 3J1      0.160000
     33 H8          6.3220    0.5990   -3.5370 hn        1 3J1      0.339500
     34 H9          2.3520    0.2560   -8.0440 h1        1 3J1      0.045200
     35 H10         2.7420   -1.5260   -7.8770 h1        1 3J1      0.045200
     36 H11         1.7490   -1.0270   -9.8640 ho        1 3J1      0.405000
     37 H12         2.2070    1.2580   -4.3530 ha        1 3J1      0.144500
     38 H13         0.7680    1.1560   -2.3310 ha        1 3J1      0.137000
     39 H14        -2.3350    0.7490    1.1960 h1        1 3J1      0.061033
     40 H15        -2.1710   -0.6750    2.3380 h1        1 3J1      0.061033
     41 H16        -1.6040    0.9810    2.8610 h1        1 3J1      0.061033
@<TRIPOS>BOND
     1    1    2 2   
     2    1   24 1   
     3    1   26 1   
     4    2    3 1   
     5    2   22 1   
     6    3   23 2   
     7    3   27 1   
     8    4    5 ar  
     9    4    7 1   
    10    4   20 ar  
    11    5    6 ar  
    12    5   28 1   
    13    6   22 ar  
    14    6   29 1   
    15    7   15 1   
    16    7   19 2   
    17    8    9 1   
    18    8   14 2   
    19    8   15 1   
    20    9   10 ar  
    21    9   16 ar  
    22   10   11 ar  
    23   10   30 1   
    24   11   12 ar  
    25   11   31 1   
    26   12   13 ar  
    27   12   32 1   
    28   13   16 ar  
    29   13   17 1   
    30   15   33 1   
    31   16   19 1   
    32   17   18 1   
    33   17   34 1   
    34   17   35 1   
    35   18   36 1   
    36   20   21 ar  
    37   20   37 1   
    38   21   22 ar  
    39   21   38 1   
    40   23   24 1   
    41   24   25 1   
    42   25   39 1   
    43   25   40 1   
    44   25   41 1   
@<TRIPOS>SUBSTRUCTURE
     1 3J1         1 TEMP              0 ****  ****    0 ROOT
