@<TRIPOS>MOLECULE
3J3
   48    49     1     0     0
SMALL
bcc


@<TRIPOS>ATOM
      1 O2          0.4560   -0.6640   -0.7560 oh        1 3J3     -0.592800
      2 C2          1.7610   -0.2550   -0.3870 c3        1 3J3      0.145100
      3 C3          1.9400   -0.3540    1.1380 c3        1 3J3      0.092100
      4 O3          3.3310   -0.2570    1.3900 oh        1 3J3     -0.599800
      5 C4          1.1350    0.7350    1.8680 c3        1 3J3      0.089100
      6 O4          1.5540    0.7950    3.2230 oh        1 3J3     -0.601800
      7 C5          1.3370    2.1350    1.2710 c3        1 3J3      0.117100
      8 C6          2.6880    2.7510    1.6400 c3        1 3J3      0.097400
      9 O6          2.8850    3.9820    0.9710 oh        1 3J3     -0.604800
     10 O5          1.1330    2.1100   -0.1390 os        1 3J3     -0.384600
     11 C1          1.9500    1.1910   -0.8480 c3        1 3J3     -0.019100
     12 SAY         1.5580    1.4740   -2.5550 s6        1 3J3      1.448900
     13 OAD         2.2070    0.4670   -3.2950 o         1 3J3     -0.623300
     14 OAE         0.1920    1.6630   -2.7710 o         1 3J3     -0.623300
     15 NAW         2.3410    2.8950   -2.8080 n3        1 3J3     -0.815500
     16 CAN         3.5480    3.0120   -3.5740 c3        1 3J3      0.224800
     17 CAL         3.4380    4.0510   -4.7010 c3        1 3J3     -0.124400
     18 CAM         1.8590    4.1330   -2.2550 c3        1 3J3      0.224800
     19 CAK         1.6860    5.2390   -3.3020 c3        1 3J3     -0.124400
     20 CAQ         2.9560    5.3750   -4.1300 c3        1 3J3      0.229100
     21 OAP         2.5870    6.2710   -5.2160 os        1 3J3     -0.611500
     22 SAX         3.4890    6.8840   -6.3600 s6        1 3J3      1.653400
     23 OAB         3.1000    8.1590   -6.6250 o         1 3J3     -0.566300
     24 OAC         4.7520    6.3780   -6.3270 o         1 3J3     -0.566300
     25 NAA         2.6990    5.9340   -7.7860 n4        1 3J3     -0.804500
     26 H1          0.4220   -1.6260   -0.6660 ho        1 3J3      0.423000
     27 H2          2.5370   -0.9010   -0.8910 h1        1 3J3      0.084700
     28 H3          1.5780   -1.3630    1.4880 h1        1 3J3      0.048700
     29 H4          3.4340   -0.0860    2.3380 ho        1 3J3      0.428000
     30 H5          0.0430    0.4720    1.7880 h1        1 3J3      0.076700
     31 H6          1.0990    0.0840    3.6910 ho        1 3J3      0.419000
     32 H7          0.5030    2.8120    1.6240 h1        1 3J3      0.089700
     33 H8          2.7360    2.8820    2.7540 h1        1 3J3      0.076200
     34 H9          3.5390    2.0990    1.3050 h1        1 3J3      0.076200
     35 H10         2.2270    4.5990    1.3120 ho        1 3J3      0.400000
     36 H11         3.0360    1.4210   -0.6350 h2        1 3J3      0.112700
     37 H12         4.4010    3.3190   -2.9000 h1        1 3J3      0.083450
     38 H13         3.8040    2.0120   -4.0330 h1        1 3J3      0.083450
     39 H14         2.7190    3.6890   -5.4810 hc        1 3J3      0.070450
     40 H15         4.4500    4.1690   -5.1700 hc        1 3J3      0.070450
     41 H16         0.8550    3.9460   -1.7690 h1        1 3J3      0.083450
     42 H17         0.8200    5.0070   -3.9760 hc        1 3J3      0.070450
     43 H18         3.7720    5.8890   -3.5500 h1        1 3J3      0.080700
     44 H19         2.2660    6.5720   -8.4560 hn        1 3J3      0.469133
     45 H20         3.3840    5.3710   -8.2900 hn        1 3J3      0.469133
     46 H21         2.5680    4.4890   -1.4490 h1        1 3J3      0.083450
     47 H22         1.4660    6.2050   -2.7800 hc        1 3J3      0.070450
     48 HAA3        1.9680    5.3050   -7.4520 hn        1 3J3      0.469133
@<TRIPOS>BOND
     1    1    2 1   
     2    1   26 1   
     3    2    3 1   
     4    2   11 1   
     5    2   27 1   
     6    3    4 1   
     7    3    5 1   
     8    3   28 1   
     9    4   29 1   
    10    5    6 1   
    11    5    7 1   
    12    5   30 1   
    13    6   31 1   
    14    7    8 1   
    15    7   10 1   
    16    7   32 1   
    17    8    9 1   
    18    8   33 1   
    19    8   34 1   
    20    9   35 1   
    21   10   11 1   
    22   11   12 1   
    23   11   36 1   
    24   12   13 2   
    25   12   14 2   
    26   12   15 1   
    27   15   16 1   
    28   15   18 1   
    29   16   17 1   
    30   16   37 1   
    31   16   38 1   
    32   17   20 1   
    33   17   39 1   
    34   17   40 1   
    35   18   19 1   
    36   18   41 1   
    37   18   46 1   
    38   19   20 1   
    39   19   42 1   
    40   19   47 1   
    41   20   21 1   
    42   20   43 1   
    43   21   22 1   
    44   22   23 2   
    45   22   24 2   
    46   22   25 1   
    47   25   44 1   
    48   25   45 1   
    49   25   48 1   
@<TRIPOS>SUBSTRUCTURE
     1 3J3         1 TEMP              0 ****  ****    0 ROOT
