@<TRIPOS>MOLECULE
3J3
   47    48     1     0     0
SMALL
bcc


@<TRIPOS>ATOM
      1 O2         -0.0190    1.4740   -0.6490 oh        1 3J3     -0.611800
      2 C2          0.9800    0.6080   -0.1310 c3        1 3J3      0.150100
      3 C3          1.0510    0.8510    1.3840 c3        1 3J3      0.143100
      4 O3          1.6300   -0.3150    1.9500 oh        1 3J3     -0.610800
      5 C4          1.8500    2.1150    1.7390 c3        1 3J3      0.096100
      6 O4          2.0790    2.0490    3.1390 oh        1 3J3     -0.615800
      7 C5          3.1500    2.2590    0.9390 c3        1 3J3      0.113100
      8 C6          4.2600    1.3190    1.4240 c3        1 3J3      0.089400
      9 O6          4.8920    1.9820    2.5100 oh        1 3J3     -0.616800
     10 O5          2.9200    2.0960   -0.4540 os        1 3J3     -0.375600
     11 C1          2.3240    0.8630   -0.8220 c3        1 3J3     -0.049100
     12 SAY         2.1900    0.8050   -2.6120 s6        1 3J3      1.433900
     13 OAD         3.3060    0.0580   -3.0400 o         1 3J3     -0.647300
     14 OAE         0.9150    0.2320   -2.8350 o         1 3J3     -0.647300
     15 NAW         2.2510    2.3110   -3.1520 n3        1 3J3     -0.803500
     16 CAN         3.4830    2.9290   -3.5840 c3        1 3J3      0.224800
     17 CAL         3.3460    3.7240   -4.8820 c3        1 3J3     -0.106400
     18 CAM         1.1140    3.2020   -3.0970 c3        1 3J3      0.224800
     19 CAK         0.9010    4.0010   -4.3800 c3        1 3J3     -0.106400
     20 CAQ         2.1900    4.7140   -4.7800 c3        1 3J3      0.213100
     21 OAP         2.0320    5.3110   -6.0510 os        1 3J3     -0.581500
     22 SAX         1.4540    6.8750   -6.2640 s6        1 3J3      1.720400
     23 OAB         0.8220    6.7980   -7.4950 o         1 3J3     -0.653300
     24 OAC         0.7460    7.1230   -5.0900 o         1 3J3     -0.653300
     25 NAA         2.7650    7.7660   -6.3320 n3        1 3J3     -1.037700
     26 H1         -0.5220    0.9640   -1.3010 ho        1 3J3      0.435000
     27 H2          0.7000   -0.4710   -0.3010 h1        1 3J3      0.081700
     28 H3          0.0030    0.9750    1.7820 h1        1 3J3      0.067700
     29 H4          1.7260   -0.1400    2.8970 ho        1 3J3      0.428000
     30 H5          1.2010    3.0120    1.5250 h1        1 3J3      0.070700
     31 H6          2.9240    2.4810    3.3280 ho        1 3J3      0.432000
     32 H7          3.5170    3.3260    1.0110 h1        1 3J3      0.094700
     33 H8          3.8300    0.3380    1.7620 h1        1 3J3      0.052200
     34 H9          4.9990    1.1450    0.5970 h1        1 3J3      0.052200
     35 H10         5.5330    1.3630    2.8770 ho        1 3J3      0.414000
     36 H11         3.0090    0.0230   -0.5020 h2        1 3J3      0.105700
     37 H12         3.8460    3.6230   -2.7690 h1        1 3J3      0.062450
     38 H13         4.2620    2.1260   -3.7350 h1        1 3J3      0.062450
     39 H14         3.1660    3.0390   -5.7510 hc        1 3J3      0.070200
     40 H15         4.3040    4.2710   -5.0710 hc        1 3J3      0.070200
     41 H16         0.1880    2.5910   -2.8850 h1        1 3J3      0.062450
     42 H17         0.5740    3.3310   -5.2160 hc        1 3J3      0.070200
     43 H18         2.4300    5.5150   -4.0220 h1        1 3J3      0.034700
     44 H19         3.2850    7.9170   -7.1620 hn        1 3J3      0.456300
     45 H20         3.1710    8.2170   -5.5490 hn        1 3J3      0.456300
     46 H21         1.2580    3.9220   -2.2380 h1        1 3J3      0.062450
     47 H22         0.0920    4.7580   -4.2020 hc        1 3J3      0.070200
@<TRIPOS>BOND
     1    1    2 1   
     2    1   26 1   
     3    2    3 1   
     4    2   11 1   
     5    2   27 1   
     6    3    4 1   
     7    3    5 1   
     8    3   28 1   
     9    4   29 1   
    10    5    6 1   
    11    5    7 1   
    12    5   30 1   
    13    6   31 1   
    14    7    8 1   
    15    7   10 1   
    16    7   32 1   
    17    8    9 1   
    18    8   33 1   
    19    8   34 1   
    20    9   35 1   
    21   10   11 1   
    22   11   12 1   
    23   11   36 1   
    24   12   13 2   
    25   12   14 2   
    26   12   15 1   
    27   15   16 1   
    28   15   18 1   
    29   16   17 1   
    30   16   37 1   
    31   16   38 1   
    32   17   20 1   
    33   17   39 1   
    34   17   40 1   
    35   18   19 1   
    36   18   41 1   
    37   18   46 1   
    38   19   20 1   
    39   19   42 1   
    40   19   47 1   
    41   20   21 1   
    42   20   43 1   
    43   21   22 1   
    44   22   23 2   
    45   22   24 2   
    46   22   25 1   
    47   25   44 1   
    48   25   45 1   
@<TRIPOS>SUBSTRUCTURE
     1 3J3         1 TEMP              0 ****  ****    0 ROOT
