@<TRIPOS>MOLECULE
3J3
   48    49     1     0     0
SMALL
bcc


@<TRIPOS>ATOM
      1 O2          0.4790   -0.6780   -0.7650 oh        1 3J3     -0.592800
      2 C2          1.7780   -0.2570   -0.3850 c3        1 3J3      0.145100
      3 C3          1.9440   -0.3510    1.1410 c3        1 3J3      0.092100
      4 O3          3.3320   -0.2420    1.4060 oh        1 3J3     -0.599800
      5 C4          1.1230    0.7320    1.8620 c3        1 3J3      0.089100
      6 O4          1.5290    0.7980    3.2210 oh        1 3J3     -0.601800
      7 C5          1.3180    2.1330    1.2650 c3        1 3J3      0.117100
      8 C6          2.6600    2.7610    1.6440 c3        1 3J3      0.097400
      9 O6          2.8530    3.9920    0.9750 oh        1 3J3     -0.604800
     10 O5          1.1270    2.1030   -0.1470 os        1 3J3     -0.384600
     11 C1          1.9580    1.1900   -0.8480 c3        1 3J3     -0.019100
     12 SAY         1.5770    1.4670   -2.5590 s6        1 3J3      1.448900
     13 OAD         2.2420    0.4650   -3.2910 o         1 3J3     -0.623300
     14 OAE         0.2120    1.6440   -2.7870 o         1 3J3     -0.623300
     15 NAW         2.3500    2.8940   -2.8070 n3        1 3J3     -0.815500
     16 CAN         3.5620    3.0220   -3.5640 c3        1 3J3      0.225300
     17 CAL         3.4510    4.0580   -4.6940 c3        1 3J3     -0.124900
     18 CAM         1.8530    4.1290   -2.2600 c3        1 3J3      0.225300
     19 CAK         1.6770    5.2320   -3.3100 c3        1 3J3     -0.124900
     20 CAQ         2.9530    5.3770   -4.1280 c3        1 3J3      0.229100
     21 OAP         2.5830    6.2680   -5.2190 os        1 3J3     -0.611500
     22 SAX         3.4880    6.8860   -6.3600 s6        1 3J3      1.653400
     23 OAB         3.0880    8.1560   -6.6310 o         1 3J3     -0.566300
     24 OAC         4.7550    6.3920   -6.3160 o         1 3J3     -0.566300
     25 NAA         2.7150    5.9240   -7.7870 nz        1 3J3     -0.804500
     26 H1          0.4530   -1.6390   -0.6730 ho        1 3J3      0.423000
     27 H2          2.5640   -0.8960   -0.8820 h1        1 3J3      0.084700
     28 H3          1.5870   -1.3630    1.4900 h1        1 3J3      0.048700
     29 H4          3.4250   -0.0680    2.3540 ho        1 3J3      0.428000
     30 H5          0.0340    0.4590    1.7730 h1        1 3J3      0.076700
     31 H6          1.0770    0.0830    3.6860 ho        1 3J3      0.419000
     32 H7          0.4750    2.8020    1.6090 h1        1 3J3      0.089700
     33 H8          2.6980    2.8940    2.7580 h1        1 3J3      0.076200
     34 H9          3.5200    2.1150    1.3170 h1        1 3J3      0.076200
     35 H10         2.1860    4.6040    1.3090 ho        1 3J3      0.400000
     36 H11         3.0400    1.4300   -0.6260 h2        1 3J3      0.112700
     37 H12         3.8300    2.0230   -4.0190 h1        1 3J3      0.083450
     38 H13         4.4070    3.3370   -2.8840 h1        1 3J3      0.083450
     39 H14         2.7420    3.6880   -5.4790 hc        1 3J3      0.070450
     40 H15         4.4650    4.1830   -5.1550 hc        1 3J3      0.070450
     41 H16         2.5530    4.4930   -1.4490 h1        1 3J3      0.083450
     42 H17         1.4450    6.1970   -2.7920 hc        1 3J3      0.070450
     43 H18         3.7600    5.9000   -3.5430 h1        1 3J3      0.080700
     44 H19         3.4090    5.3650   -8.2850 hn        1 3J3      0.469133
     45 H20         2.2810    6.5550   -8.4620 hn        1 3J3      0.469133
     46 H21         0.8470    3.9340   -1.7810 h1        1 3J3      0.083450
     47 H22         0.8190    4.9910   -3.9900 hc        1 3J3      0.070450
     48 HAA3        1.9890    5.2880   -7.4550 hn        1 3J3      0.469133
@<TRIPOS>BOND
     1    1    2 1   
     2    1   26 1   
     3    2    3 1   
     4    2   11 1   
     5    2   27 1   
     6    3    4 1   
     7    3    5 1   
     8    3   28 1   
     9    4   29 1   
    10    5    6 1   
    11    5    7 1   
    12    5   30 1   
    13    6   31 1   
    14    7    8 1   
    15    7   10 1   
    16    7   32 1   
    17    8    9 1   
    18    8   33 1   
    19    8   34 1   
    20    9   35 1   
    21   10   11 1   
    22   11   12 1   
    23   11   36 1   
    24   12   13 2   
    25   12   14 2   
    26   12   15 1   
    27   15   16 1   
    28   15   18 1   
    29   16   17 1   
    30   16   37 1   
    31   16   38 1   
    32   17   20 1   
    33   17   39 1   
    34   17   40 1   
    35   18   19 1   
    36   18   41 1   
    37   18   46 1   
    38   19   20 1   
    39   19   42 1   
    40   19   47 1   
    41   20   21 1   
    42   20   43 1   
    43   21   22 1   
    44   22   23 2   
    45   22   24 2   
    46   22   25 1   
    47   25   44 1   
    48   25   45 1   
    49   25   48 1   
@<TRIPOS>SUBSTRUCTURE
     1 3J3         1 TEMP              0 ****  ****    0 ROOT
