@<TRIPOS>MOLECULE
3J4
   45    46     1     0     0
SMALL
bcc


@<TRIPOS>ATOM
      1 C4          0.3240    0.6730    1.5580 c3        1 3J4      0.084100
      2 C5          1.6810    0.6030    0.8450 c3        1 3J4      0.080100
      3 C6          1.5490    0.1700   -0.6170 c3        1 3J4      0.101400
      4 OAO         7.4570   -1.3160    2.2660 os        1 3J4     -0.620500
      5 SAW         7.1860    0.2200    2.6120 s6        1 3J4      1.669400
      6 OAB         8.3630    0.7210    3.0820 o         1 3J4     -0.572800
      7 OAC         6.3560    0.8150    1.7100 o         1 3J4     -0.572800
      8 NAA         6.1780    0.0350    4.1290 nz        1 3J4     -0.819500
      9 O2          1.0160   -1.1080    3.8620 oh        1 3J4     -0.615800
     10 C2          0.7860   -1.5940    2.5510 c3        1 3J4      0.144100
     11 C3         -0.2450   -0.7350    1.8040 c3        1 3J4      0.124100
     12 O3         -1.3770   -0.6650    2.6520 oh        1 3J4     -0.600800
     13 O4         -0.6340    1.3520    0.7660 oh        1 3J4     -0.592800
     14 O6          2.8170    0.0470   -1.2250 oh        1 3J4     -0.600800
     15 O5          2.5870   -0.2290    1.5710 os        1 3J4     -0.391600
     16 C1          2.1320   -1.5520    1.8140 c3        1 3J4     -0.019100
     17 SAX         3.4090   -2.3250    2.7570 s6        1 3J4      1.480900
     18 OAD         4.0120   -1.4380    3.6890 o         1 3J4     -0.665300
     19 OAE         2.9060   -3.5140    3.2760 o         1 3J4     -0.665300
     20 NAV         4.5720   -2.5990    1.6500 n3        1 3J4     -0.839500
     21 CAM         5.8480   -3.1270    2.0950 c3        1 3J4      0.174800
     22 CAL         4.7430   -2.0570    0.3130 c3        1 3J4      0.210800
     23 CAK         6.2480   -1.7590    0.1190 c3        1 3J4     -0.148400
     24 CAP         6.9420   -2.3070    1.3690 c3        1 3J4      0.227100
     25 H1          0.4580    1.1830    2.5540 h1        1 3J4      0.075700
     26 H2          0.9000    0.9090   -1.1580 h1        1 3J4      0.072200
     27 H3          6.0720   -0.9480    4.4140 hn        1 3J4      0.487133
     28 H4          5.2040    0.3520    3.9870 hn        1 3J4      0.487133
     29 H5          0.1530   -1.0570    4.3020 ho        1 3J4      0.454000
     30 H6          0.4180   -2.6600    2.6050 h1        1 3J4      0.091700
     31 H7         -0.5230   -1.2160    0.8270 h1        1 3J4      0.068700
     32 H8         -2.0250   -0.1000    2.2080 ho        1 3J4      0.440000
     33 H9         -0.4560    2.2970    0.8460 ho        1 3J4      0.419000
     34 H10         3.1640    0.9380   -1.3590 ho        1 3J4      0.409000
     35 H11         1.9700   -2.0750    0.8270 h2        1 3J4      0.112700
     36 H12         5.9530   -3.0590    3.2120 h1        1 3J4      0.084700
     37 H13         5.9520   -4.2080    1.7900 h1        1 3J4      0.084700
     38 H14         4.1320   -1.1180    0.1720 h1        1 3J4      0.090200
     39 H15         4.4050   -2.8160   -0.4460 h1        1 3J4      0.090200
     40 H16         6.6310   -2.2960   -0.7860 hc        1 3J4      0.093200
     41 H17         6.4240   -0.6670   -0.0350 hc        1 3J4      0.093200
     42 H18         7.8620   -2.9180    1.1450 h1        1 3J4      0.129700
     43 H19         2.1940    1.6080    0.8950 h1        1 3J4      0.084700
     44 H20         1.0900   -0.8510   -0.7020 h1        1 3J4      0.072200
     45 HAA3        6.5620    0.5410    4.9260 hn        1 3J4      0.487133
@<TRIPOS>BOND
     1    1    2 1   
     2    1   11 1   
     3    1   13 1   
     4    1   25 1   
     5    2    3 1   
     6    2   15 1   
     7    2   43 1   
     8    3   14 1   
     9    3   26 1   
    10    3   44 1   
    11    4    5 1   
    12    4   24 1   
    13    5    6 2   
    14    5    7 2   
    15    5    8 1   
    16    8   27 1   
    17    8   28 1   
    18    8   45 1   
    19    9   10 1   
    20    9   29 1   
    21   10   11 1   
    22   10   16 1   
    23   10   30 1   
    24   11   12 1   
    25   11   31 1   
    26   12   32 1   
    27   13   33 1   
    28   14   34 1   
    29   15   16 1   
    30   16   17 1   
    31   16   35 1   
    32   17   18 2   
    33   17   19 2   
    34   17   20 1   
    35   20   21 1   
    36   20   22 1   
    37   21   24 1   
    38   21   36 1   
    39   21   37 1   
    40   22   23 1   
    41   22   38 1   
    42   22   39 1   
    43   23   24 1   
    44   23   40 1   
    45   23   41 1   
    46   24   42 1   
@<TRIPOS>SUBSTRUCTURE
     1 3J4         1 TEMP              0 ****  ****    0 ROOT
