@<TRIPOS>MOLECULE
3J4
   44    45     1     0     0
SMALL
bcc


@<TRIPOS>ATOM
      1 C4         -0.4460   -0.0040    0.3820 c3        1 3J4      0.089100
      2 C5          1.0380    0.3410    0.2190 c3        1 3J4      0.111100
      3 C6          1.7060   -0.4520   -0.9110 c3        1 3J4      0.097400
      4 OAO         7.3050   -1.8940    3.1740 os        1 3J4     -0.584500
      5 SAW         8.8240   -2.5030    2.7600 s6        1 3J4      1.725400
      6 OAB         8.9470   -3.5980    3.6000 o         1 3J4     -0.653800
      7 OAC         8.7460   -2.6550    1.3780 o         1 3J4     -0.653800
      8 NAA         9.8200   -1.3390    3.1570 n3        1 3J4     -1.033700
      9 O2         -0.3480   -0.5630    3.3290 oh        1 3J4     -0.591800
     10 C2          0.1660   -1.4510    2.3530 c3        1 3J4      0.145100
     11 C3         -0.6400   -1.3770    1.0470 c3        1 3J4      0.113100
     12 O3         -1.9980   -1.5740    1.4050 oh        1 3J4     -0.606800
     13 O4         -1.1380   -0.0600   -0.8550 oh        1 3J4     -0.615800
     14 O6          1.4330    0.2640   -2.1070 oh        1 3J4     -0.610800
     15 O5          1.7580    0.1900    1.4340 os        1 3J4     -0.369600
     16 C1          1.6190   -1.0660    2.0760 c3        1 3J4     -0.014100
     17 SAX         2.6100   -0.9500    3.5810 s6        1 3J4      1.462900
     18 OAD         2.3330    0.2200    4.2900 o         1 3J4     -0.623800
     19 OAE         2.4020   -2.1870    4.2180 o         1 3J4     -0.623800
     20 NAV         4.0950   -0.8870    2.9580 n3        1 3J4     -0.836500
     21 CAM         4.9550   -2.0280    2.7470 c3        1 3J4      0.223800
     22 CAL         4.7530    0.3470    2.5770 c3        1 3J4      0.229800
     23 CAK         6.2030    0.0250    2.1900 c3        1 3J4     -0.111400
     24 CAP         6.3280   -1.5060    2.2420 c3        1 3J4      0.196100
     25 H1         -0.9340    0.7810    1.0300 h1        1 3J4      0.079700
     26 H2          1.2870   -1.4900   -0.9780 h1        1 3J4      0.039200
     27 H3         10.1110   -0.6220    2.5390 hn        1 3J4      0.459300
     28 H4         10.1920   -1.2210    4.0680 hn        1 3J4      0.459300
     29 H5         -1.2980   -0.7390    3.3960 ho        1 3J4      0.434000
     30 H6          0.1300   -2.5050    2.7550 h1        1 3J4      0.076700
     31 H7         -0.3200   -2.1950    0.3450 h1        1 3J4      0.051700
     32 H8         -2.5270   -1.3520    0.6270 ho        1 3J4      0.431000
     33 H9         -0.6760    0.5110   -1.4850 ho        1 3J4      0.432000
     34 H10         1.7620   -0.2740   -2.8360 ho        1 3J4      0.413000
     35 H11         2.0330   -1.8710    1.4040 h2        1 3J4      0.075700
     36 H12         5.0900   -2.6040    3.7050 h1        1 3J4      0.064200
     37 H13         4.5060   -2.7110    1.9720 h1        1 3J4      0.064200
     38 H14         4.2030    0.8090    1.7070 h1        1 3J4      0.059700
     39 H15         4.7220    1.0730    3.4370 h1        1 3J4      0.059700
     40 H16         6.9110    0.4990    2.9120 hc        1 3J4      0.061200
     41 H17         6.4290    0.4050    1.1650 hc        1 3J4      0.061200
     42 H18         6.5670   -1.9360    1.2300 h1        1 3J4      0.073700
     43 H19         1.1420    1.4460   -0.0000 h1        1 3J4      0.102700
     44 H20         2.8130   -0.5040   -0.7380 h1        1 3J4      0.039200
@<TRIPOS>BOND
     1    1    2 1   
     2    1   11 1   
     3    1   13 1   
     4    1   25 1   
     5    2    3 1   
     6    2   15 1   
     7    2   43 1   
     8    3   14 1   
     9    3   26 1   
    10    3   44 1   
    11    4    5 1   
    12    4   24 1   
    13    5    6 2   
    14    5    7 2   
    15    5    8 1   
    16    8   27 1   
    17    8   28 1   
    18    9   10 1   
    19    9   29 1   
    20   10   11 1   
    21   10   16 1   
    22   10   30 1   
    23   11   12 1   
    24   11   31 1   
    25   12   32 1   
    26   13   33 1   
    27   14   34 1   
    28   15   16 1   
    29   16   17 1   
    30   16   35 1   
    31   17   18 2   
    32   17   19 2   
    33   17   20 1   
    34   20   21 1   
    35   20   22 1   
    36   21   24 1   
    37   21   36 1   
    38   21   37 1   
    39   22   23 1   
    40   22   38 1   
    41   22   39 1   
    42   23   24 1   
    43   23   40 1   
    44   23   41 1   
    45   24   42 1   
@<TRIPOS>SUBSTRUCTURE
     1 3J4         1 TEMP              0 ****  ****    0 ROOT
