@<TRIPOS>MOLECULE
3J4
   45    46     1     0     0
SMALL
bcc


@<TRIPOS>ATOM
      1 C4         -0.0120   -0.2530    0.0970 c3        1 3J4      0.094100
      2 C5          1.5040   -0.0410    0.2140 c3        1 3J4      0.109100
      3 C6          2.3020   -1.0590   -0.6000 c3        1 3J4      0.105400
      4 OAO         6.9960   -1.7990    2.3740 os        1 3J4     -0.599500
      5 SAW         8.2200   -2.1460    1.4110 s6        1 3J4      1.650400
      6 OAB         8.7260   -3.3660    1.7250 o         1 3J4     -0.558800
      7 OAC         8.0470   -1.5880    0.1830 o         1 3J4     -0.558800
      8 NAA         9.4490   -0.9880    2.2340 n4        1 3J4     -0.804500
      9 O2         -0.6300   -0.3220    3.0700 oh        1 3J4     -0.580800
     10 C2          0.0320   -1.3570    2.3750 c3        1 3J4      0.112100
     11 C3         -0.4940   -1.4530    0.9330 c3        1 3J4      0.081100
     12 O3         -1.9030   -1.5110    0.8920 oh        1 3J4     -0.585800
     13 O4         -0.3040   -0.4470   -1.2750 oh        1 3J4     -0.598800
     14 O6          3.6970   -0.8360   -0.4750 oh        1 3J4     -0.629800
     15 O5          1.8970   -0.0140    1.5860 os        1 3J4     -0.399600
     16 C1          1.5490   -1.1710    2.3350 c3        1 3J4     -0.075100
     17 SAX         2.3220   -0.9630    3.9340 s6        1 3J4      1.451900
     18 OAD         1.8880    0.2320    4.5050 o         1 3J4     -0.608300
     19 OAE         2.1130   -2.1820    4.5910 o         1 3J4     -0.608300
     20 NAV         3.8950   -0.8370    3.5140 n3        1 3J4     -0.804500
     21 CAM         4.7020   -1.9290    3.0300 c3        1 3J4      0.233800
     22 CAL         4.5300    0.4320    3.2180 c3        1 3J4      0.227800
     23 CAK         5.5940    0.1880    2.1300 c3        1 3J4     -0.113400
     24 CAP         5.6870   -1.3330    1.9860 c3        1 3J4      0.190100
     25 H1         -0.5380    0.6760    0.4630 h1        1 3J4      0.055700
     26 H2          1.9790   -0.9990   -1.6740 h1        1 3J4      0.074700
     27 H3          9.8080   -0.2900    1.5810 hn        1 3J4      0.472133
     28 H4         10.2480   -1.5050    2.6080 hn        1 3J4      0.472133
     29 H5         -0.2520    0.5230    2.7860 ho        1 3J4      0.422000
     30 H6         -0.2390   -2.2940    2.9430 h1        1 3J4      0.118700
     31 H7         -0.1510   -2.4140    0.4560 h1        1 3J4      0.091700
     32 H8         -2.2450   -0.8960    1.5590 ho        1 3J4      0.428000
     33 H9         -1.2360   -0.7090   -1.3240 ho        1 3J4      0.437000
     34 H10         3.8940   -0.0170   -0.9450 ho        1 3J4      0.407000
     35 H11         1.9690   -2.0900    1.8360 h2        1 3J4      0.087700
     36 H12         4.0630   -2.7200    2.5500 h1        1 3J4      0.081200
     37 H13         5.2830   -2.3980    3.8750 h1        1 3J4      0.081200
     38 H14         3.7570    1.1710    2.8610 h1        1 3J4      0.078200
     39 H15         5.0130    0.8410    4.1490 h1        1 3J4      0.078200
     40 H16         5.2680    0.6360    1.1570 hc        1 3J4      0.067700
     41 H17         6.5700    0.6370    2.4290 hc        1 3J4      0.067700
     42 H18         5.4720   -1.6810    0.9400 h1        1 3J4      0.107700
     43 H19         1.7630    1.0020   -0.1330 h1        1 3J4      0.092700
     44 H20         2.1440   -2.1050   -0.2260 h1        1 3J4      0.074700
     45 HAA3        9.0210   -0.4880    3.0150 hn        1 3J4      0.472133
@<TRIPOS>BOND
     1    1    2 1   
     2    1   11 1   
     3    1   13 1   
     4    1   25 1   
     5    2    3 1   
     6    2   15 1   
     7    2   43 1   
     8    3   14 1   
     9    3   26 1   
    10    3   44 1   
    11    4    5 1   
    12    4   24 1   
    13    5    6 2   
    14    5    7 2   
    15    5    8 1   
    16    8   27 1   
    17    8   28 1   
    18    8   45 1   
    19    9   10 1   
    20    9   29 1   
    21   10   11 1   
    22   10   16 1   
    23   10   30 1   
    24   11   12 1   
    25   11   31 1   
    26   12   32 1   
    27   13   33 1   
    28   14   34 1   
    29   15   16 1   
    30   16   17 1   
    31   16   35 1   
    32   17   18 2   
    33   17   19 2   
    34   17   20 1   
    35   20   21 1   
    36   20   22 1   
    37   21   24 1   
    38   21   36 1   
    39   21   37 1   
    40   22   23 1   
    41   22   38 1   
    42   22   39 1   
    43   23   24 1   
    44   23   40 1   
    45   23   41 1   
    46   24   42 1   
@<TRIPOS>SUBSTRUCTURE
     1 3J4         1 TEMP              0 ****  ****    0 ROOT
