@<TRIPOS>MOLECULE
3J5
   63    63     1     0     0
SMALL
bcc


@<TRIPOS>ATOM
      1 C1         -0.9100   -0.6110    0.7150 c3        1 3J5      0.034000
      2 C2          0.4250   -0.3250    1.1550 c1        1 3J5     -0.184000
      3 C3          1.5550   -0.0840    1.4880 c1        1 3J5     -0.078000
      4 C7         -3.8410    0.6440    0.8790 c2        1 3J5     -0.202000
      5 C8         -5.1090    0.7230    0.4140 c2        1 3J5     -0.068000
      6 C9         -5.9850   -0.4790    0.4020 c3        1 3J5     -0.112000
      7 C10        -5.4660   -1.6630    1.1030 c1        1 3J5     -0.119000
      8 C11        -4.1060   -1.7090    1.4580 c2        1 3J5     -0.232000
      9 C12        -7.4320   -0.1770    0.8030 c2        1 3J5      0.178000
     10 C13        -9.3860   -0.8780    2.0630 c2        1 3J5      0.325000
     11 C14       -10.0340    0.3200    1.5320 c2        1 3J5     -0.255000
     12 C15       -11.7980    2.9250    3.1490 c1        1 3J5     -0.160000
     13 C16       -11.3640    3.0010    2.0340 c1        1 3J5     -0.160000
     14 C19        -9.3470    1.1560    0.6860 c2        1 3J5      0.064000
     15 C21         7.4970   -0.3290   -0.9120 c3        1 3J5     -0.193500
     16 C22         7.9140   -0.1640    0.5150 cx        1 3J5     -0.130500
     17 C24         3.2860    0.7780    2.7630 c2        1 3J5     -0.083000
     18 O          -9.9130   -1.7080    2.8240 o         1 3J5     -0.344000
     19 N1         -8.0490   -1.0780    1.6560 n         1 3J5     -0.295000
     20 C18        -9.9800    2.3490    0.1140 c2        1 3J5     -0.113000
     21 O1         -7.0690    2.1480   -2.2670 oh        1 3J5     -0.135000
     22 C17       -10.8780    3.1380    0.7270 c2        1 3J5     -0.018000
     23 N2         -8.0270    0.9050    0.2990 n2        1 3J5     -0.265000
     24 C6         -3.3130   -0.5890    1.4080 c2        1 3J5      0.067000
     25 C5         -1.8980   -0.6120    1.9080 c3        1 3J5      0.001000
     26 C          -0.9740   -1.9460   -0.0110 c3        1 3J5     -0.215000
     27 C4         -1.6440    0.5140    2.7910 c1        1 3J5     -0.138000
     28 N          -1.4300    1.4000    3.5120 n1        1 3J5     -0.028000
     29 N3          2.8640    0.1170    1.7450 n2        1 3J5     -0.073000
     30 C23         6.8890   -0.0270    1.6050 cx        1 3J5     -0.130500
     31 C25         7.0570    0.9320    2.7420 c3        1 3J5     -0.193500
     32 N4          7.7630   -1.2020    1.5340 n3        1 3J5     -0.185000
     33 C26         7.1840   -2.4690    1.1940 c3        1 3J5     -0.147000
     34 H1         -1.2290    0.2090    0.0020 hc        1 3J5      0.121000
     35 H2         -3.1780    1.5260    0.8670 ha        1 3J5      0.157000
     36 H3         -5.4980    1.6600   -0.0300 ha        1 3J5      0.193000
     37 H4         -6.0300   -0.8280   -0.6920 hc        1 3J5      0.200000
     38 H5         -3.7140   -2.6620    1.8510 ha        1 3J5      0.155000
     39 H6        -11.0710    0.5010    1.8450 ha        1 3J5      0.177000
     40 H7        -12.1780    2.8500    4.1360 ha        1 3J5      0.231000
     41 H8         -9.6680    2.5980   -0.9160 ha        1 3J5      0.127000
     42 H9         -7.4850    3.5060   -0.7710 ha        1 3J5      0.017000
     43 H10         7.5220    0.6650   -1.4210 hc        1 3J5      0.081500
     44 H11         8.2000   -1.0180   -1.4410 hc        1 3J5      0.081500
     45 H12         6.4630   -0.7420   -1.0000 hc        1 3J5      0.081500
     46 H13         8.8790    0.3890    0.6080 h1        1 3J5      0.127000
     47 H14         5.8150   -0.1520    1.3220 h1        1 3J5      0.127000
     48 H15         2.6760    1.2600    3.5490 h4        1 3J5      0.133000
     49 H16        -7.5440   -1.8950    1.9550 hn        1 3J5      0.289000
     50 H17        -8.0370    2.0620   -2.4270 ho        1 3J5      0.150000
     51 H18       -11.2930    4.0070    0.1770 ha        1 3J5      0.143000
     52 H19        -2.0290   -2.1710   -0.3000 hc        1 3J5      0.089667
     53 H20        -0.5970   -2.7700    0.6420 hc        1 3J5      0.089667
     54 H21        -0.3440   -1.9070   -0.9310 hc        1 3J5      0.089667
     55 H22        -1.7260   -1.5600    2.5030 hc        1 3J5      0.141000
     56 H23         4.3870    0.8740    2.8610 h4        1 3J5      0.133000
     57 H24         6.5850    0.5210    3.6680 hc        1 3J5      0.081500
     58 H25         6.5620    1.8990    2.4820 hc        1 3J5      0.081500
     59 H26         8.1350    1.1320    2.9590 hc        1 3J5      0.081500
     60 H28         6.2900   -2.4140    0.5140 h1        1 3J5      0.080333
     61 H29         7.9710   -3.0950    0.6950 h1        1 3J5      0.080333
     62 H30         6.8720   -2.9700    2.1490 h1        1 3J5      0.080333
     63 C20        -6.7050    2.9390   -1.3290 c1        1 3J5     -0.030000
@<TRIPOS>BOND
     1    1    2 1   
     2    1   25 1   
     3    1   26 1   
     4    1   34 1   
     5    2    3 1   
     6    3   29 1   
     7    4    5 1   
     8    4   24 1   
     9    4   35 1   
    10    5    6 1   
    11    5   36 1   
    12    6    7 1   
    13    6    9 1   
    14    6   37 1   
    15    7    8 1   
    16    8   24 1   
    17    8   38 1   
    18    9   19 1   
    19    9   23 1   
    20   10   11 1   
    21   10   18 1   
    22   10   19 1   
    23   11   14 1   
    24   11   39 1   
    25   12   13 1   
    26   12   40 1   
    27   13   22 1   
    28   14   20 1   
    29   14   23 1   
    30   15   16 1   
    31   15   43 1   
    32   15   44 1   
    33   15   45 1   
    34   16   30 1   
    35   16   32 1   
    36   16   46 1   
    37   17   29 1   
    38   17   48 1   
    39   17   56 1   
    40   19   49 1   
    41   20   22 1   
    42   20   41 1   
    43   21   50 1   
    44   21   63 1   
    45   22   51 1   
    46   24   25 1   
    47   25   27 1   
    48   25   55 1   
    49   26   52 1   
    50   26   53 1   
    51   26   54 1   
    52   27   28 1   
    53   30   31 1   
    54   30   32 1   
    55   30   47 1   
    56   31   57 1   
    57   31   58 1   
    58   31   59 1   
    59   32   33 1   
    60   33   60 1   
    61   33   61 1   
    62   33   62 1   
    63   42   63 1   
@<TRIPOS>SUBSTRUCTURE
     1 3J5         1 TEMP              0 ****  ****    0 ROOT
