@<TRIPOS>MOLECULE
3J5
   63    63     1     0     0
SMALL
bcc


@<TRIPOS>ATOM
      1 C1          1.5570    1.7850   -1.8370 c2        1 3J5     -0.063000
      2 C2          1.6870    1.1290   -0.7220 c1        1 3J5     -0.171000
      3 C3          1.8530    0.4640    0.4110 c2        1 3J5      0.089000
      4 C7         -3.5260    2.3680    2.0360 ca        1 3J5     -0.139500
      5 C8         -4.8260    1.8780    1.9770 ca        1 3J5     -0.091500
      6 C9         -5.0500    0.5210    1.7120 ca        1 3J5     -0.091000
      7 C10        -3.9660   -0.3370    1.4980 ca        1 3J5     -0.091500
      8 C11        -2.6670    0.1580    1.5520 ca        1 3J5     -0.139500
      9 C12        -6.4430    0.0010    1.6560 c2        1 3J5      0.175000
     10 C13        -7.9990   -1.7340    2.3540 c2        1 3J5      0.329000
     11 C14        -9.0030   -0.9970    1.5910 c2        1 3J5     -0.258000
     12 C15       -12.3300   -0.0950    2.3040 c1        1 3J5     -0.178000
     13 C16       -11.6760    0.3990    1.4280 c1        1 3J5     -0.152000
     14 C19        -8.6630    0.1640    0.9370 c2        1 3J5      0.075000
     15 C21         2.3820   -1.8730    0.6550 c3        1 3J5     -0.140000
     16 C22         5.1180   -3.3020    1.6710 c1        1 3J5     -0.180000
     17 C24         3.9100   -0.1590    1.4950 c3        1 3J5     -0.076000
     18 O          -8.1910   -2.7890    2.9850 o         1 3J5     -0.349000
     19 N1         -6.7020   -1.1730    2.3590 ns        1 3J5     -0.317000
     20 C18        -9.6380    0.9310    0.1570 c2        1 3J5     -0.115000
     21 O1         -6.8520    2.2080   -1.6030 oh        1 3J5     -0.138000
     22 C17       -10.9590    1.0090    0.3900 c2        1 3J5     -0.027000
     23 N2         -7.3570    0.6670    0.9550 n2        1 3J5     -0.238000
     24 C6         -2.4290    1.5150    1.8230 ca        1 3J5      0.024000
     25 C5         -1.0890    2.0560    1.8870 c2        1 3J5     -0.192000
     26 C           0.7050    1.3560   -2.9670 c3        1 3J5     -0.187000
     27 C4          0.0050    1.3610    1.6290 c1        1 3J5      0.036000
     28 N           1.0440    0.6960    1.5720 n2        1 3J5     -0.119000
     29 N3          2.9000   -0.5280    0.5090 n3        1 3J5     -0.188000
     30 C23         5.2450   -0.9390    1.3130 c3        1 3J5      0.007000
     31 C25         6.4020    0.0360    1.5220 c3        1 3J5     -0.228000
     32 N4          5.3320   -2.1200    2.1850 n3        1 3J5     -0.149000
     33 C26         5.6620   -1.8560    3.5710 c3        1 3J5     -0.163000
     34 H1          2.1050    2.7360   -1.9860 ha        1 3J5      0.142000
     35 H2         -3.3540    3.4340    2.2510 ha        1 3J5      0.143500
     36 H3         -5.6780    2.5570    2.1420 ha        1 3J5      0.147000
     37 H4         -4.1310   -1.4020    1.2720 ha        1 3J5      0.147000
     38 H5         -1.8170   -0.5220    1.3840 ha        1 3J5      0.143500
     39 H6        -10.0180   -1.4170    1.5800 ha        1 3J5      0.181000
     40 H7        -12.9020   -0.5360    3.0800 ha        1 3J5      0.228000
     41 H8         -9.2140    1.5080   -0.6930 ha        1 3J5      0.170000
     42 H9         -7.0330    3.3460    0.1060 ha        1 3J5      0.007000
     43 H10         1.5820   -2.0420   -0.1120 h1        1 3J5      0.091333
     44 H11         1.9520   -2.0780    1.6730 h1        1 3J5      0.091333
     45 H12         3.2280   -2.5920    0.4640 h1        1 3J5      0.091333
     46 H13         5.1940   -4.1630    2.3690 ha        1 3J5      0.044000
     47 H14         5.3060   -1.3280    0.2490 h1        1 3J5      0.151000
     48 H15         3.5330   -0.2830    2.5510 h1        1 3J5      0.087000
     49 H16        -5.9760   -1.6150    2.8770 hn        1 3J5      0.253000
     50 H17        -6.0500    1.7920   -1.2150 ho        1 3J5      0.156000
     51 H18       -11.5820    1.6280   -0.2890 ha        1 3J5      0.149000
     52 H19        -0.0630    2.1420   -3.1810 hc        1 3J5      0.091667
     53 H20         1.3360    1.2200   -3.8810 hc        1 3J5      0.091667
     54 H21         0.1790    0.3940   -2.7540 hc        1 3J5      0.091667
     55 H22        -0.9850    3.1150    2.1830 ha        1 3J5      0.164000
     56 H23         4.1320    0.9370    1.3460 h1        1 3J5      0.087000
     57 H24         6.3300    0.5470    2.5120 hc        1 3J5      0.085333
     58 H25         7.3850   -0.4910    1.4620 hc        1 3J5      0.085333
     59 H26         6.3680    0.8100    0.7170 hc        1 3J5      0.085333
     60 H28         5.0130   -1.0400    3.9840 h1        1 3J5      0.088667
     61 H29         5.5100   -2.7840    4.1830 h1        1 3J5      0.088667
     62 H30         6.7350   -1.5380    3.6590 h1        1 3J5      0.088667
     63 C20        -7.4580    3.0830   -0.8910 c1        1 3J5     -0.026000
@<TRIPOS>BOND
     1    1    2 1   
     2    1   26 1   
     3    1   34 1   
     4    2    3 1   
     5    3   28 1   
     6    3   29 1   
     7    4    5 1   
     8    4   24 1   
     9    4   35 1   
    10    5    6 1   
    11    5   36 1   
    12    6    7 1   
    13    6    9 1   
    14    7    8 1   
    15    7   37 1   
    16    8   24 1   
    17    8   38 1   
    18    9   19 1   
    19    9   23 1   
    20   10   11 1   
    21   10   18 1   
    22   10   19 1   
    23   11   14 1   
    24   11   39 1   
    25   12   13 1   
    26   12   40 1   
    27   13   22 1   
    28   14   20 1   
    29   14   23 1   
    30   15   29 1   
    31   15   43 1   
    32   15   44 1   
    33   15   45 1   
    34   16   32 1   
    35   16   46 1   
    36   17   29 1   
    37   17   30 1   
    38   17   48 1   
    39   17   56 1   
    40   19   49 1   
    41   20   22 1   
    42   20   41 1   
    43   21   50 1   
    44   21   63 1   
    45   22   51 1   
    46   24   25 1   
    47   25   27 1   
    48   25   55 1   
    49   26   52 1   
    50   26   53 1   
    51   26   54 1   
    52   27   28 1   
    53   30   31 1   
    54   30   32 1   
    55   30   47 1   
    56   31   57 1   
    57   31   58 1   
    58   31   59 1   
    59   32   33 1   
    60   33   60 1   
    61   33   61 1   
    62   33   62 1   
    63   42   63 1   
@<TRIPOS>SUBSTRUCTURE
     1 3J5         1 TEMP              0 ****  ****    0 ROOT
