@<TRIPOS>MOLECULE
3J6
   41    44     1     0     0
SMALL
bcc


@<TRIPOS>ATOM
      1 O          -0.1470   -0.0630   -0.0450 o         1 3J6     -0.521100
      2 C           1.1380    0.6410   -2.5280 c3        1 3J6     -0.056900
      3 C6          1.0820    0.0520   -0.0800 c         1 3J6      0.538300
      4 C1          1.8670    0.1970   -1.3190 ce        1 3J6     -0.179400
      5 C5          1.9000    0.0320    1.2050 c3        1 3J6      0.043100
      6 O1          1.0680   -0.1740    2.3260 oh        1 3J6     -0.581800
      7 C4          3.0620   -0.9890    1.0890 c3        1 3J6     -0.069000
      8 C14         2.4250   -2.3610    0.8090 c3        1 3J6      0.129400
      9 O5          3.3930   -3.2640    0.3060 oh        1 3J6     -0.601800
     10 C7          3.9560   -1.0270    2.3590 c3        1 3J6     -0.011000
     11 C13         3.2950   -1.5890    3.5950 c3        1 3J6     -0.096100
     12 C11         4.4620    0.4070    2.5440 cx        1 3J6      0.027800
     13 O2          4.8750    0.8360    3.8510 os        1 3J6     -0.390600
     14 C12         3.7770    1.5250    3.2350 cx        1 3J6      0.080400
     15 C10         5.4910    0.5310    1.4280 c3        1 3J6      0.125100
     16 C9          6.3170   -0.7650    1.6250 c3        1 3J6      0.115100
     17 O4          7.0590   -1.1590    0.4990 oh        1 3J6     -0.581800
     18 C8          5.2760   -1.8040    2.0840 c3        1 3J6     -0.123400
     19 O3          4.8330    0.5540    0.1680 os        1 3J6     -0.409600
     20 C3          3.9430   -0.5470   -0.1090 c3        1 3J6      0.161300
     21 C2          3.1780   -0.0860   -1.3140 c2        1 3J6     -0.094200
     22 H1          0.1630    0.0970   -2.6090 hc        1 3J6      0.055033
     23 H2          0.9190    1.7360   -2.4580 hc        1 3J6      0.055033
     24 H3          1.7350    0.4570   -3.4540 hc        1 3J6      0.055033
     25 H4          2.3370    1.0640    1.3550 h1        1 3J6      0.110700
     26 H5          0.3860   -0.8150    2.0790 ho        1 3J6      0.416000
     27 H6          1.6090   -2.2530    0.0400 h1        1 3J6      0.035200
     28 H7          1.9690   -2.7560    1.7570 h1        1 3J6      0.035200
     29 H8          2.9800   -4.1360    0.3030 ho        1 3J6      0.411000
     30 H9          3.9460   -1.3860    4.4820 hc        1 3J6      0.053033
     31 H10         3.1650   -2.6940    3.4990 hc        1 3J6      0.053033
     32 H11         2.3000   -1.1190    3.7820 hc        1 3J6      0.053033
     33 H12         2.7940    1.3540    3.7180 h1        1 3J6      0.089700
     34 H13         3.9890    2.5730    2.9540 h1        1 3J6      0.089700
     35 H14         6.1030    1.4660    1.4430 h1        1 3J6      0.107700
     36 H15         7.0900   -0.5990    2.4260 h1        1 3J6      0.093700
     37 H16         6.5090   -1.0350   -0.2850 ho        1 3J6      0.406000
     38 H17         5.1440   -2.6060    1.3190 hc        1 3J6      0.076200
     39 H18         5.6250   -2.2890    3.0290 hc        1 3J6      0.076200
     40 H19         4.5720   -1.4380   -0.4090 h1        1 3J6      0.078700
     41 H20         3.7920    0.0220   -2.2230 ha        1 3J6      0.147000
@<TRIPOS>BOND
     1    1    3 2   
     2    2    4 1   
     3    2   22 1   
     4    2   23 1   
     5    2   24 1   
     6    3    4 1   
     7    3    5 1   
     8    4   21 2   
     9    5    6 1   
    10    5    7 1   
    11    5   25 1   
    12    6   26 1   
    13    7    8 1   
    14    7   10 1   
    15    7   20 1   
    16    8    9 1   
    17    8   27 1   
    18    8   28 1   
    19    9   29 1   
    20   10   11 1   
    21   10   12 1   
    22   10   18 1   
    23   11   30 1   
    24   11   31 1   
    25   11   32 1   
    26   12   13 1   
    27   12   14 1   
    28   12   15 1   
    29   13   14 1   
    30   14   33 1   
    31   14   34 1   
    32   15   16 1   
    33   15   19 1   
    34   15   35 1   
    35   16   17 1   
    36   16   18 1   
    37   16   36 1   
    38   17   37 1   
    39   18   38 1   
    40   18   39 1   
    41   19   20 1   
    42   20   21 1   
    43   20   40 1   
    44   21   41 1   
@<TRIPOS>SUBSTRUCTURE
     1 3J6         1 TEMP              0 ****  ****    0 ROOT
