@<TRIPOS>MOLECULE
3J6
   41    44     1     0     0
SMALL
bcc


@<TRIPOS>ATOM
      1 O          -0.1610   -0.0250    0.0020 o         1 3J6     -0.518100
      2 C           1.0840    0.6950   -2.4970 c3        1 3J6     -0.057900
      3 C6          1.0690    0.0780   -0.0540 c         1 3J6      0.537300
      4 C1          1.8340    0.2370   -1.3050 ce        1 3J6     -0.175400
      5 C5          1.9120    0.0370    1.2130 c3        1 3J6      0.047100
      6 O1          1.1120   -0.1690    2.3570 oh        1 3J6     -0.585800
      7 C4          3.0540   -1.0020    1.0510 c3        1 3J6     -0.108000
      8 C14         2.3800   -2.3450    0.7190 c3        1 3J6      0.129400
      9 O5          3.2610   -3.4250    0.5240 oh        1 3J6     -0.588800
     10 C7          3.9670   -1.0950    2.3010 c3        1 3J6     -0.017000
     11 C13         3.3130   -1.7370    3.5000 c3        1 3J6     -0.093100
     12 C11         4.4470    0.3370    2.5550 cx        1 3J6      0.029800
     13 O2          4.8710    0.7030    3.8770 os        1 3J6     -0.390600
     14 C12         3.7520    1.4030    3.3140 cx        1 3J6      0.083400
     15 C10         5.4580    0.5380    1.4320 c3        1 3J6      0.125100
     16 C9          6.3210   -0.7410    1.5700 c3        1 3J6      0.115100
     17 O4          7.0650   -1.0670    0.4230 oh        1 3J6     -0.581800
     18 C8          5.3030   -1.8260    1.9730 c3        1 3J6     -0.128400
     19 O3          4.7940    0.5870    0.1750 os        1 3J6     -0.409600
     20 C3          3.9250   -0.5210   -0.1370 c3        1 3J6      0.161300
     21 C2          3.1450   -0.0440   -1.3250 c2        1 3J6     -0.098200
     22 H1          0.8600    1.7880   -2.4060 hc        1 3J6      0.056367
     23 H2          0.1110    0.1470   -2.5710 hc        1 3J6      0.056367
     24 H3          1.6670    0.5280   -3.4340 hc        1 3J6      0.056367
     25 H4          2.3700    1.0610    1.3570 h1        1 3J6      0.108700
     26 H5          0.3650   -0.7320    2.1080 ho        1 3J6      0.420000
     27 H6          1.8370   -2.2550   -0.2650 h1        1 3J6      0.056200
     28 H7          1.6400   -2.5790    1.5330 h1        1 3J6      0.056200
     29 H8          3.5430   -3.7320    1.3960 ho        1 3J6      0.406000
     30 H9          2.3460   -1.2380    3.7510 hc        1 3J6      0.051700
     31 H10         3.1230   -2.8200    3.3080 hc        1 3J6      0.051700
     32 H11         3.9910   -1.6430    4.3860 hc        1 3J6      0.051700
     33 H12         2.7780    1.1890    3.7970 h1        1 3J6      0.091200
     34 H13         3.9410    2.4680    3.0860 h1        1 3J6      0.091200
     35 H14         6.0420    1.4900    1.4790 h1        1 3J6      0.109700
     36 H15         7.0900   -0.5960    2.3780 h1        1 3J6      0.095700
     37 H16         6.5220   -0.8760   -0.3530 ho        1 3J6      0.407000
     38 H17         5.6660   -2.3640    2.8840 hc        1 3J6      0.070700
     39 H18         5.2010   -2.5710    1.1490 hc        1 3J6      0.070700
     40 H19         4.5640   -1.3960   -0.4610 h1        1 3J6      0.070700
     41 H20         3.7450    0.0780   -2.2420 ha        1 3J6      0.148000
@<TRIPOS>BOND
     1    1    3 2   
     2    2    4 1   
     3    2   22 1   
     4    2   23 1   
     5    2   24 1   
     6    3    4 1   
     7    3    5 1   
     8    4   21 2   
     9    5    6 1   
    10    5    7 1   
    11    5   25 1   
    12    6   26 1   
    13    7    8 1   
    14    7   10 1   
    15    7   20 1   
    16    8    9 1   
    17    8   27 1   
    18    8   28 1   
    19    9   29 1   
    20   10   11 1   
    21   10   12 1   
    22   10   18 1   
    23   11   30 1   
    24   11   31 1   
    25   11   32 1   
    26   12   13 1   
    27   12   14 1   
    28   12   15 1   
    29   13   14 1   
    30   14   33 1   
    31   14   34 1   
    32   15   16 1   
    33   15   19 1   
    34   15   35 1   
    35   16   17 1   
    36   16   18 1   
    37   16   36 1   
    38   17   37 1   
    39   18   38 1   
    40   18   39 1   
    41   19   20 1   
    42   20   21 1   
    43   20   40 1   
    44   21   41 1   
@<TRIPOS>SUBSTRUCTURE
     1 3J6         1 TEMP              0 ****  ****    0 ROOT
