@<TRIPOS>MOLECULE
3J7
   45    48     1     0     0
SMALL
bcc


@<TRIPOS>ATOM
      1 C1         -0.4610   -0.3480   -0.1570 ca        1 3J7      0.408200
      2 C2          0.9170   -0.4560   -0.2690 ca        1 3J7     -0.225300
      3 C3         -0.3840    0.1760    2.0920 ca        1 3J7      0.383900
      4 C11         4.9700    1.3970    4.4020 ca        1 3J7     -0.094000
      5 C12         5.3770    1.0430    6.7230 ca        1 3J7     -0.034200
      6 C13         4.2570    0.1240    6.7770 ca        1 3J7     -0.219900
      7 C14         4.2280   -0.3100    8.1690 cc        1 3J7      0.361800
      8 C15         5.1330   -1.3340   -0.1550 c3        1 3J7      0.189800
      9 C16         6.4220   -0.4500   -0.2050 c3        1 3J7      0.132200
     10 C17         7.6250   -1.3750   -0.0100 c3        1 3J7     -0.131600
     11 C18         6.5310    0.2570   -1.5550 c3        1 3J7     -0.131600
     12 N1         -1.1070   -0.0350    1.0080 nb        1 3J7     -0.624000
     13 C4          1.0650    0.0930    2.1090 ca        1 3J7      0.318300
     14 C5          1.7140   -0.2350    0.8790 ca        1 3J7     -0.258600
     15 C6          3.1680   -0.3160    0.9350 ca        1 3J7      0.674200
     16 N2          3.8360   -0.0680    2.0770 nb        1 3J7     -0.838000
     17 C7          3.0950    0.2460    3.2130 cp        1 3J7      0.744500
     18 N3          1.7560    0.3270    3.2750 nb        1 3J7     -0.655000
     19 C8          3.8790    0.5000    4.4490 cp        1 3J7     -0.195500
     20 C9          3.5090   -0.1350    5.6340 ca        1 3J7      0.002000
     21 C10         5.7290    1.6830    5.5240 ca        1 3J7     -0.144000
     22 N4          5.2200    0.2880    8.8550 nd        1 3J7     -0.484100
     23 N5          5.9170    1.0660    8.0130 na        1 3J7     -0.013100
     24 N6          3.9050   -0.5930   -0.2340 nh        1 3J7     -0.873900
     25 N7          6.3900    0.5780    0.9070 n4        1 3J7     -0.832600
     26 H1         -1.1270   -0.5130   -1.0250 h4        1 3J7      0.046100
     27 H2          1.3550   -0.7070   -1.2430 ha        1 3J7      0.141000
     28 H3         -0.9280    0.4300    3.0240 h4        1 3J7      0.062100
     29 H4          5.2040    1.9070    3.4560 ha        1 3J7      0.106000
     30 H5          3.5280   -1.0080    8.6320 h4        1 3J7      0.069800
     31 H6          5.2080   -2.0240   -1.0460 h1        1 3J7      0.087200
     32 H7          5.1840   -1.9700    0.7770 h1        1 3J7      0.087200
     33 H8          8.5850   -0.8070   -0.0810 hc        1 3J7      0.077700
     34 H9          7.6190   -2.1450   -0.8220 hc        1 3J7      0.077700
     35 H10         7.5820   -1.9050    0.9730 hc        1 3J7      0.077700
     36 H11         6.5430   -0.5170   -2.3620 hc        1 3J7      0.077700
     37 H12         5.6640    0.9370   -1.7370 hc        1 3J7      0.077700
     38 H13         7.4790    0.8440   -1.6260 hc        1 3J7      0.077700
     39 H14         2.6470   -0.8190    5.6720 ha        1 3J7      0.163000
     40 H15         6.5620    2.3970    5.4860 ha        1 3J7      0.145000
     41 H17         3.3390   -0.8160   -1.0260 hn        1 3J7      0.441800
     42 H18         6.1880    0.1130    1.8030 hn        1 3J7      0.463467
     43 H19         5.6530    1.2640    0.7180 hn        1 3J7      0.463467
     44 H191        6.6170    1.6790    8.3600 hn        1 3J7      0.335700
     45 H73         7.2920    1.0530    0.9610 hn        1 3J7      0.463467
@<TRIPOS>BOND
     1    1    2 ar  
     2    1   12 ar  
     3    1   26 1   
     4    2   14 ar  
     5    2   27 1   
     6    3   12 ar  
     7    3   13 ar  
     8    3   28 1   
     9    4   19 ar  
    10    4   21 ar  
    11    4   29 1   
    12    5    6 ar  
    13    5   21 ar  
    14    5   23 1   
    15    6    7 1   
    16    6   20 ar  
    17    7   22 2   
    18    7   30 1   
    19    8    9 1   
    20    8   24 1   
    21    8   31 1   
    22    8   32 1   
    23    9   10 1   
    24    9   11 1   
    25    9   25 1   
    26   10   33 1   
    27   10   34 1   
    28   10   35 1   
    29   11   36 1   
    30   11   37 1   
    31   11   38 1   
    32   13   14 ar  
    33   13   18 ar  
    34   14   15 ar  
    35   15   16 ar  
    36   15   24 1   
    37   16   17 ar  
    38   17   18 ar  
    39   17   19 1   
    40   19   20 ar  
    41   20   39 1   
    42   21   40 1   
    43   22   23 1   
    44   23   44 1   
    45   24   41 1   
    46   25   42 1   
    47   25   43 1   
    48   25   45 1   
@<TRIPOS>SUBSTRUCTURE
     1 3J7         1 TEMP              0 ****  ****    0 ROOT
