@<TRIPOS>MOLECULE
3J7
   44    47     1     0     0
SMALL
bcc


@<TRIPOS>ATOM
      1 C1         -0.0520    0.3350   -0.0570 ca        1 3J7      0.363200
      2 C2          1.3300    0.2150   -0.0540 ca        1 3J7     -0.198300
      3 C3         -0.1880    0.4320    2.2430 ca        1 3J7      0.356900
      4 C11         5.0210    0.9100    5.2080 ca        1 3J7     -0.057000
      5 C12         5.0820    0.2270    7.4900 ca        1 3J7     -0.036200
      6 C13         3.8490   -0.5070    7.3030 ca        1 3J7     -0.228900
      7 C14         3.5870   -1.0900    8.6130 cc        1 3J7      0.354800
      8 C15         5.6940   -0.0810    0.3280 c3        1 3J7      0.220800
      9 C16         6.4080   -0.2160   -1.0550 c3        1 3J7      0.159200
     10 C17         7.9160   -0.1690   -0.7510 c3        1 3J7     -0.109600
     11 C18         6.0970   -1.5990   -1.6430 c3        1 3J7     -0.109600
     12 N1         -0.8080    0.4430    1.0770 nb        1 3J7     -0.645000
     13 C4          1.2490    0.3120    2.3850 ca        1 3J7      0.329300
     14 C5          2.0120    0.2030    1.1840 ca        1 3J7     -0.279600
     15 C6          3.4630    0.0840    1.3540 ca        1 3J7      0.707200
     16 N2          4.0190    0.1020    2.5900 nb        1 3J7     -0.783000
     17 C7          3.1670    0.2040    3.6770 cp        1 3J7      0.751500
     18 N3          1.8230    0.3090    3.6340 nb        1 3J7     -0.718000
     19 C8          3.8150    0.1970    5.0180 cp        1 3J7     -0.172500
     20 C9          3.2200   -0.5110    6.0610 ca        1 3J7     -0.014000
     21 C10         5.6660    0.9410    6.4340 ca        1 3J7     -0.159000
     22 N4          4.5590   -0.7400    9.4770 nd        1 3J7     -0.513100
     23 N5          5.4290    0.0580    8.8390 na        1 3J7     -0.026100
     24 N6          4.2580   -0.1130    0.2380 nh        1 3J7     -0.842900
     25 N7          5.9650    0.8470   -1.9570 n3        1 3J7     -0.913800
     26 H1         -0.6260    0.3480   -1.0010 h4        1 3J7      0.026100
     27 H2          1.8640    0.1290   -1.0090 ha        1 3J7      0.141000
     28 H3         -0.8170    0.5220    3.1490 h4        1 3J7      0.042100
     29 H4          5.4610    1.4610    4.3610 ha        1 3J7      0.148000
     30 H5          2.7430   -1.7180    8.9000 h4        1 3J7      0.056800
     31 H6          6.0410    0.8750    0.8180 h1        1 3J7      0.055200
     32 H7          6.0300   -0.9410    0.9760 h1        1 3J7      0.055200
     33 H8          8.1960    0.7990   -0.2730 hc        1 3J7      0.044033
     34 H9          8.1890   -0.9990   -0.0570 hc        1 3J7      0.044033
     35 H10         8.5040   -0.2880   -1.6930 hc        1 3J7      0.044033
     36 H11         6.7160   -1.7830   -2.5540 hc        1 3J7      0.044033
     37 H12         5.0200   -1.6890   -1.9210 hc        1 3J7      0.044033
     38 H13         6.3360   -2.3830   -0.8850 hc        1 3J7      0.044033
     39 H14         2.2780   -1.0610    5.9180 ha        1 3J7      0.156000
     40 H15         6.5980    1.5030    6.5720 ha        1 3J7      0.140000
     41 H17         3.8600    0.1370   -0.6400 hn        1 3J7      0.445800
     42 H18         6.3060    1.7320   -1.6350 hn        1 3J7      0.354300
     43 H19         6.3080    0.6770   -2.8810 hn        1 3J7      0.354300
     44 H191        6.2850    0.3110    9.2680 hn        1 3J7      0.322700
@<TRIPOS>BOND
     1    1    2 ar  
     2    1   12 ar  
     3    1   26 1   
     4    2   14 ar  
     5    2   27 1   
     6    3   12 ar  
     7    3   13 ar  
     8    3   28 1   
     9    4   19 ar  
    10    4   21 ar  
    11    4   29 1   
    12    5    6 ar  
    13    5   21 ar  
    14    5   23 1   
    15    6    7 1   
    16    6   20 ar  
    17    7   22 2   
    18    7   30 1   
    19    8    9 1   
    20    8   24 1   
    21    8   31 1   
    22    8   32 1   
    23    9   10 1   
    24    9   11 1   
    25    9   25 1   
    26   10   33 1   
    27   10   34 1   
    28   10   35 1   
    29   11   36 1   
    30   11   37 1   
    31   11   38 1   
    32   13   14 ar  
    33   13   18 ar  
    34   14   15 ar  
    35   15   16 ar  
    36   15   24 1   
    37   16   17 ar  
    38   17   18 ar  
    39   17   19 1   
    40   19   20 ar  
    41   20   39 1   
    42   21   40 1   
    43   22   23 1   
    44   23   44 1   
    45   24   41 1   
    46   25   42 1   
    47   25   43 1   
@<TRIPOS>SUBSTRUCTURE
     1 3J7         1 TEMP              0 ****  ****    0 ROOT
