@<TRIPOS>MOLECULE
3J7
   45    48     1     0     0
SMALL
bcc


@<TRIPOS>ATOM
      1 C1         -0.4420   -0.3540   -0.1940 ca        1 3J7      0.408200
      2 C2          0.9370   -0.4500   -0.2980 ca        1 3J7     -0.225300
      3 C3         -0.3850    0.1420    2.0620 ca        1 3J7      0.383900
      4 C11         4.9440    1.3760    4.4240 ca        1 3J7     -0.094000
      5 C12         5.3390    0.9960    6.7430 ca        1 3J7     -0.034200
      6 C13         4.2260    0.0670    6.7770 ca        1 3J7     -0.219900
      7 C14         4.1920   -0.3840    8.1640 cc        1 3J7      0.361800
      8 C15         5.1590   -1.2980   -0.1650 c3        1 3J7      0.189800
      9 C16         6.4410   -0.4030   -0.1950 c3        1 3J7      0.132200
     10 C17         7.6510   -1.3220   -0.0040 c3        1 3J7     -0.131600
     11 C18         6.5550    0.3210   -1.5350 c3        1 3J7     -0.131600
     12 N1         -1.0980   -0.0620    0.9700 nb        1 3J7     -0.624000
     13 C4          1.0650    0.0700    2.0880 ca        1 3J7      0.318300
     14 C5          1.7250   -0.2380    0.8580 ca        1 3J7     -0.258600
     15 C6          3.1790   -0.3080    0.9240 ca        1 3J7      0.674200
     16 N2          3.8370   -0.0690    2.0730 nb        1 3J7     -0.838000
     17 C7          3.0860    0.2250    3.2080 cp        1 3J7      0.744500
     18 N3          1.7460    0.2950    3.2610 nb        1 3J7     -0.655000
     19 C8          3.8600    0.4700    4.4520 cp        1 3J7     -0.195500
     20 C9          3.4870   -0.1830    5.6270 ca        1 3J7      0.002000
     21 C10         5.6930    1.6550    5.5540 ca        1 3J7     -0.144000
     22 N4          5.1740    0.2130    8.8640 nd        1 3J7     -0.484100
     23 N5          5.8700    1.0070    8.0360 na        1 3J7     -0.013100
     24 N6          3.9260   -0.5650   -0.2430 nu        1 3J7     -0.873900
     25 N7          6.3940    0.6100    0.9300 nz        1 3J7     -0.832600
     26 H1         -1.1010   -0.5140   -1.0690 h4        1 3J7      0.046100
     27 H2          1.3840   -0.6860   -1.2720 ha        1 3J7      0.141000
     28 H3         -0.9370    0.3800    2.9930 h4        1 3J7      0.062100
     29 H4          5.1800    1.9000    3.4860 ha        1 3J7      0.106000
     30 H5          3.4940   -1.0930    8.6140 h4        1 3J7      0.069800
     31 H6          5.2080   -1.9450    0.7590 h1        1 3J7      0.087200
     32 H7          5.2460   -1.9750   -1.0640 h1        1 3J7      0.087200
     33 H8          8.6070   -0.7460   -0.0600 hc        1 3J7      0.077700
     34 H9          7.6050   -1.8640    0.9720 hc        1 3J7      0.077700
     35 H10         7.6560   -2.0810   -0.8250 hc        1 3J7      0.077700
     36 H11         5.6840    0.9980   -1.7140 hc        1 3J7      0.077700
     37 H12         6.5780   -0.4420   -2.3520 hc        1 3J7      0.077700
     38 H13         7.4990    0.9170   -1.5920 hc        1 3J7      0.077700
     39 H14         2.6310   -0.8740    5.6500 ha        1 3J7      0.163000
     40 H15         6.5210    2.3750    5.5310 ha        1 3J7      0.145000
     41 H17         3.3680   -0.7830   -1.0420 hn        1 3J7      0.441800
     42 H18         6.1890    0.1330    1.8190 hn        1 3J7      0.463467
     43 H19         5.6540    1.2930    0.7440 hn        1 3J7      0.463467
     44 H191        6.5630    1.6210    8.3960 hn        1 3J7      0.335700
     45 H73         7.2920    1.0910    0.9960 hn        1 3J7      0.463467
@<TRIPOS>BOND
     1    1    2 ar  
     2    1   12 ar  
     3    1   26 1   
     4    2   14 ar  
     5    2   27 1   
     6    3   12 ar  
     7    3   13 ar  
     8    3   28 1   
     9    4   19 ar  
    10    4   21 ar  
    11    4   29 1   
    12    5    6 ar  
    13    5   21 ar  
    14    5   23 1   
    15    6    7 1   
    16    6   20 ar  
    17    7   22 2   
    18    7   30 1   
    19    8    9 1   
    20    8   24 1   
    21    8   31 1   
    22    8   32 1   
    23    9   10 1   
    24    9   11 1   
    25    9   25 1   
    26   10   33 1   
    27   10   34 1   
    28   10   35 1   
    29   11   36 1   
    30   11   37 1   
    31   11   38 1   
    32   13   14 ar  
    33   13   18 ar  
    34   14   15 ar  
    35   15   16 ar  
    36   15   24 1   
    37   16   17 ar  
    38   17   18 ar  
    39   17   19 1   
    40   19   20 ar  
    41   20   39 1   
    42   21   40 1   
    43   22   23 1   
    44   23   44 1   
    45   24   41 1   
    46   25   42 1   
    47   25   43 1   
    48   25   45 1   
@<TRIPOS>SUBSTRUCTURE
     1 3J7         1 TEMP              0 ****  ****    0 ROOT
