@<TRIPOS>MOLECULE
3J8
   26    28     1     0     0
SMALL
bcc


@<TRIPOS>ATOM
      1 C4         -1.0660   -0.5880    0.1090 cc        1 3J8      0.341800
      2 C5         -2.4670   -1.1380    0.1920 c         1 3J8      0.471800
      3 C6         -3.5490   -0.1890   -0.0590 cc        1 3J8     -0.281200
      4 C10         1.4820    0.5230    0.0130 ca        1 3J8     -0.004600
      5 C13         3.8650    0.0830   -0.1460 ca        1 3J8     -0.071000
      6 C15         2.3410   -1.7820   -0.0120 ca        1 3J8     -0.103300
      7 C1         -3.3230    1.1270   -0.2430 cd        1 3J8     -0.026000
      8 C2         -2.0080    1.6900   -0.2030 cd        1 3J8     -0.260000
      9 C3         -0.9120    0.8900   -0.0040 cc        1 3J8     -0.010600
     10 N7          0.3930    1.3960    0.0840 na        1 3J8     -0.127100
     11 N8         -0.0520   -1.4140    0.1310 nd        1 3J8     -0.549000
     12 C9          1.2410   -0.8920    0.0430 ca        1 3J8      0.294600
     13 C11         2.8170    0.9860   -0.0940 ca        1 3J8     -0.188000
     14 C14         3.6330   -1.2970   -0.1010 ca        1 3J8     -0.173000
     15 C16         0.6010    2.8080    0.2600 c3        1 3J8      0.015600
     16 O19        -2.6840   -2.3280    0.4540 o         1 3J8     -0.505100
     17 H11         3.0350    2.0620   -0.1550 ha        1 3J8      0.140000
     18 H1         -4.1580    1.8230   -0.4280 ha        1 3J8      0.135000
     19 H2         -1.9250    2.7770   -0.3450 ha        1 3J8      0.139000
     20 H6         -4.5620   -0.6190   -0.0790 ha        1 3J8      0.155000
     21 H13         4.8980    0.4570   -0.2300 ha        1 3J8      0.138000
     22 H14         4.4820   -1.9950   -0.1410 ha        1 3J8      0.143000
     23 H16         0.7060    3.3150   -0.7370 h1        1 3J8      0.055367
     24 H16A       -0.2670    3.2580    0.8140 h1        1 3J8      0.055367
     25 H16B        1.5270    2.9920    0.8690 h1        1 3J8      0.055367
     26 H15         2.1530   -2.8680    0.0160 ha        1 3J8      0.160000
@<TRIPOS>BOND
     1    1    2 1   
     2    1    9 1   
     3    1   11 2   
     4    2    3 1   
     5    2   16 2   
     6    3    7 2   
     7    3   20 1   
     8    4   10 1   
     9    4   12 ar  
    10    4   13 ar  
    11    5   13 ar  
    12    5   14 ar  
    13    5   21 1   
    14    6   12 ar  
    15    6   14 ar  
    16    6   26 1   
    17    7    8 1   
    18    7   18 1   
    19    8    9 2   
    20    8   19 1   
    21    9   10 1   
    22   10   15 1   
    23   11   12 1   
    24   13   17 1   
    25   14   22 1   
    26   15   23 1   
    27   15   24 1   
    28   15   25 1   
@<TRIPOS>SUBSTRUCTURE
     1 3J8         1 TEMP              0 ****  ****    0 ROOT
