@<TRIPOS>MOLECULE
3J8
   26    28     1     0     0
SMALL
bcc


@<TRIPOS>ATOM
      1 C4         -0.0010   -0.0960    0.0070 cc        1 3J8      0.341800
      2 C5          1.5040   -0.1720   -0.0040 c         1 3J8      0.471800
      3 C6          2.1720    0.0740    1.2730 cc        1 3J8     -0.281200
      4 C10        -2.7790   -0.0160    0.1310 ca        1 3J8     -0.004600
      5 C13        -4.8460    0.1420   -1.1350 ca        1 3J8     -0.071000
      6 C15        -2.7530    0.0270   -2.3290 ca        1 3J8     -0.103300
      7 C1          1.4880    0.2450    2.4210 cd        1 3J8     -0.026000
      8 C2          0.0580    0.1990    2.4740 cd        1 3J8     -0.260000
      9 C3         -0.6760    0.0040    1.3330 cc        1 3J8     -0.010600
     10 N7         -2.0750   -0.0910    1.3350 na        1 3J8     -0.127100
     11 N8         -0.6510   -0.1140   -1.1280 nd        1 3J8     -0.549000
     12 C9         -2.0460   -0.0330   -1.1040 ca        1 3J8      0.294600
     13 C11        -4.1920    0.0850    0.0830 ca        1 3J8     -0.188000
     14 C14        -4.1330    0.1090   -2.3400 ca        1 3J8     -0.173000
     15 C16        -2.7760   -0.2800    2.5780 c3        1 3J8      0.015600
     16 O19         2.1350   -0.4220   -1.0370 o         1 3J8     -0.505100
     17 H11        -4.7820    0.1360    1.0100 ha        1 3J8      0.140000
     18 H1          2.0170    0.4260    3.3720 ha        1 3J8      0.135000
     19 H2         -0.4100    0.3300    3.4600 ha        1 3J8      0.139000
     20 H6          3.2720    0.0990    1.2350 ha        1 3J8      0.155000
     21 H13        -5.9450    0.2210   -1.1560 ha        1 3J8      0.138000
     22 H14        -4.6750    0.1530   -3.2960 ha        1 3J8      0.143000
     23 H16        -3.0600    0.7130    3.0210 h1        1 3J8      0.055367
     24 H16A       -3.7030   -0.8910    2.4120 h1        1 3J8      0.055367
     25 H16B       -2.1240   -0.8360    3.3050 h1        1 3J8      0.055367
     26 H15        -2.1870    0.0080   -3.2760 ha        1 3J8      0.160000
@<TRIPOS>BOND
     1    1    2 1   
     2    1    9 1   
     3    1   11 2   
     4    2    3 1   
     5    2   16 2   
     6    3    7 2   
     7    3   20 1   
     8    4   10 1   
     9    4   12 ar  
    10    4   13 ar  
    11    5   13 ar  
    12    5   14 ar  
    13    5   21 1   
    14    6   12 ar  
    15    6   14 ar  
    16    6   26 1   
    17    7    8 1   
    18    7   18 1   
    19    8    9 2   
    20    8   19 1   
    21    9   10 1   
    22   10   15 1   
    23   11   12 1   
    24   13   17 1   
    25   14   22 1   
    26   15   23 1   
    27   15   24 1   
    28   15   25 1   
@<TRIPOS>SUBSTRUCTURE
     1 3J8         1 TEMP              0 ****  ****    0 ROOT
