@<TRIPOS>MOLECULE
3J8
   26    22     1     0     0
SMALL
bcc


@<TRIPOS>ATOM
      1 C4          1.6340   -0.0470   -0.4480 c1        1 3J8     -0.076000
      2 C5          3.1710   -0.0470   -0.4480 c1        1 3J8      0.303000
      3 C6          3.9250   -0.0470    0.8580 c2        1 3J8     -0.262000
      4 C10        -1.2460    0.0350   -0.4460 c1        1 3J8     -0.007000
      5 C13        -3.3410    0.0910   -1.6600 c1        1 3J8     -0.122000
      6 C15        -1.2380    0.0630   -2.8800 c1        1 3J8     -0.113000
      7 C1          3.1730   -0.0470    2.1610 c1        1 3J8     -0.026000
      8 C2          1.6640   -0.0470    2.1590 c1        1 3J8     -0.260000
      9 C3          0.8970   -0.0470    0.8270 c2        1 3J8      0.079000
     10 N7         -0.5170   -0.0070    0.8250 n2        1 3J8     -0.195000
     11 N8          0.9260    0.0280   -1.6700 n1        1 3J8     -0.023000
     12 C9         -0.5390    0.0350   -1.6690 c1        1 3J8     -0.007000
     13 C11        -2.6440    0.0630   -0.4490 c1        1 3J8     -0.113000
     14 C14        -2.6350    0.0910   -2.8800 c1        1 3J8     -0.122000
     15 C16        -1.2330   -0.0590    2.0560 c3        1 3J8     -0.083000
     16 O19         3.7780   -0.0470   -1.5000 o         1 3J8     -0.266000
     17 H11        -3.1340    0.0630    0.3960 ha        1 3J8      0.150000
     18 H1          3.6600   -0.0470    3.0060 ha        1 3J8      0.135000
     19 H2          1.1760   -0.0470    3.0040 ha        1 3J8      0.139000
     20 H6          4.9010   -0.0470    0.8590 ha        1 3J8      0.155000
     21 H13        -4.3170    0.1110   -1.6610 ha        1 3J8      0.140500
     22 H14        -3.1230    0.1110   -3.7250 ha        1 3J8      0.140500
     23 H16        -0.6900   -0.5110    2.7290 h1        1 3J8      0.094667
     24 H16A       -2.0660   -0.5510    1.9260 h1        1 3J8      0.094667
     25 H16B       -1.4330    0.8480    2.3540 h1        1 3J8      0.094667
     26 H15        -0.7500    0.0630   -3.7250 ha        1 3J8      0.150000
@<TRIPOS>BOND
     1    1    9 1   
     2    1   11 1   
     3    2    3 1   
     4    2   16 1   
     5    3    7 1   
     6    3   20 1   
     7    4   12 1   
     8    4   13 1   
     9    5   14 1   
    10    5   21 1   
    11    6   12 1   
    12    6   26 1   
    13    7   18 1   
    14    8    9 1   
    15    8   19 1   
    16    9   10 1   
    17   10   15 1   
    18   13   17 1   
    19   14   22 1   
    20   15   23 1   
    21   15   24 1   
    22   15   25 1   
@<TRIPOS>SUBSTRUCTURE
     1 3J8         1 TEMP              0 ****  ****    0 ROOT
