@<TRIPOS>MOLECULE
3J8
   26    28     1     0     0
SMALL
bcc


@<TRIPOS>ATOM
      1 C4         -0.0020   -0.1070    0.0070 cc        1 3J8      0.341800
      2 C5          1.5030   -0.1900   -0.0040 c         1 3J8      0.471800
      3 C6          2.1730    0.0620    1.2700 cc        1 3J8     -0.281200
      4 C10        -2.7790   -0.0130    0.1310 ca        1 3J8     -0.004600
      5 C13        -4.8460    0.1460   -1.1340 ca        1 3J8     -0.071000
      6 C15        -2.7540    0.0120   -2.3290 ca        1 3J8     -0.103300
      7 C1          1.4900    0.2460    2.4180 cd        1 3J8     -0.026000
      8 C2          0.0600    0.2050    2.4720 cd        1 3J8     -0.260000
      9 C3         -0.6760    0.0050    1.3320 cc        1 3J8     -0.010600
     10 N7         -2.0750   -0.0830    1.3360 na        1 3J8     -0.127100
     11 N8         -0.6520   -0.1300   -1.1270 nd        1 3J8     -0.549000
     12 C9         -2.0470   -0.0430   -1.1030 ca        1 3J8      0.294600
     13 C11        -4.1910    0.0940    0.0840 ca        1 3J8     -0.188000
     14 C14        -4.1340    0.1010   -2.3390 ca        1 3J8     -0.173000
     15 C16        -2.7760   -0.2600    2.5800 c3        1 3J8      0.015600
     16 O19         2.1330   -0.4520   -1.0360 o         1 3J8     -0.505100
     17 H11        -4.7810    0.1540    1.0110 ha        1 3J8      0.140000
     18 H1          2.0200    0.4310    3.3670 ha        1 3J8      0.135000
     19 H2         -0.4070    0.3470    3.4570 ha        1 3J8      0.139000
     20 H6          3.2730    0.0820    1.2320 ha        1 3J8      0.155000
     21 H13        -5.9440    0.2290   -1.1550 ha        1 3J8      0.138000
     22 H14        -4.6760    0.1400   -3.2960 ha        1 3J8      0.143000
     23 H16        -2.1270   -0.8120    3.3120 h1        1 3J8      0.055367
     24 H16A       -3.7060   -0.8690    2.4200 h1        1 3J8      0.055367
     25 H16B       -3.0560    0.7370    3.0160 h1        1 3J8      0.055367
     26 H15        -2.1890   -0.0160   -3.2760 ha        1 3J8      0.160000
@<TRIPOS>BOND
     1    1    2 1   
     2    1    9 1   
     3    1   11 2   
     4    2    3 1   
     5    2   16 2   
     6    3    7 2   
     7    3   20 1   
     8    4   10 1   
     9    4   12 ar  
    10    4   13 ar  
    11    5   13 ar  
    12    5   14 ar  
    13    5   21 1   
    14    6   12 ar  
    15    6   14 ar  
    16    6   26 1   
    17    7    8 1   
    18    7   18 1   
    19    8    9 2   
    20    8   19 1   
    21    9   10 1   
    22   10   15 1   
    23   11   12 1   
    24   13   17 1   
    25   14   22 1   
    26   15   23 1   
    27   15   24 1   
    28   15   25 1   
@<TRIPOS>SUBSTRUCTURE
     1 3J8         1 TEMP              0 ****  ****    0 ROOT
