@<TRIPOS>MOLECULE
3J9
   48    52     1     0     0
SMALL
bcc


@<TRIPOS>ATOM
      1 C1          0.0510    0.1400   -0.0070 ca        1 3J9     -0.063000
      2 C2          1.4490   -0.0200   -0.0020 cp        1 3J9     -0.051000
      3 C3          2.1210   -0.0610    1.2220 ca        1 3J9     -0.071000
      4 C4          1.4330    0.0530    2.4360 ca        1 3J9     -0.180300
      5 C5          0.0380    0.2190    2.4080 ca        1 3J9      0.163100
      6 C6         -0.6530    0.2620    1.1810 ca        1 3J9     -0.143000
      7 C7          2.1730   -0.1560   -1.2600 cp        1 3J9     -0.180300
      8 O8         -0.7560    0.3190    3.5300 os        1 3J9     -0.305900
      9 C9         -0.0610    0.7410    4.7230 c3        1 3J9      0.131800
     10 C10         1.1800   -0.1570    4.8990 c3        1 3J9      0.122100
     11 C11         2.1890    0.0100    3.7370 c3        1 3J9      0.179500
     12 C12         3.0840    1.2980    3.9010 c3        1 3J9      0.114400
     13 O13         4.4570    0.8050    3.9990 os        1 3J9     -0.434400
     14 C14         4.3510   -0.5910    3.9180 c2        1 3J9      0.601500
     15 N15         3.1670   -1.1220    3.7710 n2        1 3J9     -0.501900
     16 N16         5.6460   -1.2600    4.0270 n4        1 3J9     -0.767600
     17 O17         1.8490    0.1380    6.1210 os        1 3J9     -0.434600
     18 C18         1.0180   -0.1290    7.2580 c3        1 3J9      0.128400
     19 C19        -0.2930    0.6330    7.2080 c3        1 3J9     -0.115400
     20 C20        -1.0140    0.4440    5.8890 c3        1 3J9     -0.077400
     21 C21         0.2440    2.2260    4.6330 c3        1 3J9     -0.120100
     22 C22         3.4520    0.4310   -1.4840 ca        1 3J9      0.607500
     23 N23         4.1470    0.3150   -2.6520 nb        1 3J9     -0.680000
     24 C24         3.5720   -0.3900   -3.6370 ca        1 3J9      0.433200
     25 C25         2.3120   -1.0100   -3.5230 ca        1 3J9     -0.249300
     26 C26         1.6180   -0.8880   -2.3240 ca        1 3J9     -0.063000
     27 F27         4.0560    1.1590   -0.5090 f         1 3J9     -0.234200
     28 H1         -0.4910    0.1850   -0.9670 ha        1 3J9      0.155000
     29 H2          3.2160   -0.1760    1.2240 ha        1 3J9      0.128000
     30 H3         -1.7460    0.3940    1.1870 ha        1 3J9      0.170000
     31 H4          0.8220   -1.2300    4.9150 h1        1 3J9      0.087700
     32 H5          2.8800    1.8420    4.8570 h1        1 3J9      0.115200
     33 H6          3.0540    1.9610    3.0020 h1        1 3J9      0.115200
     34 H7          6.2860   -0.8400    3.3370 hn        1 3J9      0.490467
     35 H8          6.0130   -1.1010    4.9750 hn        1 3J9      0.490467
     36 H9          0.8350   -1.2340    7.3210 h1        1 3J9      0.063200
     37 H10         1.6510    0.2050    8.1240 h1        1 3J9      0.063200
     38 H11        -0.9510    0.2760    8.0440 hc        1 3J9      0.069200
     39 H12        -0.0970    1.7250    7.3750 hc        1 3J9      0.069200
     40 H13        -1.8990    1.1280    5.8280 hc        1 3J9      0.074200
     41 H14        -1.3910   -0.6070    5.7930 hc        1 3J9      0.074200
     42 H15         0.8010    2.4570    3.6930 hc        1 3J9      0.059367
     43 H16         0.8540    2.5410    5.5140 hc        1 3J9      0.059367
     44 H17        -0.7100    2.8070    4.6250 hc        1 3J9      0.059367
     45 H18         4.1600   -0.4590   -4.5730 h4        1 3J9      0.043100
     46 H19         1.8940   -1.5750   -4.3680 ha        1 3J9      0.163000
     47 H20         0.6350   -1.3690   -2.2000 ha        1 3J9      0.152000
     48 H163        5.5420   -2.2680    3.8500 hn        1 3J9      0.490467
@<TRIPOS>BOND
     1    1    2 ar  
     2    1    6 ar  
     3    1   28 1   
     4    2    3 ar  
     5    2    7 1   
     6    3    4 ar  
     7    3   29 1   
     8    4    5 ar  
     9    4   11 1   
    10    5    6 ar  
    11    5    8 1   
    12    6   30 1   
    13    7   22 ar  
    14    7   26 ar  
    15    8    9 1   
    16    9   10 1   
    17    9   20 1   
    18    9   21 1   
    19   10   11 1   
    20   10   17 1   
    21   10   31 1   
    22   11   12 1   
    23   11   15 1   
    24   12   13 1   
    25   12   32 1   
    26   12   33 1   
    27   13   14 1   
    28   14   15 2   
    29   14   16 1   
    30   16   34 1   
    31   16   35 1   
    32   16   48 1   
    33   17   18 1   
    34   18   19 1   
    35   18   36 1   
    36   18   37 1   
    37   19   20 1   
    38   19   38 1   
    39   19   39 1   
    40   20   40 1   
    41   20   41 1   
    42   21   42 1   
    43   21   43 1   
    44   21   44 1   
    45   22   23 ar  
    46   22   27 1   
    47   23   24 ar  
    48   24   25 ar  
    49   24   45 1   
    50   25   26 ar  
    51   25   46 1   
    52   26   47 1   
@<TRIPOS>SUBSTRUCTURE
     1 3J9         1 TEMP              0 ****  ****    0 ROOT
