@<TRIPOS>MOLECULE
3J9
   48    52     1     0     0
SMALL
bcc


@<TRIPOS>ATOM
      1 C1          0.0510    0.1400   -0.0070 ca        1 3J9     -0.063000
      2 C2          1.4500   -0.0220   -0.0020 cp        1 3J9     -0.051000
      3 C3          2.1210   -0.0620    1.2220 ca        1 3J9     -0.071000
      4 C4          1.4330    0.0540    2.4360 ca        1 3J9     -0.180300
      5 C5          0.0380    0.2210    2.4070 ca        1 3J9      0.163100
      6 C6         -0.6520    0.2640    1.1800 ca        1 3J9     -0.143000
      7 C7          2.1730   -0.1600   -1.2600 cp        1 3J9     -0.180300
      8 O8         -0.7560    0.3230    3.5300 os        1 3J9     -0.305900
      9 C9         -0.0600    0.7440    4.7220 c3        1 3J9      0.131800
     10 C10         1.1790   -0.1550    4.8990 c3        1 3J9      0.122100
     11 C11         2.1880    0.0110    3.7370 c3        1 3J9      0.179500
     12 C12         3.0850    1.2980    3.9010 c3        1 3J9      0.114400
     13 O13         4.4570    0.8030    3.9990 os        1 3J9     -0.434400
     14 C14         4.3500   -0.5920    3.9190 c2        1 3J9      0.601500
     15 N15         3.1660   -1.1230    3.7710 n2        1 3J9     -0.501900
     16 N16         5.6440   -1.2620    4.0280 nz        1 3J9     -0.767600
     17 O17         1.8480    0.1400    6.1210 os        1 3J9     -0.434600
     18 C18         1.0180   -0.1260    7.2580 c3        1 3J9      0.128400
     19 C19        -0.2930    0.6380    7.2070 c3        1 3J9     -0.115400
     20 C20        -1.0140    0.4490    5.8880 c3        1 3J9     -0.077400
     21 C21         0.2460    2.2290    4.6320 c3        1 3J9     -0.120100
     22 C22         3.4530    0.4260   -1.4840 ca        1 3J9      0.607500
     23 N23         4.1480    0.3080   -2.6520 nb        1 3J9     -0.680000
     24 C24         3.5720   -0.3980   -3.6370 ca        1 3J9      0.433200
     25 C25         2.3120   -1.0150   -3.5220 ca        1 3J9     -0.249300
     26 C26         1.6170   -0.8920   -2.3230 ca        1 3J9     -0.063000
     27 F27         4.0580    1.1540   -0.5100 f         1 3J9     -0.234200
     28 H1         -0.4900    0.1850   -0.9670 ha        1 3J9      0.155000
     29 H2          3.2160   -0.1790    1.2240 ha        1 3J9      0.128000
     30 H3         -1.7450    0.3970    1.1860 ha        1 3J9      0.170000
     31 H4          0.8200   -1.2280    4.9160 h1        1 3J9      0.087700
     32 H5          2.8810    1.8430    4.8560 h1        1 3J9      0.115200
     33 H6          3.0550    1.9600    3.0020 h1        1 3J9      0.115200
     34 H7          6.2850   -0.8430    3.3380 hn        1 3J9      0.490467
     35 H8          6.0120   -1.1030    4.9770 hn        1 3J9      0.490467
     36 H9          1.6500    0.2080    8.1230 h1        1 3J9      0.063200
     37 H10         0.8330   -1.2310    7.3210 h1        1 3J9      0.063200
     38 H11        -0.9510    0.2820    8.0430 hc        1 3J9      0.069200
     39 H12        -0.0960    1.7300    7.3740 hc        1 3J9      0.069200
     40 H13        -1.8990    1.1330    5.8270 hc        1 3J9      0.074200
     41 H14        -1.3930   -0.6020    5.7930 hc        1 3J9      0.074200
     42 H15         0.8030    2.4590    3.6920 hc        1 3J9      0.059367
     43 H16        -0.7080    2.8110    4.6230 hc        1 3J9      0.059367
     44 H17         0.8560    2.5430    5.5130 hc        1 3J9      0.059367
     45 H18         4.1610   -0.4680   -4.5720 h4        1 3J9      0.043100
     46 H19         1.8930   -1.5810   -4.3660 ha        1 3J9      0.163000
     47 H20         0.6330   -1.3710   -2.1990 ha        1 3J9      0.152000
     48 H163        5.5400   -2.2710    3.8520 hn        1 3J9      0.490467
@<TRIPOS>BOND
     1    1    2 ar  
     2    1    6 ar  
     3    1   28 1   
     4    2    3 ar  
     5    2    7 1   
     6    3    4 ar  
     7    3   29 1   
     8    4    5 ar  
     9    4   11 1   
    10    5    6 ar  
    11    5    8 1   
    12    6   30 1   
    13    7   22 ar  
    14    7   26 ar  
    15    8    9 1   
    16    9   10 1   
    17    9   20 1   
    18    9   21 1   
    19   10   11 1   
    20   10   17 1   
    21   10   31 1   
    22   11   12 1   
    23   11   15 1   
    24   12   13 1   
    25   12   32 1   
    26   12   33 1   
    27   13   14 1   
    28   14   15 2   
    29   14   16 1   
    30   16   34 1   
    31   16   35 1   
    32   16   48 1   
    33   17   18 1   
    34   18   19 1   
    35   18   36 1   
    36   18   37 1   
    37   19   20 1   
    38   19   38 1   
    39   19   39 1   
    40   20   40 1   
    41   20   41 1   
    42   21   42 1   
    43   21   43 1   
    44   21   44 1   
    45   22   23 ar  
    46   22   27 1   
    47   23   24 ar  
    48   24   25 ar  
    49   24   45 1   
    50   25   26 ar  
    51   25   46 1   
    52   26   47 1   
@<TRIPOS>SUBSTRUCTURE
     1 3J9         1 TEMP              0 ****  ****    0 ROOT
