@<TRIPOS>MOLECULE
3JA
   37    39     1     0     0
SMALL
bcc


@<TRIPOS>ATOM
      1 N3          0.1590   -1.0540   -0.1150 n2        1 3JA     -0.195000
      2 C4         -0.4430   -0.9670    4.3480 c2        1 3JA     -0.140000
      3 N2         -0.5170   -0.4280    5.5840 n2        1 3JA     -0.068000
      4 C7          1.3710   -0.5190   -0.0750 c2        1 3JA      0.043000
      5 C6         -0.3400   -1.0600    1.2560 c3        1 3JA     -0.113000
      6 C9          3.1600    0.4140    1.4670 c2        1 3JA      0.208000
      7 C13         5.0140   -0.6490    4.4150 c2        1 3JA     -0.324000
      8 C8          1.8080   -0.1470    1.3290 c2        1 3JA     -0.212000
      9 N5          2.2550   -0.2180   -1.1260 n7        1 3JA     -0.224000
     10 N1          0.2810    0.6600    5.5850 na        1 3JA     -0.125000
     11 C2          0.9100    0.8460    4.3550 c2        1 3JA     -0.058000
     12 C3          0.4670   -0.1960    3.5110 c2        1 3JA     -0.186000
     13 C5          0.7410   -0.4270    2.1430 c2        1 3JA      0.071000
     14 N4          3.8750    0.7090    0.3820 n2        1 3JA     -0.277000
     15 C10         3.4370    0.4070   -0.8870 c1        1 3JA      0.041000
     16 N6          3.6450    0.6540    2.7860 n3        1 3JA     -0.247000
     17 C11         4.7470    1.5880    2.8940 c3        1 3JA     -0.107000
     18 C12         4.2200    0.6960    6.1350 c2        1 3JA     -0.341000
     19 O1          5.1350   -0.0890    5.6080 os        1 3JA      0.121000
     20 C14         3.8090   -0.5800    3.5680 c3        1 3JA     -0.020000
     21 H1         -1.2900   -0.4620    1.3070 h1        1 3JA      0.142000
     22 H2         -0.9990   -1.8630    4.0670 h4        1 3JA      0.187000
     23 H3         -0.5530   -2.1130    1.5850 h1        1 3JA      0.142000
     24 H4          2.8830   -0.6640    4.2150 h1        1 3JA      0.104000
     25 H5          5.9150   -1.2090    4.1410 h4        1 3JA      0.190000
     26 H6          1.5510    1.3570    7.1060 h1        1 3JA      0.104333
     27 H7         -0.2210    1.2500    7.5560 h1        1 3JA      0.104333
     28 H8          0.3570    2.5750    6.4320 h1        1 3JA      0.104333
     29 H9          1.5840    1.6820    4.1580 h4        1 3JA      0.200000
     30 H10         1.9970   -0.4560   -2.0580 hn        1 3JA      0.263000
     31 H11         4.5120    2.5130    2.3060 h1        1 3JA      0.088000
     32 H12         4.8530    1.8630    3.9790 h1        1 3JA      0.088000
     33 H13         5.7220    1.1670    2.5280 h1        1 3JA      0.088000
     34 H14         4.4820    1.0250    7.1450 h4        1 3JA      0.155500
     35 H15         3.2990    0.9600    5.6180 h4        1 3JA      0.155500
     36 H16         3.8320   -1.4840    2.8900 h1        1 3JA      0.104000
     37 C1          0.5000    1.5040    6.7350 c3        1 3JA     -0.067000
@<TRIPOS>BOND
     1    1    4 1   
     2    1    5 1   
     3    2    3 1   
     4    2   12 1   
     5    2   22 1   
     6    3   10 1   
     7    4    8 1   
     8    4    9 1   
     9    5   13 1   
    10    5   21 1   
    11    5   23 1   
    12    6    8 1   
    13    6   14 1   
    14    6   16 1   
    15    7   19 1   
    16    7   20 1   
    17    7   25 1   
    18    8   13 1   
    19    9   15 1   
    20    9   30 1   
    21   10   11 1   
    22   10   37 1   
    23   11   12 1   
    24   11   29 1   
    25   12   13 1   
    26   14   15 1   
    27   16   17 1   
    28   16   20 1   
    29   17   31 1   
    30   17   32 1   
    31   17   33 1   
    32   18   19 1   
    33   18   34 1   
    34   18   35 1   
    35   20   24 1   
    36   20   36 1   
    37   26   37 1   
    38   27   37 1   
    39   28   37 1   
@<TRIPOS>SUBSTRUCTURE
     1 3JA         1 TEMP              0 ****  ****    0 ROOT
