@<TRIPOS>MOLECULE
3JA
   37    38     1     0     0
SMALL
bcc


@<TRIPOS>ATOM
      1 N3          0.1760   -1.1020   -0.0540 n2        1 3JA     -0.650900
      2 C4         -0.4060   -0.8810    4.4180 cc        1 3JA      0.453500
      3 N2         -0.3370   -0.4110    5.6670 nd        1 3JA     -0.584100
      4 C7          1.3440   -0.4730   -0.0430 ce        1 3JA      0.611500
      5 C6         -0.2840   -1.1660    1.3310 c3        1 3JA      0.115000
      6 C9          3.1290    0.3810    1.4360 ce        1 3JA      0.659500
      7 C13         5.0190   -1.2950    3.8820 c2        1 3JA     -0.155000
      8 C8          1.8030   -0.0830    1.3380 ce        1 3JA     -0.518200
      9 N5          2.1970   -0.1400   -1.1110 nh        1 3JA     -0.577000
     10 N1          0.5480    0.6560    5.6610 na        1 3JA      0.300800
     11 C2          1.0940    0.8420    4.4070 cd        1 3JA     -0.329100
     12 C3          0.5160   -0.1650    3.5260 cc        1 3JA     -0.311600
     13 C5          0.7380   -0.4300    2.2090 ce        1 3JA      0.106800
     14 N4          3.8970    0.6620    0.3730 nf        1 3JA     -0.635700
     15 C10         3.4130    0.4310   -0.8890 ch        1 3JA      0.075000
     16 N6          3.7470    0.5150    2.7990 n4        1 3JA     -0.542200
     17 C11         4.1620    1.9210    3.0540 c3        1 3JA      0.108100
     18 C12         3.1160    0.5010    6.9120 c         1 3JA      0.609700
     19 O1          3.4820    0.5260    5.7220 o         1 3JA     -0.676100
     20 C14         4.9000   -0.3840    2.9120 c2        1 3JA     -0.079000
     21 H1         -1.2850   -0.6630    1.4130 h1        1 3JA      0.085200
     22 H2         -1.0510   -1.7200    4.1420 h4        1 3JA      0.054800
     23 H3         -0.3890   -2.2380    1.6480 h1        1 3JA      0.085200
     24 H4          4.2820   -1.4360    4.6890 ha        1 3JA      0.154000
     25 H5          5.9030   -1.9480    3.9190 ha        1 3JA      0.154000
     26 H6          3.3090    1.3530    7.5950 h4        1 3JA     -0.020800
     27 H7          1.4060    2.3040    6.6220 h4        1 3JA      0.013300
     28 H8          0.4760    1.0810    7.7340 h4        1 3JA      0.013300
     29 H9          1.6920    1.7180    4.1720 h4        1 3JA      0.172000
     30 H10         1.9090   -0.3440   -2.0420 hn        1 3JA      0.468800
     31 H11         5.0400    2.1810    2.4070 hx        1 3JA      0.096033
     32 H12         3.3040    2.6000    2.8090 hx        1 3JA      0.096033
     33 H13         4.4310    2.0130    4.1420 hx        1 3JA      0.096033
     34 H14         2.7060   -0.4190    7.3750 h4        1 3JA     -0.020800
     35 H15         3.0370    0.2460    3.5150 hn        1 3JA      0.490800
     36 H16         5.6480   -0.2300    2.1100 hx        1 3JA      0.197000
     37 C1          0.9410    1.3220    6.7730 c2        1 3JA     -0.114900
@<TRIPOS>BOND
     1    1    4 2   
     2    1    5 1   
     3    2    3 2   
     4    2   12 1   
     5    2   22 1   
     6    3   10 1   
     7    4    8 1   
     8    4    9 1   
     9    5   13 1   
    10    5   21 1   
    11    5   23 1   
    12    6    8 1   
    13    6   14 2   
    14    6   16 1   
    15    7   20 2   
    16    7   24 1   
    17    7   25 1   
    18    8   13 2   
    19    9   15 3   
    20    9   30 1   
    21   10   11 1   
    22   10   37 2   
    23   11   12 2   
    24   11   29 1   
    25   12   13 1   
    26   14   15 1   
    27   16   17 1   
    28   16   20 1   
    29   16   35 1   
    30   17   31 1   
    31   17   32 1   
    32   17   33 1   
    33   18   19 2   
    34   18   26 1   
    35   18   34 1   
    36   20   36 1   
    37   27   37 1   
    38   28   37 1   
@<TRIPOS>SUBSTRUCTURE
     1 3JA         1 TEMP              0 ****  ****    0 ROOT
