@<TRIPOS>MOLECULE
3JB
   46    50     1     0     0
SMALL
bcc


@<TRIPOS>ATOM
      1 N3          0.0000    0.0000    0.0000 na        1 3JB      0.246900
      2 C4          1.3750    1.1430    5.3570 c3        1 3JB      0.031800
      3 N2          1.4820    0.0220    4.4130 nh        1 3JB     -0.547300
      4 C7          3.7060    0.9980    2.5700 ca        1 3JB     -0.046000
      5 C6          1.3680    0.0000    0.0000 cc        1 3JB     -0.243100
      6 C9          5.8920    0.0180    2.5430 ca        1 3JB     -0.082000
      7 C8          5.0260    1.0020    2.9790 ca        1 3JB     -0.119000
      8 N5          3.6940   -3.5380    6.6460 nc        1 3JB     -0.640000
      9 C16         2.8530   -2.5090    6.8510 cc        1 3JB      0.462300
     10 C02         0.4190    0.0170    3.5270 ca        1 3JB      0.578200
     11 N          -0.8360    0.0190    3.9690 nb        1 3JB     -0.683000
     12 C04        -1.8540    0.0150    3.1270 ca        1 3JB      0.648900
     13 N1         -1.6950    0.0090    1.8210 nb        1 3JB     -0.621000
     14 C2          1.5750   -1.2570    5.1310 c3        1 3JB      0.101800
     15 C03         2.7970   -1.2310    6.0530 c3        1 3JB      0.206800
     16 O           2.6910   -0.1170    6.9430 os        1 3JB     -0.388600
     17 C05         2.5990    1.1460    6.2780 c3        1 3JB      0.276400
     18 C1         -0.4750    0.0060    1.2830 ca        1 3JB      0.255800
     19 C3          0.6370    0.0100    2.1430 ca        1 3JB     -0.312400
     20 C5          1.8230    0.0000    1.2770 cd        1 3JB     -0.030400
     21 C01         3.2400    0.0000    1.7140 ca        1 3JB      0.013200
     22 C10         5.4370   -0.9860    1.6860 ca        1 3JB      0.015000
     23 C06         4.1060   -0.9930    1.2700 ca        1 3JB     -0.067000
     24 C11         6.3350   -2.0060    1.2330 cg        1 3JB      0.234800
     25 N02         7.0570   -2.8010    0.8630 n1        1 3JB     -0.385800
     26 N4          2.0970   -2.8170    7.8610 nd        1 3JB     -0.316300
     27 O1          2.3920   -3.9160    8.2850 os        1 3JB     -0.019100
     28 C14         3.3940   -4.4270    7.5620 cd        1 3JB      0.351700
     29 C           4.0500   -5.7670    7.7610 c3        1 3JB      0.021600
     30 H1         -0.5840   -0.1390   -0.8010 hn        1 3JB      0.128700
     31 H2          0.3200    1.3860    5.3520 h1        1 3JB      0.039700
     32 H3          1.4870    1.6950    4.4320 h1        1 3JB      0.039700
     33 H4          3.2050    1.8450    3.0230 ha        1 3JB      0.116000
     34 H5          1.7520   -0.1700   -0.9980 h4        1 3JB      0.142000
     35 H6          6.9130   -0.1100    2.8830 ha        1 3JB      0.113000
     36 H7          5.5350    1.7880    3.5220 ha        1 3JB      0.111000
     37 H8         -2.8290    0.2220    3.5500 h5        1 3JB      0.002100
     38 H9          0.6360   -1.5970    5.5500 h1        1 3JB      0.030200
     39 H10         1.6770   -1.8560    4.2340 h1        1 3JB      0.030200
     40 H11         3.6960   -1.1310    5.4570 h1        1 3JB      0.033700
     41 H12         3.4890    1.3920    5.7110 h1        1 3JB      0.019700
     42 H13         2.2630    1.9280    6.9470 h1        1 3JB      0.019700
     43 H14         3.7510   -1.7950    0.6340 ha        1 3JB      0.115000
     44 H15         3.9770   -6.0140    6.7090 hc        1 3JB      0.039033
     45 H16         4.8880   -5.5130    8.4000 hc        1 3JB      0.039033
     46 H17         3.1940   -6.2530    8.2120 hc        1 3JB      0.039033
@<TRIPOS>BOND
     1    1    5 1   
     2    1   18 1   
     3    1   30 1   
     4    2    3 1   
     5    2   17 1   
     6    2   31 1   
     7    2   32 1   
     8    3   10 1   
     9    3   14 1   
    10    4    7 ar  
    11    4   21 ar  
    12    4   33 1   
    13    5   20 2   
    14    5   34 1   
    15    6    7 ar  
    16    6   22 ar  
    17    6   35 1   
    18    7   36 1   
    19    8    9 1   
    20    8   28 2   
    21    9   15 1   
    22    9   26 2   
    23   10   11 ar  
    24   10   19 ar  
    25   11   12 ar  
    26   12   13 ar  
    27   12   37 1   
    28   13   18 ar  
    29   14   15 1   
    30   14   38 1   
    31   14   39 1   
    32   15   16 1   
    33   15   40 1   
    34   16   17 1   
    35   17   41 1   
    36   17   42 1   
    37   18   19 ar  
    38   19   20 1   
    39   20   21 1   
    40   21   23 ar  
    41   22   23 ar  
    42   22   24 1   
    43   23   43 1   
    44   24   25 3   
    45   26   27 1   
    46   27   28 1   
    47   28   29 1   
    48   29   44 1   
    49   29   45 1   
    50   29   46 1   
@<TRIPOS>SUBSTRUCTURE
     1 3JB         1 TEMP              0 ****  ****    0 ROOT
