@<TRIPOS>MOLECULE
3JC
   34    32     1     0     0
SMALL
bcc


@<TRIPOS>ATOM
      1 C1         -0.2160    0.1180    0.1010 c2        1 3JC      0.062000
      2 C2          1.1890    0.2690    0.1440 c2        1 3JC     -0.294000
      3 C3          1.8020    0.3520    1.4120 c2        1 3JC      0.088000
      4 C11         9.6340    0.1320    1.0760 c1        1 3JC     -0.220000
      5 C12         9.9880    0.1380   -0.0660 c1        1 3JC     -0.220000
      6 C13         5.9290   -1.6010   -0.9320 c1        1 3JC      0.184000
      7 C14         6.3600   -0.6710   -0.1080 c2        1 3JC     -0.440000
      8 C15        -0.8810    0.0590   -1.2370 c3        1 3JC     -0.180000
      9 N1         -0.9680    0.0440    1.2180 n2        1 3JC     -0.225000
     10 N2          1.0870    0.2890    2.5620 n2        1 3JC     -0.227000
     11 C4         -0.2820    0.1120    2.4280 c2        1 3JC      0.155000
     12 C5          2.9570   -1.4150   -3.7640 c1        1 3JC      0.257000
     13 C6          3.0390   -1.7420   -2.5020 c2        1 3JC     -0.458000
     14 C7          4.1160    0.1010    0.5820 c2        1 3JC     -0.116000
     15 C8          5.5630    0.2710    0.6670 c2        1 3JC     -0.002000
     16 C9          3.2570    0.5320    1.5190 c2        1 3JC     -0.112000
     17 C10         6.1510    1.2350    1.3950 c2        1 3JC     -0.200000
     18 H1          7.2420    1.3470    1.4420 ha        1 3JC      0.123000
     19 H2          9.3290    0.1240    2.0920 ha        1 3JC      0.222500
     20 H3         10.3060    0.1480   -1.0790 ha        1 3JC      0.222500
     21 H4          7.4660   -0.5770    0.0200 ha        1 3JC      0.205000
     22 H5         -0.2330   -0.5060   -1.9500 hc        1 3JC      0.097667
     23 H6         -1.8820   -0.4370   -1.1890 hc        1 3JC      0.097667
     24 H7         -1.0200    1.1000   -1.6220 hc        1 3JC      0.097667
     25 H8         -0.6020    0.2200    4.4470 hn        1 3JC      0.222000
     26 H9         -2.0080    0.0550    3.5270 hn        1 3JC      0.222000
     27 H10         2.1730   -1.6770   -1.8330 ha        1 3JC      0.186500
     28 H11         1.7730    0.3370   -0.7800 ha        1 3JC      0.154000
     29 H12         3.9800   -2.1230   -2.0750 ha        1 3JC      0.186500
     30 H13         3.6130    1.0310    2.4380 ha        1 3JC      0.149000
     31 H14         3.7560   -0.4340   -0.3190 ha        1 3JC      0.138000
     32 H15         5.5740    1.9670    1.9740 ha        1 3JC      0.123000
     33 O1          2.8890   -1.1070   -4.9150 o         1 3JC     -0.172000
     34 N3         -1.0260   -0.0750    3.5980 nh        1 3JC     -0.325000
@<TRIPOS>BOND
     1    1    2 1   
     2    1    8 1   
     3    1    9 1   
     4    2    3 1   
     5    2   28 1   
     6    3   10 1   
     7    3   16 1   
     8    4    5 1   
     9    4   19 1   
    10    5   20 1   
    11    6    7 1   
    12    7   15 1   
    13    7   21 1   
    14    8   22 1   
    15    8   23 1   
    16    8   24 1   
    17    9   11 1   
    18   10   11 1   
    19   11   34 1   
    20   12   13 1   
    21   12   33 1   
    22   13   27 1   
    23   13   29 1   
    24   14   15 1   
    25   14   16 1   
    26   14   31 1   
    27   15   17 1   
    28   16   30 1   
    29   17   18 1   
    30   17   32 1   
    31   25   34 1   
    32   26   34 1   
@<TRIPOS>SUBSTRUCTURE
     1 3JC         1 TEMP              0 ****  ****    0 ROOT
