@<TRIPOS>MOLECULE
3JC
   34    36     1     0     0
SMALL
bcc


@<TRIPOS>ATOM
      1 C1          0.0930   -0.4700   -0.4360 ca        1 3JC      0.567600
      2 C2          1.4280   -0.0530   -0.3010 ca        1 3JC     -0.503200
      3 C3          1.9780   -0.0050    1.0280 ca        1 3JC      0.534600
      4 C11         6.7500    0.1100   -0.5060 cu        1 3JC     -0.165400
      5 C12         7.3440   -0.0900   -1.6550 c2        1 3JC     -0.138000
      6 C13         6.5570   -2.3790    2.0570 c1        1 3JC     -0.136500
      7 C14         6.2120   -1.4760    1.3530 c1        1 3JC     -0.111100
      8 C15        -0.5400   -0.5640   -1.7860 c3        1 3JC     -0.171400
      9 N1         -0.6430   -0.8080    0.6510 nb        1 3JC     -0.787000
     10 N2          1.3010   -0.3260    2.1270 nb        1 3JC     -0.744000
     11 C4         -0.0320   -0.7210    1.8950 ca        1 3JC      0.919900
     12 C5          2.4280    0.3770   -1.2900 c         1 3JC      0.631700
     13 C6          3.6810    0.7200   -0.5180 cx        1 3JC     -0.224700
     14 C7          4.3440   -0.4300    0.2020 cx        1 3JC     -0.023700
     15 C8          5.8010   -0.3970    0.5180 cx        1 3JC      0.023300
     16 C9          3.3940    0.4690    0.9640 cx        1 3JC     -0.179000
     17 C10         6.5320    0.9400    0.6750 cx        1 3JC     -0.074200
     18 H1          5.9450    1.8750    0.5880 hc        1 3JC      0.085700
     19 H2          7.1670   -0.9910   -2.2590 ha        1 3JC      0.127000
     20 H3          8.0510    0.6360   -2.0820 ha        1 3JC      0.127000
     21 H4          6.8610   -3.1800    2.6810 ha        1 3JC      0.167500
     22 H5          0.0410    0.0470   -2.5220 hc        1 3JC      0.070700
     23 H6         -0.5330   -1.6320   -2.1210 hc        1 3JC      0.070700
     24 H7         -1.5990   -0.2070   -1.7660 hc        1 3JC      0.070700
     25 H8         -1.7100   -1.3830    2.8850 hn        1 3JC      0.450300
     26 H9         -0.3690   -1.0560    3.8970 hn        1 3JC      0.450300
     27 H10         4.1510    3.2350    0.7820 ha        1 3JC      0.000500
     28 H11         4.4940    3.8160    0.8400 ha        1 3JC      0.000500
     29 H12         4.2610    1.5770   -0.8880 hc        1 3JC      0.122700
     30 H13         3.7550    1.1190    1.7740 hc        1 3JC      0.123700
     31 H14         4.0030   -1.4590   -0.0470 hc        1 3JC      0.102700
     32 H15         7.3290    1.0170    1.4380 hc        1 3JC      0.085700
     33 O1          2.3000    0.4710   -2.5100 o         1 3JC     -0.526100
     34 N3         -0.7960   -1.0230    3.0040 nv        1 3JC     -0.950500
@<TRIPOS>BOND
     1    1    2 ar  
     2    1    8 1   
     3    1    9 ar  
     4    2    3 ar  
     5    2   12 1   
     6    3   10 ar  
     7    3   16 1   
     8    4    5 2   
     9    4   15 1   
    10    4   17 1   
    11    5   19 1   
    12    5   20 1   
    13    6    7 3   
    14    6   21 1   
    15    7   15 1   
    16    8   22 1   
    17    8   23 1   
    18    8   24 1   
    19    9   11 ar  
    20   10   11 ar  
    21   11   34 1   
    22   12   13 1   
    23   12   33 2   
    24   13   14 1   
    25   13   16 1   
    26   13   29 1   
    27   14   15 1   
    28   14   16 1   
    29   14   31 1   
    30   15   17 1   
    31   16   30 1   
    32   17   18 1   
    33   17   32 1   
    34   25   34 1   
    35   26   34 1   
    36   27   28 1   
@<TRIPOS>SUBSTRUCTURE
     1 3JC         1 TEMP              0 ****  ****    0 ROOT
