@<TRIPOS>MOLECULE
3JD
   45    48     1     0     0
SMALL
bcc


@<TRIPOS>ATOM
      1 CAM         0.0420    0.2300   -0.1300 c3        1 3JD     -0.071400
      2 CAK         1.5560    0.2610   -0.0920 c3        1 3JD     -0.079400
      3 CAL         2.0800   -0.0190    1.3160 c3        1 3JD      0.160800
      4 NAP         1.4810    0.8370    2.3220 n7        1 3JD     -0.822200
      5 CAN         0.0340    0.8430    2.3050 c3        1 3JD      0.173800
      6 CAW        -0.5310    1.1840    0.9120 c3        1 3JD     -0.036400
      7 CAR        -2.0240    1.1440    0.9360 ca        1 3JD     -0.033300
      8 CAF        -2.7160   -0.0460    1.1930 ca        1 3JD     -0.116000
      9 CAH        -4.1080   -0.0800    1.2110 ca        1 3JD     -0.104500
     10 CAE        -2.7560    2.3160    0.7020 ca        1 3JD     -0.116000
     11 CAG        -4.1460    2.3080    0.7180 ca        1 3JD     -0.104500
     12 CAS        -4.8310    1.1020    0.9650 ca        1 3JD     -0.047200
     13 NAX        -6.2670    1.0930    0.9630 na        1 3JD      0.278700
     14 CAJ        -7.0350    1.8970    0.1380 cc        1 3JD     -0.090100
     15 NAO        -6.9940    0.3100    1.7820 nc        1 3JD     -0.272400
     16 CAV        -8.3070    0.5980    1.5090 ca        1 3JD     -0.034000
     17 CAU        -8.3950    1.6120    0.4500 ca        1 3JD     -0.165000
     18 CAI        -9.6380    2.0610   -0.0030 ca        1 3JD      0.042000
     19 CAC       -10.7860    1.5280    0.5630 ca        1 3JD     -0.192000
     20 CAD       -10.7240    0.5570    1.5790 ca        1 3JD     -0.018000
     21 CAT        -9.5120    0.0820    2.0660 ca        1 3JD     -0.211600
     22 CAQ        -9.4000   -0.8640    3.1590 c         1 3JD      0.595700
     23 OAB        -8.6700   -0.9130    4.1320 o         1 3JD     -0.390100
     24 NAA       -10.3610   -2.0610    3.0610 nz        1 3JD     -0.775400
     25 H1         -0.3180    0.5240   -1.1490 hc        1 3JD      0.043700
     26 H2         -0.3200   -0.8120    0.0720 hc        1 3JD      0.043700
     27 H3          1.9690   -0.5150   -0.7870 hc        1 3JD      0.054700
     28 H4          1.9220    1.2620   -0.4390 hc        1 3JD      0.054700
     29 H5          1.9140   -1.1140    1.5420 h1        1 3JD      0.034200
     30 H6          3.1900    0.1700    1.3380 h1        1 3JD      0.034200
     31 H7          1.8130    0.5860    3.2340 hn        1 3JD      0.372800
     32 H9         -0.3090    1.6250    3.0390 h1        1 3JD      0.030200
     33 H10        -0.4050   -0.1480    2.6270 h1        1 3JD      0.030200
     34 H11        -0.1960    2.2290    0.6470 hc        1 3JD      0.077700
     35 H12        -2.1550   -0.9750    1.3850 ha        1 3JD      0.155000
     36 H13        -4.6240   -1.0300    1.4200 ha        1 3JD      0.151000
     37 H14        -2.2260    3.2630    0.5070 ha        1 3JD      0.155000
     38 H15        -4.6930    3.2490    0.5490 ha        1 3JD      0.151000
     39 H16        -6.6070    2.5840   -0.5960 h4        1 3JD      0.209000
     40 H17        -9.7010    2.8280   -0.7920 ha        1 3JD      0.164000
     41 H18       -11.7750    1.8750    0.2240 ha        1 3JD      0.164000
     42 H19       -11.6780    0.2050    2.0060 ha        1 3JD      0.125000
     43 H20       -10.2240   -2.6890    3.8600 hn        1 3JD      0.459133
     44 H21       -10.1720   -2.5700    2.1940 hn        1 3JD      0.459133
     45 HAA3      -11.3290   -1.7370    3.0480 hn        1 3JD      0.459133
@<TRIPOS>BOND
     1    1    2 1   
     2    1    6 1   
     3    1   25 1   
     4    1   26 1   
     5    2    3 1   
     6    2   27 1   
     7    2   28 1   
     8    3    4 1   
     9    3   29 1   
    10    3   30 1   
    11    4    5 1   
    12    4   31 1   
    13    5    6 1   
    14    5   32 1   
    15    5   33 1   
    16    6    7 1   
    17    6   34 1   
    18    7    8 ar  
    19    7   10 ar  
    20    8    9 ar  
    21    8   35 1   
    22    9   12 ar  
    23    9   36 1   
    24   10   11 ar  
    25   10   37 1   
    26   11   12 ar  
    27   11   38 1   
    28   12   13 1   
    29   13   14 1   
    30   13   15 1   
    31   14   17 2   
    32   14   39 1   
    33   15   16 2   
    34   16   17 ar  
    35   16   21 ar  
    36   17   18 ar  
    37   18   19 ar  
    38   18   40 1   
    39   19   20 ar  
    40   19   41 1   
    41   20   21 ar  
    42   20   42 1   
    43   21   22 1   
    44   22   23 2   
    45   22   24 1   
    46   24   43 1   
    47   24   44 1   
    48   24   45 1   
@<TRIPOS>SUBSTRUCTURE
     1 3JD         1 TEMP              0 ****  ****    0 ROOT
