@<TRIPOS>MOLECULE
3JD
   45    48     1     0     0
SMALL
bcc


@<TRIPOS>ATOM
      1 CAM         0.0420    0.2370   -0.1320 c3        1 3JD     -0.071400
      2 CAK         1.5550    0.2670   -0.0950 c3        1 3JD     -0.079400
      3 CAL         2.0800   -0.0170    1.3120 c3        1 3JD      0.160800
      4 NAP         1.4820    0.8360    2.3210 n3        1 3JD     -0.822200
      5 CAN         0.0340    0.8410    2.3040 c3        1 3JD      0.173800
      6 CAW        -0.5310    1.1870    0.9130 c3        1 3JD     -0.036400
      7 CAR        -2.0240    1.1460    0.9380 ca        1 3JD     -0.033300
      8 CAF        -2.7160   -0.0440    1.1910 ca        1 3JD     -0.116000
      9 CAH        -4.1070   -0.0790    1.2100 ca        1 3JD     -0.104500
     10 CAE        -2.7560    2.3190    0.7080 ca        1 3JD     -0.116000
     11 CAG        -4.1470    2.3110    0.7250 ca        1 3JD     -0.104500
     12 CAS        -4.8320    1.1030    0.9680 ca        1 3JD     -0.047200
     13 NAX        -6.2670    1.0950    0.9670 na        1 3JD      0.278700
     14 CAJ        -7.0350    1.9010    0.1450 cc        1 3JD     -0.090100
     15 NAO        -6.9940    0.3080    1.7840 nc        1 3JD     -0.272400
     16 CAV        -8.3070    0.5970    1.5120 ca        1 3JD     -0.034000
     17 CAU        -8.3950    1.6140    0.4570 ca        1 3JD     -0.165000
     18 CAI        -9.6390    2.0640    0.0060 ca        1 3JD      0.042000
     19 CAC       -10.7860    1.5290    0.5710 ca        1 3JD     -0.192000
     20 CAD       -10.7240    0.5550    1.5830 ca        1 3JD     -0.018000
     21 CAT        -9.5110    0.0790    2.0680 ca        1 3JD     -0.211600
     22 CAQ        -9.3980   -0.8710    3.1590 c         1 3JD      0.595700
     23 OAB        -8.6670   -0.9240    4.1300 o         1 3JD     -0.390100
     24 NAA       -10.3600   -2.0670    3.0580 n4        1 3JD     -0.775400
     25 H1         -0.3190    0.5340   -1.1500 hc        1 3JD      0.043700
     26 H2         -0.3200   -0.8060    0.0660 hc        1 3JD      0.043700
     27 H3          1.9680   -0.5060   -0.7930 hc        1 3JD      0.054700
     28 H4          1.9210    1.2700   -0.4390 hc        1 3JD      0.054700
     29 H5          3.1900    0.1720    1.3340 h1        1 3JD      0.034200
     30 H6          1.9150   -1.1130    1.5340 h1        1 3JD      0.034200
     31 H7          1.8140    0.5820    3.2320 hn        1 3JD      0.372800
     32 H9         -0.3080    1.6210    3.0420 h1        1 3JD      0.030200
     33 H10        -0.4040   -0.1510    2.6240 h1        1 3JD      0.030200
     34 H11        -0.1970    2.2330    0.6510 hc        1 3JD      0.077700
     35 H12        -2.1540   -0.9740    1.3800 ha        1 3JD      0.155000
     36 H13        -4.6230   -1.0300    1.4160 ha        1 3JD      0.151000
     37 H14        -2.2270    3.2670    0.5160 ha        1 3JD      0.155000
     38 H15        -4.6940    3.2520    0.5590 ha        1 3JD      0.151000
     39 H16        -6.6090    2.5900   -0.5880 h4        1 3JD      0.209000
     40 H17        -9.7030    2.8340   -0.7810 ha        1 3JD      0.164000
     41 H18       -11.7760    1.8770    0.2330 ha        1 3JD      0.164000
     42 H19       -11.6770    0.2010    2.0100 ha        1 3JD      0.125000
     43 H20       -10.2210   -2.6980    3.8540 hn        1 3JD      0.459133
     44 H21       -10.1730   -2.5730    2.1880 hn        1 3JD      0.459133
     45 HAA3      -11.3280   -1.7430    3.0480 hn        1 3JD      0.459133
@<TRIPOS>BOND
     1    1    2 1   
     2    1    6 1   
     3    1   25 1   
     4    1   26 1   
     5    2    3 1   
     6    2   27 1   
     7    2   28 1   
     8    3    4 1   
     9    3   29 1   
    10    3   30 1   
    11    4    5 1   
    12    4   31 1   
    13    5    6 1   
    14    5   32 1   
    15    5   33 1   
    16    6    7 1   
    17    6   34 1   
    18    7    8 ar  
    19    7   10 ar  
    20    8    9 ar  
    21    8   35 1   
    22    9   12 ar  
    23    9   36 1   
    24   10   11 ar  
    25   10   37 1   
    26   11   12 ar  
    27   11   38 1   
    28   12   13 1   
    29   13   14 1   
    30   13   15 1   
    31   14   17 2   
    32   14   39 1   
    33   15   16 2   
    34   16   17 ar  
    35   16   21 ar  
    36   17   18 ar  
    37   18   19 ar  
    38   18   40 1   
    39   19   20 ar  
    40   19   41 1   
    41   20   21 ar  
    42   20   42 1   
    43   21   22 1   
    44   22   23 2   
    45   22   24 1   
    46   24   43 1   
    47   24   44 1   
    48   24   45 1   
@<TRIPOS>SUBSTRUCTURE
     1 3JD         1 TEMP              0 ****  ****    0 ROOT
