@<TRIPOS>MOLECULE
3JE
   47    50     1     0     0
SMALL
bcc


@<TRIPOS>ATOM
      1 C27         0.0600   -0.0690    0.0680 ca        1 3JE     -0.065500
      2 C26         1.4210   -0.0140    0.3520 ca        1 3JE     -0.133000
      3 C25         1.8610    0.0970    1.6730 ca        1 3JE     -0.067000
      4 C24         0.9350    0.1530    2.7170 ca        1 3JE     -0.133000
      5 C23        -0.4300    0.0990    2.4470 ca        1 3JE     -0.065500
      6 C22        -0.8760   -0.0120    1.1170 ca        1 3JE     -0.103000
      7 C21        -2.2510   -0.0670    0.8380 cg        1 3JE      0.243000
      8 C20        -3.4320   -0.1160    0.5970 c1        1 3JE     -0.706500
      9 P7         -4.9600   -0.1870    0.2900 p5        1 3JE      1.893000
     10 C6         -5.2430   -1.4530   -0.6370 ca        1 3JE     -0.596500
     11 C5         -6.2100   -1.4190   -1.6480 ca        1 3JE     -0.024667
     12 C4         -6.4430   -2.5250   -2.4600 ca        1 3JE     -0.142333
     13 C3         -5.7030   -3.6940   -2.2670 ca        1 3JE     -0.041000
     14 C2         -4.7340   -3.7480   -1.2620 ca        1 3JE     -0.142333
     15 C1         -4.5120   -2.6340   -0.4590 ca        1 3JE     -0.024667
     16 C14        -5.7540   -0.3230    1.6680 ca        1 3JE     -0.596500
     17 C19        -5.3580    0.4310    2.7790 ca        1 3JE     -0.024667
     18 C18        -6.0250    0.3280    3.9950 ca        1 3JE     -0.142333
     19 C17        -7.1110   -0.5440    4.1160 ca        1 3JE     -0.041000
     20 C16        -7.5200   -1.3040    3.0180 ca        1 3JE     -0.142333
     21 C15        -6.8430   -1.1890    1.8080 ca        1 3JE     -0.024667
     22 C8         -5.4080    1.1470   -0.4610 ca        1 3JE     -0.596500
     23 C13        -6.6700    1.7150   -0.2470 ca        1 3JE     -0.024667
     24 C12        -7.0540    2.8820   -0.8990 ca        1 3JE     -0.142333
     25 C11        -6.1700    3.5040   -1.7840 ca        1 3JE     -0.041000
     26 C10        -4.9070    2.9520   -2.0110 ca        1 3JE     -0.142333
     27 C9         -4.5360    1.7840   -1.3520 ca        1 3JE     -0.024667
     28 H1         -0.2840   -0.1580   -0.9740 ha        1 3JE      0.146000
     29 H2          2.1540   -0.0590   -0.4700 ha        1 3JE      0.158000
     30 H3          2.9400    0.1400    1.8920 ha        1 3JE      0.157000
     31 H4          1.2840    0.2400    3.7580 ha        1 3JE      0.158000
     32 H5         -1.1570    0.1420    3.2720 ha        1 3JE      0.146000
     33 H6         -6.7870   -0.4900   -1.8000 ha        1 3JE      0.143500
     34 H7         -7.2070   -2.4780   -3.2520 ha        1 3JE      0.158667
     35 H8         -5.8830   -4.5720   -2.9090 ha        1 3JE      0.158000
     36 H9         -4.1500   -4.6680   -1.1070 ha        1 3JE      0.158667
     37 H10        -3.7460   -2.6680    0.3340 ha        1 3JE      0.143500
     38 H11        -4.4990    1.1150    2.6750 ha        1 3JE      0.143500
     39 H12        -5.7020    0.9300    4.8590 ha        1 3JE      0.158667
     40 H13        -7.6430   -0.6320    5.0780 ha        1 3JE      0.158000
     41 H14        -8.3740   -1.9930    3.1110 ha        1 3JE      0.158667
     42 H15        -7.1590   -1.7920    0.9390 ha        1 3JE      0.143500
     43 H16        -7.3590    1.2220    0.4590 ha        1 3JE      0.143500
     44 H17        -8.0490    3.3160   -0.7170 ha        1 3JE      0.158667
     45 H18        -6.4680    4.4310   -2.3020 ha        1 3JE      0.158000
     46 H19        -4.2080    3.4400   -2.7090 ha        1 3JE      0.158667
     47 H20        -3.5390    1.3450   -1.5230 ha        1 3JE      0.143500
@<TRIPOS>BOND
     1    1    2 ar  
     2    1    6 ar  
     3    1   28 1   
     4    2    3 ar  
     5    2   29 1   
     6    3    4 ar  
     7    3   30 1   
     8    4    5 ar  
     9    4   31 1   
    10    5    6 ar  
    11    5   32 1   
    12    6    7 1   
    13    7    8 3   
    14    8    9 1   
    15    9   10 1   
    16    9   16 1   
    17    9   22 1   
    18   10   11 ar  
    19   10   15 ar  
    20   11   12 ar  
    21   11   33 1   
    22   12   13 ar  
    23   12   34 1   
    24   13   14 ar  
    25   13   35 1   
    26   14   15 ar  
    27   14   36 1   
    28   15   37 1   
    29   16   17 ar  
    30   16   21 ar  
    31   17   18 ar  
    32   17   38 1   
    33   18   19 ar  
    34   18   39 1   
    35   19   20 ar  
    36   19   40 1   
    37   20   21 ar  
    38   20   41 1   
    39   21   42 1   
    40   22   23 ar  
    41   22   27 ar  
    42   23   24 ar  
    43   23   43 1   
    44   24   25 ar  
    45   24   44 1   
    46   25   26 ar  
    47   25   45 1   
    48   26   27 ar  
    49   26   46 1   
    50   27   47 1   
@<TRIPOS>SUBSTRUCTURE
     1 3JE         1 TEMP              0 ****  ****    0 ROOT
