@<TRIPOS>MOLECULE
3JE
   47    50     1     0     0
SMALL
bcc


@<TRIPOS>ATOM
      1 C27         0.0600   -0.0750    0.0660 ca        1 3JE     -0.065500
      2 C26         1.4220   -0.0220    0.3490 ca        1 3JE     -0.133000
      3 C25         1.8610    0.0880    1.6700 ca        1 3JE     -0.067000
      4 C24         0.9360    0.1450    2.7150 ca        1 3JE     -0.133000
      5 C23        -0.4280    0.0930    2.4460 ca        1 3JE     -0.065500
      6 C22        -0.8760   -0.0170    1.1160 ca        1 3JE     -0.103000
      7 C21        -2.2510   -0.0700    0.8380 cg        1 3JE      0.243000
      8 C20        -3.4320   -0.1170    0.5970 c1        1 3JE     -0.706500
      9 P7         -4.9600   -0.1860    0.2910 p5        1 3JE      1.893000
     10 C6         -5.2450   -1.4520   -0.6360 ca        1 3JE     -0.596500
     11 C5         -6.2120   -1.4170   -1.6470 ca        1 3JE     -0.024667
     12 C4         -6.4470   -2.5230   -2.4580 ca        1 3JE     -0.142333
     13 C3         -5.7090   -3.6930   -2.2650 ca        1 3JE     -0.041000
     14 C2         -4.7410   -3.7480   -1.2590 ca        1 3JE     -0.142333
     15 C1         -4.5160   -2.6350   -0.4570 ca        1 3JE     -0.024667
     16 C14        -5.7540   -0.3210    1.6680 ca        1 3JE     -0.596500
     17 C19        -5.3560    0.4330    2.7800 ca        1 3JE     -0.024667
     18 C18        -6.0230    0.3310    3.9950 ca        1 3JE     -0.142333
     19 C17        -7.1110   -0.5380    4.1170 ca        1 3JE     -0.041000
     20 C16        -7.5220   -1.2970    3.0190 ca        1 3JE     -0.142333
     21 C15        -6.8450   -1.1840    1.8080 ca        1 3JE     -0.024667
     22 C8         -5.4060    1.1490   -0.4610 ca        1 3JE     -0.596500
     23 C13        -6.6670    1.7180   -0.2470 ca        1 3JE     -0.024667
     24 C12        -7.0490    2.8860   -0.8990 ca        1 3JE     -0.142333
     25 C11        -6.1650    3.5060   -1.7850 ca        1 3JE     -0.041000
     26 C10        -4.9030    2.9520   -2.0130 ca        1 3JE     -0.142333
     27 C9         -4.5340    1.7840   -1.3530 ca        1 3JE     -0.024667
     28 H1         -0.2840   -0.1630   -0.9760 ha        1 3JE      0.146000
     29 H2          2.1530   -0.0680   -0.4730 ha        1 3JE      0.158000
     30 H3          2.9410    0.1300    1.8890 ha        1 3JE      0.157000
     31 H4          1.2860    0.2320    3.7560 ha        1 3JE      0.158000
     32 H5         -1.1560    0.1380    3.2710 ha        1 3JE      0.146000
     33 H6         -6.7870   -0.4870   -1.8000 ha        1 3JE      0.143500
     34 H7         -7.2110   -2.4760   -3.2510 ha        1 3JE      0.158667
     35 H8         -5.8900   -4.5720   -2.9050 ha        1 3JE      0.158000
     36 H9         -4.1580   -4.6700   -1.1040 ha        1 3JE      0.158667
     37 H10        -3.7510   -2.6700    0.3360 ha        1 3JE      0.143500
     38 H11        -4.4960    1.1150    2.6750 ha        1 3JE      0.143500
     39 H12        -5.6980    0.9320    4.8590 ha        1 3JE      0.158667
     40 H13        -7.6430   -0.6250    5.0790 ha        1 3JE      0.158000
     41 H14        -8.3780   -1.9840    3.1120 ha        1 3JE      0.158667
     42 H15        -7.1630   -1.7860    0.9400 ha        1 3JE      0.143500
     43 H16        -7.3570    1.2270    0.4600 ha        1 3JE      0.143500
     44 H17        -8.0440    3.3220   -0.7170 ha        1 3JE      0.158667
     45 H18        -6.4620    4.4330   -2.3030 ha        1 3JE      0.158000
     46 H19        -4.2030    3.4380   -2.7110 ha        1 3JE      0.158667
     47 H20        -3.5380    1.3430   -1.5240 ha        1 3JE      0.143500
@<TRIPOS>BOND
     1    1    2 ar  
     2    1    6 ar  
     3    1   28 1   
     4    2    3 ar  
     5    2   29 1   
     6    3    4 ar  
     7    3   30 1   
     8    4    5 ar  
     9    4   31 1   
    10    5    6 ar  
    11    5   32 1   
    12    6    7 1   
    13    7    8 3   
    14    8    9 1   
    15    9   10 1   
    16    9   16 1   
    17    9   22 1   
    18   10   11 ar  
    19   10   15 ar  
    20   11   12 ar  
    21   11   33 1   
    22   12   13 ar  
    23   12   34 1   
    24   13   14 ar  
    25   13   35 1   
    26   14   15 ar  
    27   14   36 1   
    28   15   37 1   
    29   16   17 ar  
    30   16   21 ar  
    31   17   18 ar  
    32   17   38 1   
    33   18   19 ar  
    34   18   39 1   
    35   19   20 ar  
    36   19   40 1   
    37   20   21 ar  
    38   20   41 1   
    39   21   42 1   
    40   22   23 ar  
    41   22   27 ar  
    42   23   24 ar  
    43   23   43 1   
    44   24   25 ar  
    45   24   44 1   
    46   25   26 ar  
    47   25   45 1   
    48   26   27 ar  
    49   26   46 1   
    50   27   47 1   
@<TRIPOS>SUBSTRUCTURE
     1 3JE         1 TEMP              0 ****  ****    0 ROOT
