@<TRIPOS>MOLECULE
3JF
   67    69     1     0     0
SMALL
bcc


@<TRIPOS>ATOM
      1 CAA         0.7140    1.9210    0.1690 c3        1 3JF     -0.192100
      2 CAV         2.0920    1.4120   -0.0710 c         1 3JF      0.561100
      3 OAF         3.1560    1.8720    0.3070 o         1 3JF     -0.408100
      4 NAT         2.1650    0.1330   -0.8970 n4        1 3JF     -0.689800
      5 CBE         3.5540   -0.4030   -1.1090 c3        1 3JF      0.065500
      6 CBG         3.5380   -1.9430   -1.3490 c3        1 3JF     -0.056000
      7 CAD         2.5330   -2.3300   -2.4220 c3        1 3JF     -0.115433
      8 CAE         4.9340   -2.3730   -1.7800 c3        1 3JF     -0.115433
      9 CAC         3.1940   -2.6400   -0.0390 c3        1 3JF     -0.115433
     10 CAX         4.1880    0.3330   -2.3120 c         1 3JF      0.662100
     11 OAH         3.5040    0.5270   -3.3400 o         1 3JF     -0.601100
     12 N           5.5050    0.7340   -2.2560 n         1 3JF     -0.438800
     13 CD2         6.2710    0.9310   -1.0340 c3        1 3JF      0.065000
     14 CG          7.3660    1.9880   -1.3390 c3        1 3JF      0.147100
     15 OD1         6.9610    3.1830   -0.7080 oh        1 3JF     -0.585800
     16 CB          7.3570    2.1720   -2.8690 c3        1 3JF     -0.132400
     17 CA          6.1060    1.4280   -3.3860 c3        1 3JF      0.050700
     18 C           6.5020    0.4590   -4.5110 c         1 3JF      0.520100
     19 O           6.4870   -0.7610   -4.4890 o         1 3JF     -0.398100
     20 NAS         6.9420    1.1130   -5.7910 n4        1 3JF     -0.683800
     21 CAO         8.2930    0.6140   -6.2600 c3        1 3JF      0.192100
     22 CAY         8.6250    1.1950   -7.5820 ca        1 3JF     -0.229300
     23 CAK         9.3640    2.3830   -7.6680 ca        1 3JF     -0.085000
     24 CAM         9.7140    2.9000   -8.9080 ca        1 3JF     -0.128000
     25 CAJ         8.2490    0.5280   -8.7560 ca        1 3JF     -0.085000
     26 CAL         8.5990    1.0450   -9.9980 ca        1 3JF     -0.128000
     27 CBA         9.3320    2.2430  -10.0950 ca        1 3JF      0.101000
     28 CBB         9.7070    2.7840  -11.3710 cc        1 3JF     -0.237400
     29 SAU        11.2060    3.5240  -11.6440 ss        1 3JF     -0.047300
     30 CAN        10.7980    3.8060  -13.2660 cc        1 3JF      0.408300
     31 NAR         9.5920    3.3880  -13.6360 nd        1 3JF     -0.618000
     32 CAZ         8.9480    2.7930  -12.5550 cd        1 3JF      0.410600
     33 CAB         7.5760    2.2550  -12.7030 c3        1 3JF     -0.141400
     34 H1          0.1310    1.2050    0.8050 hc        1 3JF      0.124033
     35 H2          0.7880    2.9010    0.7160 hc        1 3JF      0.124033
     36 H3          0.1660    2.0900   -0.7930 hc        1 3JF      0.124033
     37 H4          1.6090   -0.5930   -0.4240 hn        1 3JF      0.477300
     38 H5          4.1390   -0.2040   -0.1600 hx        1 3JF      0.133700
     39 H6          1.4840   -2.2850   -2.0400 hc        1 3JF      0.063478
     40 H7          2.7240   -3.3840   -2.7470 hc        1 3JF      0.063478
     41 H8          2.6280   -1.6680   -3.3180 hc        1 3JF      0.063478
     42 H9          5.1720   -1.9920   -2.8040 hc        1 3JF      0.063478
     43 H10         4.9860   -3.4900   -1.8070 hc        1 3JF      0.063478
     44 H11         5.7020   -2.0050   -1.0590 hc        1 3JF      0.063478
     45 H12         3.8980   -2.3370    0.7730 hc        1 3JF      0.063478
     46 H13         3.2820   -3.7480   -0.1780 hc        1 3JF      0.063478
     47 H14         2.1470   -2.4300    0.2860 hc        1 3JF      0.063478
     48 H15         6.7440   -0.0430   -0.7310 h1        1 3JF      0.092200
     49 H16         5.6090    1.3130   -0.2040 h1        1 3JF      0.092200
     50 H17         8.3670    1.6390   -0.9730 h1        1 3JF      0.090700
     51 H18         7.7540    3.6570   -0.4220 ho        1 3JF      0.439000
     52 H19         7.2840    3.2600   -3.1210 hc        1 3JF      0.087200
     53 H20         8.2940    1.7550   -3.3110 hc        1 3JF      0.087200
     54 H21         5.3480    2.1500   -3.8230 h1        1 3JF      0.114700
     55 H22         6.9830    2.1310   -5.6760 hn        1 3JF      0.461800
     56 H23         9.0460    0.9120   -5.4760 hx        1 3JF      0.109700
     57 H24         8.2310   -0.5130   -6.3070 hx        1 3JF      0.109700
     58 H25         9.6870    2.9030   -6.7530 ha        1 3JF      0.136000
     59 H26        10.3000    3.8330   -8.9690 ha        1 3JF      0.167500
     60 H27         7.6970   -0.4230   -8.7020 ha        1 3JF      0.136000
     61 H28         8.3210    0.5040  -10.9180 ha        1 3JF      0.167500
     62 H29        11.4700    4.2960  -13.9830 h5        1 3JF      0.077100
     63 H30         7.0510    2.2590  -11.7160 hc        1 3JF      0.062700
     64 H31         7.6240    1.2040  -13.0890 hc        1 3JF      0.062700
     65 H32         6.9790    2.8630  -13.4290 hc        1 3JF      0.062700
     66 HAT2        1.7400    0.3070   -1.8230 hn        1 3JF      0.477300
     67 HAS2        6.2540    0.9030   -6.5290 hn        1 3JF      0.461800
@<TRIPOS>BOND
     1    1    2 1   
     2    1   34 1   
     3    1   35 1   
     4    1   36 1   
     5    2    3 2   
     6    2    4 1   
     7    4    5 1   
     8    4   37 1   
     9    4   66 1   
    10    5    6 1   
    11    5   10 1   
    12    5   38 1   
    13    6    7 1   
    14    6    8 1   
    15    6    9 1   
    16    7   39 1   
    17    7   40 1   
    18    7   41 1   
    19    8   42 1   
    20    8   43 1   
    21    8   44 1   
    22    9   45 1   
    23    9   46 1   
    24    9   47 1   
    25   10   11 2   
    26   10   12 1   
    27   12   13 1   
    28   12   17 1   
    29   13   14 1   
    30   13   48 1   
    31   13   49 1   
    32   14   15 1   
    33   14   16 1   
    34   14   50 1   
    35   15   51 1   
    36   16   17 1   
    37   16   52 1   
    38   16   53 1   
    39   17   18 1   
    40   17   54 1   
    41   18   19 2   
    42   18   20 1   
    43   20   21 1   
    44   20   55 1   
    45   20   67 1   
    46   21   22 1   
    47   21   56 1   
    48   21   57 1   
    49   22   23 ar  
    50   22   25 ar  
    51   23   24 ar  
    52   23   58 1   
    53   24   27 ar  
    54   24   59 1   
    55   25   26 ar  
    56   25   60 1   
    57   26   27 ar  
    58   26   61 1   
    59   27   28 1   
    60   28   29 1   
    61   28   32 2   
    62   29   30 1   
    63   30   31 2   
    64   30   62 1   
    65   31   32 1   
    66   32   33 1   
    67   33   63 1   
    68   33   64 1   
    69   33   65 1   
@<TRIPOS>SUBSTRUCTURE
     1 3JF         1 TEMP              0 ****  ****    0 ROOT
