@<TRIPOS>MOLECULE
3JF
   67    69     1     0     0
SMALL
bcc


@<TRIPOS>ATOM
      1 CAA         0.6070    1.8480    0.0660 c3        1 3JF     -0.192100
      2 CAV         2.0050    1.3790   -0.1420 c         1 3JF      0.561100
      3 OAF         3.0470    1.8810    0.2420 o         1 3JF     -0.408100
      4 NAT         2.1320    0.0870   -0.9420 ny        1 3JF     -0.689800
      5 CBE         3.5400   -0.4080   -1.1210 c3        1 3JF      0.065500
      6 CBG         3.5770   -1.9530   -1.3300 c3        1 3JF     -0.056000
      7 CAD         2.6020   -2.3930   -2.4090 c3        1 3JF     -0.115433
      8 CAE         4.9930   -2.3450   -1.7300 c3        1 3JF     -0.115433
      9 CAC         3.2350   -2.6340   -0.0110 c3        1 3JF     -0.115433
     10 CAX         4.1690    0.3230   -2.3290 c         1 3JF      0.662100
     11 OAH         3.4960    0.4750   -3.3710 o         1 3JF     -0.601100
     12 N           5.4720    0.7680   -2.2610 n         1 3JF     -0.438800
     13 CD2         6.2110    1.0140   -1.0320 c3        1 3JF      0.065000
     14 CG          7.2770    2.0990   -1.3420 c3        1 3JF      0.147100
     15 OD1         6.8240    3.2930   -0.7420 oh        1 3JF     -0.585800
     16 CB          7.2860    2.2520   -2.8760 c3        1 3JF     -0.132400
     17 CA          6.0670    1.4580   -3.3960 c3        1 3JF      0.050700
     18 C           6.5120    0.4800   -4.4950 c         1 3JF      0.520100
     19 O           6.5360   -0.7390   -4.4480 o         1 3JF     -0.398100
     20 NAS         6.9500    1.1220   -5.7810 ny        1 3JF     -0.683800
     21 CAO         8.3240    0.6580   -6.2210 c3        1 3JF      0.192100
     22 CAY         8.6560    1.2220   -7.5500 ca        1 3JF     -0.229300
     23 CAK         9.3580    2.4320   -7.6500 ca        1 3JF     -0.085000
     24 CAM         9.7100    2.9340   -8.8960 ca        1 3JF     -0.128000
     25 CAJ         8.3190    0.5190   -8.7150 ca        1 3JF     -0.085000
     26 CAL         8.6700    1.0220   -9.9620 ca        1 3JF     -0.128000
     27 CBA         9.3660    2.2410  -10.0740 ca        1 3JF      0.101000
     28 CBB         9.7430    2.7670  -11.3560 cc        1 3JF     -0.237400
     29 SAU        11.2200    3.5490  -11.6240 ss        1 3JF     -0.047300
     30 CAN        10.8280    3.7840  -13.2570 cc        1 3JF      0.408300
     31 NAR         9.6410    3.3200  -13.6350 nd        1 3JF     -0.618000
     32 CAZ         9.0000    2.7270  -12.5500 cd        1 3JF      0.410600
     33 CAB         7.6480    2.1430  -12.7060 c3        1 3JF     -0.141400
     34 H1          0.0370    1.1260    0.7070 hc        1 3JF      0.124033
     35 H2          0.6410    2.8400    0.5940 hc        1 3JF      0.124033
     36 H3          0.0700    1.9800   -0.9080 hc        1 3JF      0.124033
     37 H4          1.7160    0.2280   -1.8770 hn        1 3JF      0.477300
     38 H5          4.1030   -0.1720   -0.1670 hx        1 3JF      0.133700
     39 H6          1.5470   -2.3750   -2.0440 hc        1 3JF      0.063478
     40 H7          2.6900   -1.7470   -3.3170 hc        1 3JF      0.063478
     41 H8          2.8320   -3.4470   -2.7090 hc        1 3JF      0.063478
     42 H9          5.7380   -1.9380   -1.0050 hc        1 3JF      0.063478
     43 H10         5.2350   -1.9780   -2.7580 hc        1 3JF      0.063478
     44 H11         5.0810   -3.4610   -1.7330 hc        1 3JF      0.063478
     45 H12         2.1770   -2.4510    0.2950 hc        1 3JF      0.063478
     46 H13         3.9160   -2.2920    0.8050 hc        1 3JF      0.063478
     47 H14         3.3610   -3.7410   -0.1250 hc        1 3JF      0.063478
     48 H15         5.5250    1.3910   -0.2210 h1        1 3JF      0.092200
     49 H16         6.7100    0.0620   -0.7020 h1        1 3JF      0.092200
     50 H17         8.2820    1.7900   -0.9550 h1        1 3JF      0.090700
     51 H18         7.5970    3.7980   -0.4540 ho        1 3JF      0.439000
     52 H19         8.2430    1.8570   -3.2950 hc        1 3JF      0.087200
     53 H20         7.1820    3.3330   -3.1510 hc        1 3JF      0.087200
     54 H21         5.2940    2.1470   -3.8590 h1        1 3JF      0.114700
     55 H22         6.2810    0.8760   -6.5250 hn        1 3JF      0.461800
     56 H23         9.0550    0.9970   -5.4320 hx        1 3JF      0.109700
     57 H24         8.2990   -0.4710   -6.2450 hx        1 3JF      0.109700
     58 H25         9.6510    2.9800   -6.7420 ha        1 3JF      0.136000
     59 H26        10.2660    3.8840   -8.9680 ha        1 3JF      0.167500
     60 H27         7.7960   -0.4480   -8.6480 ha        1 3JF      0.136000
     61 H28         8.4230    0.4530  -10.8740 ha        1 3JF      0.167500
     62 H29        11.4930    4.2810  -13.9750 h5        1 3JF      0.077100
     63 H30         7.7350    1.0860  -13.0690 hc        1 3JF      0.062367
     64 H31         7.1090    2.1490  -11.7270 hc        1 3JF      0.062367
     65 H32         7.0430    2.7160  -13.4530 hc        1 3JF      0.062367
     66 HAT2        1.5920   -0.6470   -0.4620 hn        1 3JF      0.477300
     67 HAS2        6.9560    2.1430   -5.6870 hn        1 3JF      0.461800
@<TRIPOS>BOND
     1    1    2 1   
     2    1   34 1   
     3    1   35 1   
     4    1   36 1   
     5    2    3 2   
     6    2    4 1   
     7    4    5 1   
     8    4   37 1   
     9    4   66 1   
    10    5    6 1   
    11    5   10 1   
    12    5   38 1   
    13    6    7 1   
    14    6    8 1   
    15    6    9 1   
    16    7   39 1   
    17    7   40 1   
    18    7   41 1   
    19    8   42 1   
    20    8   43 1   
    21    8   44 1   
    22    9   45 1   
    23    9   46 1   
    24    9   47 1   
    25   10   11 2   
    26   10   12 1   
    27   12   13 1   
    28   12   17 1   
    29   13   14 1   
    30   13   48 1   
    31   13   49 1   
    32   14   15 1   
    33   14   16 1   
    34   14   50 1   
    35   15   51 1   
    36   16   17 1   
    37   16   52 1   
    38   16   53 1   
    39   17   18 1   
    40   17   54 1   
    41   18   19 2   
    42   18   20 1   
    43   20   21 1   
    44   20   55 1   
    45   20   67 1   
    46   21   22 1   
    47   21   56 1   
    48   21   57 1   
    49   22   23 ar  
    50   22   25 ar  
    51   23   24 ar  
    52   23   58 1   
    53   24   27 ar  
    54   24   59 1   
    55   25   26 ar  
    56   25   60 1   
    57   26   27 ar  
    58   26   61 1   
    59   27   28 1   
    60   28   29 1   
    61   28   32 2   
    62   29   30 1   
    63   30   31 2   
    64   30   62 1   
    65   31   32 1   
    66   32   33 1   
    67   33   63 1   
    68   33   64 1   
    69   33   65 1   
@<TRIPOS>SUBSTRUCTURE
     1 3JF         1 TEMP              0 ****  ****    0 ROOT
