@<TRIPOS>MOLECULE
3JF
   65    67     1     0     0
SMALL
bcc


@<TRIPOS>ATOM
      1 CAA         0.9490    1.9580   -0.7800 c3        1 3JF     -0.173100
      2 CAV         2.3000    1.2900   -0.7090 c         1 3JF      0.665100
      3 OAF         3.0670    1.4610    0.2610 o         1 3JF     -0.623100
      4 NAT         2.6490    0.4550   -1.7560 n         1 3JF     -0.563900
      5 CBE         3.9360   -0.1810   -1.8370 c3        1 3JF      0.053700
      6 CBG         3.8760   -1.6610   -2.3160 c3        1 3JF     -0.049000
      7 CAD         3.0300   -1.8300   -3.5670 c3        1 3JF     -0.096433
      8 CAE         5.2970   -2.1310   -2.5960 c3        1 3JF     -0.096433
      9 CAC         3.2890   -2.5070   -1.1940 c3        1 3JF     -0.096433
     10 CAX         4.8600    0.6370   -2.7820 c         1 3JF      0.644100
     11 OAH         4.5740    0.7690   -3.9920 o         1 3JF     -0.634100
     12 N           6.0240    1.1900   -2.2780 n         1 3JF     -0.443800
     13 CD2         6.2280    1.4540   -0.8640 c3        1 3JF      0.034000
     14 CG          7.1230    2.7120   -0.7400 c3        1 3JF      0.133100
     15 OD1         6.4050    3.8150   -0.2170 oh        1 3JF     -0.594800
     16 CB          7.5440    3.0790   -2.1680 c3        1 3JF     -0.088400
     17 CA          6.8510    2.0690   -3.1040 c3        1 3JF      0.026700
     18 C           7.8920    1.2860   -3.9390 c         1 3JF      0.651100
     19 O           9.1150    1.4960   -3.8160 o         1 3JF     -0.619100
     20 NAS         7.4010    0.3450   -4.8180 n         1 3JF     -0.553900
     21 CAO         8.2550   -0.3530   -5.7410 c3        1 3JF      0.131300
     22 CAY         8.4300    0.3190   -7.0740 ca        1 3JF     -0.115300
     23 CAK         9.2190    1.4710   -7.1720 ca        1 3JF     -0.115500
     24 CAM         9.4110    2.0870   -8.4040 ca        1 3JF     -0.120500
     25 CAJ         7.8350   -0.2080   -8.2230 ca        1 3JF     -0.115500
     26 CAL         8.0270    0.4060   -9.4580 ca        1 3JF     -0.120500
     27 CBA         8.8160    1.5610   -9.5630 ca        1 3JF     -0.005000
     28 CBB         9.0250    2.1950  -10.8420 cc        1 3JF     -0.145400
     29 SAU        10.5480    2.7210  -11.3590 ss        1 3JF     -0.092300
     30 CAN         9.8850    3.2690  -12.8270 cc        1 3JF      0.367300
     31 NAR         8.5780    3.0870  -12.9670 nd        1 3JF     -0.627000
     32 CAZ         8.0670    2.4670  -11.8260 cd        1 3JF      0.355600
     33 CAB         6.6240    2.1540  -11.7130 c3        1 3JF     -0.128400
     34 H1          0.8000    2.5630    0.1470 hc        1 3JF      0.070367
     35 H2          0.1370    1.1950   -0.8520 hc        1 3JF      0.070367
     36 H3          0.8960    2.6340   -1.6680 hc        1 3JF      0.070367
     37 H4          2.0840    0.4260   -2.5720 hn        1 3JF      0.323500
     38 H5          4.3750   -0.2040   -0.7920 h1        1 3JF      0.098700
     39 H6          3.1960   -2.8480   -3.9970 hc        1 3JF      0.043700
     40 H7          3.3070   -1.0690   -4.3360 hc        1 3JF      0.043700
     41 H8          1.9430   -1.7310   -3.3300 hc        1 3JF      0.043700
     42 H9          5.9610   -1.9170   -1.7240 hc        1 3JF      0.043700
     43 H10         5.3020   -3.2310   -2.7850 hc        1 3JF      0.043700
     44 H11         5.7100   -1.6150   -3.4980 hc        1 3JF      0.043700
     45 H12         2.2590   -2.1640   -0.9340 hc        1 3JF      0.043700
     46 H13         3.2340   -3.5740   -1.5170 hc        1 3JF      0.043700
     47 H14         3.9270   -2.4440   -0.2800 hc        1 3JF      0.043700
     48 H15         6.7420    0.5660   -0.4030 h1        1 3JF      0.072700
     49 H16         5.2480    1.6280   -0.3320 h1        1 3JF      0.072700
     50 H17         8.0100    2.4950   -0.0880 h1        1 3JF      0.054700
     51 H18         6.0730    3.5540    0.6510 ho        1 3JF      0.409000
     52 H19         8.6570    3.0280   -2.2720 hc        1 3JF      0.089700
     53 H20         7.2090    4.1180   -2.4140 hc        1 3JF      0.089700
     54 H21         6.1920    2.6180   -3.8440 h1        1 3JF      0.086700
     55 H22         6.4220    0.3400   -5.0120 hn        1 3JF      0.334500
     56 H23         7.8160   -1.3810   -5.8950 h1        1 3JF      0.067200
     57 H24         9.2740   -0.4690   -5.2650 h1        1 3JF      0.067200
     58 H25         9.6850    1.8840   -6.2610 ha        1 3JF      0.145000
     59 H26        10.0300    2.9940   -8.4730 ha        1 3JF      0.138500
     60 H27         7.2130   -1.1140   -8.1560 ha        1 3JF      0.145000
     61 H28         7.5610   -0.0170  -10.3620 ha        1 3JF      0.138500
     62 H29        10.4800    3.7430  -13.6140 h5        1 3JF      0.054100
     63 H30         6.4000    1.2010  -12.2560 hc        1 3JF      0.054700
     64 H31         5.9980    2.9670  -12.1590 hc        1 3JF      0.054700
     65 H32         6.3430    2.0300  -10.6380 hc        1 3JF      0.054700
@<TRIPOS>BOND
     1    1    2 1   
     2    1   34 1   
     3    1   35 1   
     4    1   36 1   
     5    2    3 2   
     6    2    4 1   
     7    4    5 1   
     8    4   37 1   
     9    5    6 1   
    10    5   10 1   
    11    5   38 1   
    12    6    7 1   
    13    6    8 1   
    14    6    9 1   
    15    7   39 1   
    16    7   40 1   
    17    7   41 1   
    18    8   42 1   
    19    8   43 1   
    20    8   44 1   
    21    9   45 1   
    22    9   46 1   
    23    9   47 1   
    24   10   11 2   
    25   10   12 1   
    26   12   13 1   
    27   12   17 1   
    28   13   14 1   
    29   13   48 1   
    30   13   49 1   
    31   14   15 1   
    32   14   16 1   
    33   14   50 1   
    34   15   51 1   
    35   16   17 1   
    36   16   52 1   
    37   16   53 1   
    38   17   18 1   
    39   17   54 1   
    40   18   19 2   
    41   18   20 1   
    42   20   21 1   
    43   20   55 1   
    44   21   22 1   
    45   21   56 1   
    46   21   57 1   
    47   22   23 ar  
    48   22   25 ar  
    49   23   24 ar  
    50   23   58 1   
    51   24   27 ar  
    52   24   59 1   
    53   25   26 ar  
    54   25   60 1   
    55   26   27 ar  
    56   26   61 1   
    57   27   28 1   
    58   28   29 1   
    59   28   32 2   
    60   29   30 1   
    61   30   31 2   
    62   30   62 1   
    63   31   32 1   
    64   32   33 1   
    65   33   63 1   
    66   33   64 1   
    67   33   65 1   
@<TRIPOS>SUBSTRUCTURE
     1 3JF         1 TEMP              0 ****  ****    0 ROOT
