@<TRIPOS>MOLECULE
3JG
   55    57     1     0     0
SMALL
bcc


@<TRIPOS>ATOM
      1 CAA         1.2190   -0.7000    0.0520 c3        1 3JG     -0.094100
      2 CBB         2.7100   -0.3930   -0.0690 c3        1 3JG     -0.039000
      3 CAB         3.3070   -0.2850    1.3240 c3        1 3JG     -0.094100
      4 CAC         3.3820   -1.5210   -0.8360 c3        1 3JG     -0.094100
      5 CAN         2.8450    0.9320   -0.8210 c3        1 3JG     -0.137400
      6 CAT         4.2540    1.4770   -0.9340 c         1 3JG      0.673100
      7 OAD         5.2820    0.7950   -0.7400 o         1 3JG     -0.625100
      8 N           4.3960    2.8280   -1.2400 n         1 3JG     -0.466800
      9 CD2         3.3070    3.6360   -1.7510 c3        1 3JG      0.085000
     10 CG          3.9210    4.7360   -2.6520 c3        1 3JG      0.129100
     11 OD1         3.3960    4.5330   -3.9530 oh        1 3JG     -0.599800
     12 CB          5.4410    4.5340   -2.5970 c3        1 3JG     -0.126400
     13 CA          5.6940    3.3930   -1.5920 c3        1 3JG      0.036700
     14 C           6.4740    3.9080   -0.3580 c         1 3JG      0.651100
     15 O           6.8640    5.0920   -0.2880 o         1 3JG     -0.626100
     16 NAR         6.7150    3.0020    0.6490 n         1 3JG     -0.549900
     17 CAM         7.5230    3.3300    1.7920 c3        1 3JG      0.131300
     18 CAV         8.9910    3.0440    1.6320 ca        1 3JG     -0.108300
     19 CAH         9.7730    3.8730    0.8200 ca        1 3JG     -0.117500
     20 CAJ        11.1380    3.6380    0.6850 ca        1 3JG     -0.109000
     21 CAG         9.5860    1.9740    2.3050 ca        1 3JG     -0.117500
     22 CAI        10.9520    1.7350    2.1750 ca        1 3JG     -0.109000
     23 CAW        11.7390    2.5660    1.3630 ca        1 3JG     -0.123500
     24 CAX        13.1480    2.3070    1.2370 cc        1 3JG      0.217900
     25 OAS        13.9140    3.1560    0.4190 os        1 3JG     -0.382800
     26 CAK        15.2190    2.6560    0.5000 cc        1 3JG      0.479300
     27 NAQ        15.3130    1.5890    1.2860 nd        1 3JG     -0.667000
     28 CAL        14.0170    1.3500    1.7620 cd        1 3JG      0.236900
     29 H1          1.0750   -1.6780    0.5700 hc        1 3JG      0.040700
     30 H2          0.7500   -0.7590   -0.9580 hc        1 3JG      0.040700
     31 H3          0.7020    0.0940    0.6430 hc        1 3JG      0.040700
     32 H4          4.4070   -0.0990    1.2600 hc        1 3JG      0.040700
     33 H5          2.8300    0.5510    1.8890 hc        1 3JG      0.040700
     34 H6          3.1390   -1.2360    1.8850 hc        1 3JG      0.040700
     35 H7          3.2400   -2.4870   -0.2920 hc        1 3JG      0.040700
     36 H8          4.4770   -1.3250   -0.9370 hc        1 3JG      0.040700
     37 H9          2.9360   -1.6190   -1.8540 hc        1 3JG      0.040700
     38 H10         2.1940    1.6920   -0.3110 hc        1 3JG      0.069200
     39 H11         2.4600    0.7920   -1.8690 hc        1 3JG      0.069200
     40 H12         2.7620    4.1080   -0.8890 h1        1 3JG      0.064200
     41 H13         2.5790    3.0190   -2.3480 h1        1 3JG      0.064200
     42 H14         3.6320    5.7560   -2.2840 h1        1 3JG      0.057700
     43 H15         3.8040    5.1930   -4.5260 ho        1 3JG      0.408000
     44 H16         5.9580    5.4730   -2.2750 hc        1 3JG      0.082200
     45 H17         5.8320    4.2390   -3.6030 hc        1 3JG      0.082200
     46 H18         6.3390    2.5910   -2.0640 h1        1 3JG      0.088700
     47 H19         6.5390    2.0350    0.4770 hn        1 3JG      0.338500
     48 H20         7.1230    2.7430    2.6690 h1        1 3JG      0.067700
     49 H21         7.3990    4.4310    2.0140 h1        1 3JG      0.067700
     50 H22         9.2950    4.7150    0.2900 ha        1 3JG      0.147500
     51 H23        11.7530    4.2920    0.0470 ha        1 3JG      0.142000
     52 H24         8.9770    1.3160    2.9430 ha        1 3JG      0.147500
     53 H25        11.4160    0.8920    2.7080 ha        1 3JG      0.142000
     54 H26        15.9720    3.1930   -0.0790 h5        1 3JG      0.088100
     55 H27        13.8080    0.5210    2.4380 h4        1 3JG      0.053100
@<TRIPOS>BOND
     1    1    2 1   
     2    1   29 1   
     3    1   30 1   
     4    1   31 1   
     5    2    3 1   
     6    2    4 1   
     7    2    5 1   
     8    3   32 1   
     9    3   33 1   
    10    3   34 1   
    11    4   35 1   
    12    4   36 1   
    13    4   37 1   
    14    5    6 1   
    15    5   38 1   
    16    5   39 1   
    17    6    7 2   
    18    6    8 1   
    19    8    9 1   
    20    8   13 1   
    21    9   10 1   
    22    9   40 1   
    23    9   41 1   
    24   10   11 1   
    25   10   12 1   
    26   10   42 1   
    27   11   43 1   
    28   12   13 1   
    29   12   44 1   
    30   12   45 1   
    31   13   14 1   
    32   13   46 1   
    33   14   15 2   
    34   14   16 1   
    35   16   17 1   
    36   16   47 1   
    37   17   18 1   
    38   17   48 1   
    39   17   49 1   
    40   18   19 ar  
    41   18   21 ar  
    42   19   20 ar  
    43   19   50 1   
    44   20   23 ar  
    45   20   51 1   
    46   21   22 ar  
    47   21   52 1   
    48   22   23 ar  
    49   22   53 1   
    50   23   24 1   
    51   24   25 1   
    52   24   28 2   
    53   25   26 1   
    54   26   27 2   
    55   26   54 1   
    56   27   28 1   
    57   28   55 1   
@<TRIPOS>SUBSTRUCTURE
     1 3JG         1 TEMP              0 ****  ****    0 ROOT
