@<TRIPOS>MOLECULE
3JG
   56    58     1     0     0
SMALL
bcc


@<TRIPOS>ATOM
      1 CAA         1.4210   -0.8740   -0.4070 c3        1 3JG     -0.096433
      2 CBB         2.8450   -0.4010   -0.1230 c3        1 3JG     -0.041000
      3 CAB         2.9860   -0.1280    1.3650 c3        1 3JG     -0.096433
      4 CAC         3.8180   -1.4890   -0.5490 c3        1 3JG     -0.096433
      5 CAN         3.0660    0.8780   -0.9350 c3        1 3JG     -0.137400
      6 CAT         4.3850    1.5750   -0.7080 c         1 3JG      0.683100
      7 OAD         5.3780    1.0570   -0.1520 o         1 3JG     -0.650100
      8 N           4.5040    2.9210   -1.0880 n         1 3JG     -0.479800
      9 CD2         3.5130    3.5780   -1.9270 c3        1 3JG      0.036000
     10 CG          4.2460    4.6060   -2.8290 c3        1 3JG      0.136100
     11 OD1         4.2230    4.1760   -4.1740 oh        1 3JG     -0.584800
     12 CB          5.7120    4.5950   -2.3740 c3        1 3JG     -0.096400
     13 CA          5.8190    3.5140   -1.2780 c3        1 3JG      0.039700
     14 C           6.3640    4.1350    0.0210 c         1 3JG      0.534100
     15 O           6.6910    5.2970    0.2010 o         1 3JG     -0.418100
     16 NAR         6.5310    3.1720    1.1650 ny        1 3JG     -0.677800
     17 CAM         7.5390    3.5820    2.1970 c3        1 3JG      0.174100
     18 CAV         8.9240    3.2080    1.7970 ca        1 3JG     -0.189300
     19 CAH         9.8220    4.1930    1.3680 ca        1 3JG     -0.094500
     20 CAJ        11.1300    3.8490    1.0410 ca        1 3JG     -0.113500
     21 CAG         9.3440    1.8750    1.8940 ca        1 3JG     -0.094500
     22 CAI        10.6490    1.5280    1.5640 ca        1 3JG     -0.113500
     23 CAW        11.5560    2.5130    1.1340 ca        1 3JG     -0.052500
     24 CAX        12.9010    2.1440    0.7990 cc        1 3JG      0.156900
     25 OAS        13.7780    3.1540    0.3550 os        1 3JG     -0.380800
     26 CAK        14.9900    2.4990    0.1160 cc        1 3JG      0.518300
     27 NAQ        14.9280    1.1940    0.3720 nd        1 3JG     -0.661000
     28 CAL        13.6220    0.9480    0.8050 cd        1 3JG      0.292900
     29 H1          1.2240   -1.8250    0.1430 hc        1 3JG      0.045478
     30 H2          1.2810   -1.0600   -1.4980 hc        1 3JG      0.045478
     31 H3          0.6780   -0.1110   -0.0720 hc        1 3JG      0.045478
     32 H4          2.2880    0.6820    1.6830 hc        1 3JG      0.045478
     33 H5          2.7430   -1.0520    1.9440 hc        1 3JG      0.045478
     34 H6          4.0330    0.1740    1.6090 hc        1 3JG      0.045478
     35 H7          3.6100   -2.4270    0.0210 hc        1 3JG      0.045478
     36 H8          3.7060   -1.7060   -1.6390 hc        1 3JG      0.045478
     37 H9          4.8710   -1.1780   -0.3480 hc        1 3JG      0.045478
     38 H10         3.0180    0.6190   -2.0300 hc        1 3JG      0.084700
     39 H11         2.2250    1.5890   -0.7070 hc        1 3JG      0.084700
     40 H12         2.9690    2.8350   -2.5740 h1        1 3JG      0.076700
     41 H13         2.7700    4.0960   -1.2600 h1        1 3JG      0.076700
     42 H14         3.7870    5.6230   -2.7200 h1        1 3JG      0.074700
     43 H15         3.4110    4.5110   -4.5760 ho        1 3JG      0.424000
     44 H16         6.3780    4.3230   -3.2350 hc        1 3JG      0.102700
     45 H17         6.0130    5.6040   -1.9980 hc        1 3JG      0.102700
     46 H18         6.5720    2.7210   -1.5810 h1        1 3JG      0.113700
     47 H19         5.6110    3.0580    1.6070 hn        1 3JG      0.474800
     48 H20         7.4500    4.6970    2.3530 hx        1 3JG      0.111700
     49 H21         7.2580    3.0550    3.1560 hx        1 3JG      0.111700
     50 H22         9.4990    5.2440    1.2970 ha        1 3JG      0.144500
     51 H23        11.8420    4.6240    0.7120 ha        1 3JG      0.163500
     52 H24         8.6480    1.0980    2.2470 ha        1 3JG      0.144500
     53 H25        10.9770    0.4790    1.6450 ha        1 3JG      0.163500
     54 H26        15.8130    3.1250   -0.2400 h5        1 3JG      0.102100
     55 H27        13.3020   -0.0570    1.0860 h4        1 3JG      0.061100
     56 HAR2        6.7980    2.2490    0.7720 hn        1 3JG      0.474800
@<TRIPOS>BOND
     1    1    2 1   
     2    1   29 1   
     3    1   30 1   
     4    1   31 1   
     5    2    3 1   
     6    2    4 1   
     7    2    5 1   
     8    3   32 1   
     9    3   33 1   
    10    3   34 1   
    11    4   35 1   
    12    4   36 1   
    13    4   37 1   
    14    5    6 1   
    15    5   38 1   
    16    5   39 1   
    17    6    7 2   
    18    6    8 1   
    19    8    9 1   
    20    8   13 1   
    21    9   10 1   
    22    9   40 1   
    23    9   41 1   
    24   10   11 1   
    25   10   12 1   
    26   10   42 1   
    27   11   43 1   
    28   12   13 1   
    29   12   44 1   
    30   12   45 1   
    31   13   14 1   
    32   13   46 1   
    33   14   15 2   
    34   14   16 1   
    35   16   17 1   
    36   16   47 1   
    37   16   56 1   
    38   17   18 1   
    39   17   48 1   
    40   17   49 1   
    41   18   19 ar  
    42   18   21 ar  
    43   19   20 ar  
    44   19   50 1   
    45   20   23 ar  
    46   20   51 1   
    47   21   22 ar  
    48   21   52 1   
    49   22   23 ar  
    50   22   53 1   
    51   23   24 1   
    52   24   25 1   
    53   24   28 2   
    54   25   26 1   
    55   26   27 2   
    56   26   54 1   
    57   27   28 1   
    58   28   55 1   
@<TRIPOS>SUBSTRUCTURE
     1 3JG         1 TEMP              0 ****  ****    0 ROOT
