@<TRIPOS>MOLECULE
3JH
   87    89     1     0     0
SMALL
bcc


@<TRIPOS>ATOM
      1 CD1         2.6290    0.8530    1.4340 c3        1 3JH     -0.113100
      2 CG          2.9070    0.7020   -0.0520 c3        1 3JH     -0.071700
      3 CD2         4.0530    1.6010   -0.4610 c3        1 3JH     -0.113100
      4 CB          3.1900   -0.7720   -0.3450 c3        1 3JH     -0.130400
      5 CA          3.6480   -1.0400   -1.7790 c3        1 3JH      0.068500
      6 N           2.6810   -0.5230   -2.8090 n4        1 3JH     -0.702800
      7 CAA         1.3610   -1.3000   -2.8910 c         1 3JH      0.606100
      8 OAC         1.4120   -2.4150   -2.3910 o         1 3JH     -0.480100
      9 CAD         0.2330   -0.6040   -3.5540 c3        1 3JH     -0.198100
     10 C           3.9830   -2.5110   -2.0940 c         1 3JH      0.530100
     11 O           4.3850   -2.8550   -3.1980 o         1 3JH     -0.392100
     12 NAH         3.8020   -3.5570   -1.0500 n4        1 3JH     -0.653800
     13 CAI         4.8930   -4.6180   -1.0440 c3        1 3JH      0.068500
     14 CAJ         6.0940   -4.1930   -0.1470 c3        1 3JH     -0.058000
     15 CAL         7.0910   -5.3450   -0.1030 c3        1 3JH     -0.116433
     16 CAM         6.7770   -2.9870   -0.7780 c3        1 3JH     -0.116433
     17 CAK         5.6530   -3.8560    1.2690 c3        1 3JH     -0.116433
     18 CAQ         4.2550   -5.9410   -0.5420 c         1 3JH      0.655100
     19 OAR         3.3790   -5.8770    0.3460 o         1 3JH     -0.597100
     20 NAS         4.6780   -7.1460   -1.0480 n         1 3JH     -0.429800
     21 CAW         5.3680   -7.3490   -2.3150 c3        1 3JH      0.066000
     22 CAV         4.8820   -8.7090   -2.8820 c3        1 3JH      0.146100
     23 OAZ         3.8970   -8.4060   -3.8460 oh        1 3JH     -0.597800
     24 CAU         4.2530   -9.4470   -1.6840 c3        1 3JH     -0.135400
     25 CAT         4.0810   -8.3920   -0.5680 c3        1 3JH      0.043700
     26 CAX         4.7370   -8.8750    0.7360 c         1 3JH      0.517100
     27 OAY         5.6600   -8.3400    1.3340 o         1 3JH     -0.404100
     28 NBA         4.1560  -10.1170    1.3370 n4        1 3JH     -0.683800
     29 CBB         5.2030  -11.2000    1.5600 c3        1 3JH      0.201100
     30 CBC         4.6010  -12.3450    2.2750 ca        1 3JH     -0.243300
     31 CBH         4.0680  -13.4280    1.5580 ca        1 3JH     -0.081000
     32 CBG         3.5550  -14.5270    2.2320 ca        1 3JH     -0.132000
     33 CBD         4.6180  -12.3870    3.6770 ca        1 3JH     -0.081000
     34 CBE         4.1040  -13.4870    4.3510 ca        1 3JH     -0.132000
     35 CBF         3.5570  -14.5750    3.6420 ca        1 3JH      0.117000
     36 CBI         3.0330  -15.7220    4.3230 cc        1 3JH     -0.249400
     37 SBM         3.2040  -17.2970    3.7230 ss        1 3JH     -0.041300
     38 CBL         2.3760  -17.9250    5.0620 cc        1 3JH      0.415300
     39 NBK         1.9560  -17.0280    5.9500 nd        1 3JH     -0.616000
     40 CBJ         2.3280  -15.7510    5.5430 cd        1 3JH      0.418600
     41 CBN         1.9620  -14.5700    6.3570 c3        1 3JH     -0.143400
     42 H1          3.5430    0.6230    2.0340 hc        1 3JH      0.064867
     43 H2          1.8030    0.1740    1.7550 hc        1 3JH      0.064867
     44 H3          2.3250    1.9070    1.6550 hc        1 3JH      0.064867
     45 H4          1.9740    1.0170   -0.6010 hc        1 3JH      0.042700
     46 H5          4.1660    1.6470   -1.5710 hc        1 3JH      0.064867
     47 H6          3.8640    2.6440   -0.0950 hc        1 3JH      0.064867
     48 H7          5.0160    1.2570   -0.0120 hc        1 3JH      0.064867
     49 H8          2.2690   -1.3680   -0.1050 hc        1 3JH      0.088700
     50 H9          4.0260   -1.0920    0.3400 hc        1 3JH      0.088700
     51 H10         4.6300   -0.4720   -1.9390 hx        1 3JH      0.173700
     52 H11         2.4780    0.4650   -2.5780 hn        1 3JH      0.493300
     53 H12         0.5470    0.2210   -4.2420 hc        1 3JH      0.144367
     54 H13        -0.3580   -1.3620   -4.1440 hc        1 3JH      0.144367
     55 H14        -0.4510   -0.1810   -2.7640 hc        1 3JH      0.144367
     56 H15         3.7640   -3.1400   -0.1060 hn        1 3JH      0.491800
     57 H16         5.2600   -4.7260   -2.1100 hx        1 3JH      0.139700
     58 H17         8.0380   -4.9930    0.3810 hc        1 3JH      0.065811
     59 H18         6.6950   -6.1970    0.5020 hc        1 3JH      0.065811
     60 H19         7.3400   -5.6950   -1.1340 hc        1 3JH      0.065811
     61 H20         7.6670   -2.7000   -0.1610 hc        1 3JH      0.065811
     62 H21         6.0920   -2.1040   -0.8180 hc        1 3JH      0.065811
     63 H22         7.1330   -3.2220   -1.8110 hc        1 3JH      0.065811
     64 H23         4.9080   -4.5970    1.6510 hc        1 3JH      0.065811
     65 H24         6.5420   -3.8830    1.9510 hc        1 3JH      0.065811
     66 H25         5.2220   -2.8270    1.3350 hc        1 3JH      0.065811
     67 H26         5.1270   -6.5330   -3.0490 h1        1 3JH      0.088700
     68 H27         6.4780   -7.3830   -2.1310 h1        1 3JH      0.088700
     69 H28         5.7360   -9.2860   -3.3230 h1        1 3JH      0.100700
     70 H29         3.8830   -9.1220   -4.4980 ho        1 3JH      0.447000
     71 H30         3.2540   -9.8640   -1.9710 hc        1 3JH      0.092700
     72 H31         4.9200  -10.2840   -1.3630 hc        1 3JH      0.092700
     73 H32         2.9850   -8.2140   -0.3360 h1        1 3JH      0.122700
     74 H33         3.4110  -10.4920    0.7410 hn        1 3JH      0.464300
     75 H34         5.5880  -11.4980    0.5440 hx        1 3JH      0.108200
     76 H35         6.0370  -10.7280    2.1560 hx        1 3JH      0.108200
     77 H36         4.0720  -13.4210    0.4570 ha        1 3JH      0.134000
     78 H37         3.1450  -15.3790    1.6630 ha        1 3JH      0.170000
     79 H38         5.0650  -11.5600    4.2510 ha        1 3JH      0.134000
     80 H39         4.1470  -13.5250    5.4530 ha        1 3JH      0.170000
     81 H40         2.1880  -18.9970    5.2120 h5        1 3JH      0.081100
     82 H41         1.8790  -13.6630    5.7090 hc        1 3JH      0.063367
     83 H42         0.9840  -14.7270    6.8810 hc        1 3JH      0.063367
     84 H43         2.7460  -14.3940    7.1380 hc        1 3JH      0.063367
     85 H2A         3.1300   -0.5530   -3.7380 hn        1 3JH      0.493300
     86 HAH2        2.8870   -4.0170   -1.2210 hn        1 3JH      0.491800
     87 HBA2        3.7460   -9.8900    2.2550 hn        1 3JH      0.464300
@<TRIPOS>BOND
     1    1    2 1   
     2    1   42 1   
     3    1   43 1   
     4    1   44 1   
     5    2    3 1   
     6    2    4 1   
     7    2   45 1   
     8    3   46 1   
     9    3   47 1   
    10    3   48 1   
    11    4    5 1   
    12    4   49 1   
    13    4   50 1   
    14    5    6 1   
    15    5   10 1   
    16    5   51 1   
    17    6    7 1   
    18    6   52 1   
    19    6   85 1   
    20    7    8 2   
    21    7    9 1   
    22    9   53 1   
    23    9   54 1   
    24    9   55 1   
    25   10   11 2   
    26   10   12 1   
    27   12   13 1   
    28   12   56 1   
    29   12   86 1   
    30   13   14 1   
    31   13   18 1   
    32   13   57 1   
    33   14   15 1   
    34   14   16 1   
    35   14   17 1   
    36   15   58 1   
    37   15   59 1   
    38   15   60 1   
    39   16   61 1   
    40   16   62 1   
    41   16   63 1   
    42   17   64 1   
    43   17   65 1   
    44   17   66 1   
    45   18   19 2   
    46   18   20 1   
    47   20   21 1   
    48   20   25 1   
    49   21   22 1   
    50   21   67 1   
    51   21   68 1   
    52   22   23 1   
    53   22   24 1   
    54   22   69 1   
    55   23   70 1   
    56   24   25 1   
    57   24   71 1   
    58   24   72 1   
    59   25   26 1   
    60   25   73 1   
    61   26   27 2   
    62   26   28 1   
    63   28   29 1   
    64   28   74 1   
    65   28   87 1   
    66   29   30 1   
    67   29   75 1   
    68   29   76 1   
    69   30   31 ar  
    70   30   33 ar  
    71   31   32 ar  
    72   31   77 1   
    73   32   35 ar  
    74   32   78 1   
    75   33   34 ar  
    76   33   79 1   
    77   34   35 ar  
    78   34   80 1   
    79   35   36 1   
    80   36   37 1   
    81   36   40 2   
    82   37   38 1   
    83   38   39 2   
    84   38   81 1   
    85   39   40 1   
    86   40   41 1   
    87   41   82 1   
    88   41   83 1   
    89   41   84 1   
@<TRIPOS>SUBSTRUCTURE
     1 3JH         1 TEMP              0 ****  ****    0 ROOT
