@<TRIPOS>MOLECULE
3JH
   84    86     1     0     0
SMALL
bcc


@<TRIPOS>ATOM
      1 CD1        -0.1370   -2.3720    1.0210 c3        1 3JH     -0.092600
      2 CG          1.0540   -1.6330    0.4410 c3        1 3JH     -0.062700
      3 CD2         1.7210   -0.7970    1.5120 c3        1 3JH     -0.092600
      4 CB          2.0110   -2.6390   -0.1800 c3        1 3JH     -0.079400
      5 CA          3.2140   -1.9920   -0.8780 c3        1 3JH      0.049700
      6 N           2.9100   -1.0500   -1.9250 n         1 3JH     -0.533900
      7 CAA         1.9230   -1.2380   -2.8980 c         1 3JH      0.657100
      8 OAC         0.9950   -2.0540   -2.7690 o         1 3JH     -0.584100
      9 CAD         1.9920   -0.3230   -4.0990 c3        1 3JH     -0.179100
     10 C           4.1610   -3.1260   -1.3660 c         1 3JH      0.625100
     11 O           4.3520   -3.3560   -2.5780 o         1 3JH     -0.623100
     12 NAH         4.8420   -3.8300   -0.3930 n         1 3JH     -0.555900
     13 CAI         5.6990   -4.9430   -0.7100 c3        1 3JH      0.049700
     14 CAJ         7.0390   -4.9440    0.0840 c3        1 3JH     -0.048000
     15 CAL         7.7320   -6.2790   -0.1490 c3        1 3JH     -0.096100
     16 CAM         7.9220   -3.8280   -0.4590 c3        1 3JH     -0.096100
     17 CAK         6.8270   -4.7350    1.5740 c3        1 3JH     -0.096100
     18 CAQ         4.9400   -6.2740   -0.4560 c         1 3JH      0.644100
     19 OAR         4.5620   -6.5780    0.6970 o         1 3JH     -0.632100
     20 NAS         4.7210   -7.1380   -1.5140 n         1 3JH     -0.442800
     21 CAW         4.7140   -6.7020   -2.9000 c3        1 3JH      0.034000
     22 CAV         3.7000   -7.5850   -3.6700 c3        1 3JH      0.133100
     23 OAZ         2.5530   -6.8510   -4.0590 oh        1 3JH     -0.591800
     24 CAU         3.2350   -8.6610   -2.6820 c3        1 3JH     -0.088400
     25 CAT         3.9180   -8.3470   -1.3360 c3        1 3JH      0.026700
     26 CAX         4.7640   -9.5500   -0.8540 c         1 3JH      0.651100
     27 OAY         4.8530  -10.5950   -1.5290 o         1 3JH     -0.618100
     28 NBA         5.4160   -9.4040    0.3510 n         1 3JH     -0.553900
     29 CBB         6.1250  -10.4930    0.9690 c3        1 3JH      0.131300
     30 CBC         5.2990  -11.3400    1.8970 ca        1 3JH     -0.115300
     31 CBH         4.3460  -12.2190    1.3700 ca        1 3JH     -0.115500
     32 CBG         3.5950  -13.0290    2.2150 ca        1 3JH     -0.120500
     33 CBD         5.4910  -11.2790    3.2790 ca        1 3JH     -0.115500
     34 CBE         4.7410  -12.0900    4.1290 ca        1 3JH     -0.120500
     35 CBF         3.7840  -12.9730    3.6070 ca        1 3JH     -0.005000
     36 CBI         3.0110  -13.8210    4.4810 cc        1 3JH     -0.145400
     37 SBM         2.7510  -15.4630    4.1620 ss        1 3JH     -0.092300
     38 CBL         1.8420  -15.6200    5.5910 cc        1 3JH      0.367300
     39 NBK         1.7110  -14.5120    6.3100 nd        1 3JH     -0.627000
     40 CBJ         2.3820  -13.4630    5.6790 cd        1 3JH      0.356600
     41 CBN         2.3890  -12.1030    6.2670 c3        1 3JH     -0.128400
     42 H1          0.1880   -3.0670    1.8330 hc        1 3JH      0.034700
     43 H2         -0.8690   -1.6450    1.4490 hc        1 3JH      0.034700
     44 H3         -0.6490   -2.9660    0.2270 hc        1 3JH      0.034700
     45 H4          0.6780   -0.9500   -0.3730 hc        1 3JH      0.066700
     46 H5          0.9640   -0.1580    2.0270 hc        1 3JH      0.034700
     47 H6          2.2080   -1.4490    2.2770 hc        1 3JH      0.034700
     48 H7          2.4960   -0.1280    1.0680 hc        1 3JH      0.034700
     49 H8          2.3970   -3.3120    0.6310 hc        1 3JH      0.067700
     50 H9          1.4460   -3.2720   -0.9170 hc        1 3JH      0.067700
     51 H10         3.7900   -1.3970   -0.0990 h1        1 3JH      0.069700
     52 H11         3.7160   -0.5570   -2.2450 hn        1 3JH      0.298500
     53 H12         2.9000   -0.5580   -4.7060 hc        1 3JH      0.068033
     54 H13         2.0270    0.7480   -3.7860 hc        1 3JH      0.068033
     55 H14         1.0830   -0.4880   -4.7280 hc        1 3JH      0.068033
     56 H15         4.5840   -3.7300    0.5620 hn        1 3JH      0.325500
     57 H16         5.9820   -4.8610   -1.8050 h1        1 3JH      0.098700
     58 H17         7.8010   -6.5000   -1.2410 hc        1 3JH      0.043700
     59 H18         8.7650   -6.2490    0.2740 hc        1 3JH      0.043700
     60 H19         7.1690   -7.1050    0.3510 hc        1 3JH      0.043700
     61 H20         7.4280   -2.8350   -0.3370 hc        1 3JH      0.043700
     62 H21         8.8900   -3.8110    0.0970 hc        1 3JH      0.043700
     63 H22         8.1370   -3.9900   -1.5430 hc        1 3JH      0.043700
     64 H23         6.0250   -5.4120    1.9580 hc        1 3JH      0.043700
     65 H24         7.7750   -4.9580    2.1230 hc        1 3JH      0.043700
     66 H25         6.5450   -3.6770    1.7940 hc        1 3JH      0.043700
     67 H26         5.7460   -6.8390   -3.3250 h1        1 3JH      0.070700
     68 H27         4.4220   -5.6160   -2.9870 h1        1 3JH      0.070700
     69 H28         4.1870   -8.0340   -4.5760 h1        1 3JH      0.054700
     70 H29         2.8540   -6.1130   -4.6040 ho        1 3JH      0.409000
     71 H30         2.1230   -8.6210   -2.5640 hc        1 3JH      0.090200
     72 H31         3.5190   -9.6780   -3.0530 hc        1 3JH      0.090200
     73 H32         3.1340   -8.1640   -0.5410 h1        1 3JH      0.087700
     74 H33         5.1740   -8.6320    0.9340 hn        1 3JH      0.333500
     75 H34         6.9920  -10.0500    1.5400 h1        1 3JH      0.067200
     76 H35         6.5370  -11.1590    0.1530 h1        1 3JH      0.067200
     77 H36         4.1980  -12.2610    0.2770 ha        1 3JH      0.145000
     78 H37         2.8450  -13.7150    1.7940 ha        1 3JH      0.138500
     79 H38         6.2380  -10.5920    3.7030 ha        1 3JH      0.145000
     80 H39         4.9000  -12.0430    5.2170 ha        1 3JH      0.138500
     81 H40         1.3870  -16.5620    5.9120 h5        1 3JH      0.054100
     82 H41         3.1700  -12.0400    7.0660 hc        1 3JH      0.054700
     83 H42         2.6210  -11.3470    5.4760 hc        1 3JH      0.054700
     84 H43         1.3980  -11.8560    6.7240 hc        1 3JH      0.054700
@<TRIPOS>BOND
     1    1    2 1   
     2    1   42 1   
     3    1   43 1   
     4    1   44 1   
     5    2    3 1   
     6    2    4 1   
     7    2   45 1   
     8    3   46 1   
     9    3   47 1   
    10    3   48 1   
    11    4    5 1   
    12    4   49 1   
    13    4   50 1   
    14    5    6 1   
    15    5   10 1   
    16    5   51 1   
    17    6    7 1   
    18    6   52 1   
    19    7    8 2   
    20    7    9 1   
    21    9   53 1   
    22    9   54 1   
    23    9   55 1   
    24   10   11 2   
    25   10   12 1   
    26   12   13 1   
    27   12   56 1   
    28   13   14 1   
    29   13   18 1   
    30   13   57 1   
    31   14   15 1   
    32   14   16 1   
    33   14   17 1   
    34   15   58 1   
    35   15   59 1   
    36   15   60 1   
    37   16   61 1   
    38   16   62 1   
    39   16   63 1   
    40   17   64 1   
    41   17   65 1   
    42   17   66 1   
    43   18   19 2   
    44   18   20 1   
    45   20   21 1   
    46   20   25 1   
    47   21   22 1   
    48   21   67 1   
    49   21   68 1   
    50   22   23 1   
    51   22   24 1   
    52   22   69 1   
    53   23   70 1   
    54   24   25 1   
    55   24   71 1   
    56   24   72 1   
    57   25   26 1   
    58   25   73 1   
    59   26   27 2   
    60   26   28 1   
    61   28   29 1   
    62   28   74 1   
    63   29   30 1   
    64   29   75 1   
    65   29   76 1   
    66   30   31 ar  
    67   30   33 ar  
    68   31   32 ar  
    69   31   77 1   
    70   32   35 ar  
    71   32   78 1   
    72   33   34 ar  
    73   33   79 1   
    74   34   35 ar  
    75   34   80 1   
    76   35   36 1   
    77   36   37 1   
    78   36   40 2   
    79   37   38 1   
    80   38   39 2   
    81   38   81 1   
    82   39   40 1   
    83   40   41 1   
    84   41   82 1   
    85   41   83 1   
    86   41   84 1   
@<TRIPOS>SUBSTRUCTURE
     1 3JH         1 TEMP              0 ****  ****    0 ROOT
