@<TRIPOS>MOLECULE
3JH
   87    89     1     0     0
SMALL
bcc


@<TRIPOS>ATOM
      1 CD1         2.3690    0.8160    1.3260 c3        1 3JH     -0.113100
      2 CG          2.7240    0.6670   -0.1440 c3        1 3JH     -0.071700
      3 CD2         3.8620    1.5970   -0.5010 c3        1 3JH     -0.113100
      4 CB          3.0620   -0.7990   -0.4140 c3        1 3JH     -0.130400
      5 CA          3.5980   -1.0600   -1.8230 c3        1 3JH      0.068500
      6 N           2.6690   -0.5750   -2.9020 ny        1 3JH     -0.702800
      7 CAA         1.3770   -1.3900   -3.0450 c         1 3JH      0.606100
      8 OAC         1.4340   -2.5010   -2.5360 o         1 3JH     -0.480100
      9 CAD         0.2640   -0.7290   -3.7670 c3        1 3JH     -0.198100
     10 C           3.9890   -2.5220   -2.1130 c         1 3JH      0.530100
     11 O           4.4550   -2.8590   -3.1940 o         1 3JH     -0.392100
     12 NAH         3.7870   -3.5690   -1.0730 ny        1 3JH     -0.653800
     13 CAI         4.9050   -4.5990   -1.0080 c3        1 3JH      0.068500
     14 CAJ         6.0490   -4.1370   -0.0570 c3        1 3JH     -0.058000
     15 CAL         7.0740   -5.2600    0.0410 c3        1 3JH     -0.116433
     16 CAM         6.7280   -2.9150   -0.6610 c3        1 3JH     -0.116433
     17 CAK         5.5310   -3.8060    1.3340 c3        1 3JH     -0.116433
     18 CAQ         4.2800   -5.9370   -0.5310 c         1 3JH      0.655100
     19 OAR         3.3610   -5.8940    0.3150 o         1 3JH     -0.597100
     20 NAS         4.7600   -7.1320   -1.0080 n         1 3JH     -0.429800
     21 CAW         5.5150   -7.3210   -2.2400 c3        1 3JH      0.066000
     22 CAV         5.0930   -8.6960   -2.8220 c3        1 3JH      0.146100
     23 OAZ         4.1480   -8.4240   -3.8340 oh        1 3JH     -0.597800
     24 CAU         4.4280   -9.4460   -1.6520 c3        1 3JH     -0.135400
     25 CAT         4.1750   -8.3920   -0.5510 c3        1 3JH      0.043700
     26 CAX         4.7810   -8.8510    0.7850 c         1 3JH      0.517100
     27 OAY         5.6600   -8.2900    1.4230 o         1 3JH     -0.404100
     28 NBA         4.2060  -10.1060    1.3640 ny        1 3JH     -0.683800
     29 CBB         5.2700  -11.1610    1.6410 c3        1 3JH      0.201100
     30 CBC         4.6660  -12.3180    2.3350 ca        1 3JH     -0.243300
     31 CBH         4.1940  -13.4180    1.6010 ca        1 3JH     -0.081000
     32 CBG         3.6810  -14.5260    2.2570 ca        1 3JH     -0.132000
     33 CBD         4.6200  -12.3530    3.7360 ca        1 3JH     -0.081000
     34 CBE         4.1060  -13.4630    4.3930 ca        1 3JH     -0.132000
     35 CBF         3.6200  -14.5670    3.6670 ca        1 3JH      0.117000
     36 CBI         3.0950  -15.7260    4.3300 cc        1 3JH     -0.249400
     37 SBM         3.3350  -17.2980    3.7470 ss        1 3JH     -0.041300
     38 CBL         2.4640  -17.9410    5.0510 cc        1 3JH      0.415300
     39 NBK         1.9810  -17.0520    5.9150 nd        1 3JH     -0.616000
     40 CBJ         2.3370  -15.7680    5.5170 cd        1 3JH      0.418600
     41 CBN         1.9040  -14.5920    6.3070 c3        1 3JH     -0.143400
     42 H1          3.2570    0.6150    1.9720 hc        1 3JH      0.064867
     43 H2          2.0230    1.8620    1.5260 hc        1 3JH      0.064867
     44 H3          1.5470    0.1150    1.6090 hc        1 3JH      0.064867
     45 H4          1.8100    0.9530   -0.7400 hc        1 3JH      0.042700
     46 H5          4.0290    1.6410   -1.6050 hc        1 3JH      0.064867
     47 H6          3.6250    2.6360   -0.1510 hc        1 3JH      0.064867
     48 H7          4.8110    1.2820   -0.0030 hc        1 3JH      0.064867
     49 H8          3.8720   -1.0930    0.3120 hc        1 3JH      0.088700
     50 H9          2.1480   -1.4200   -0.2160 hc        1 3JH      0.088700
     51 H10         4.5710   -0.4660   -1.9370 hx        1 3JH      0.173700
     52 H11         2.4270    0.4070   -2.6870 hn        1 3JH      0.493300
     53 H12        -0.2750   -1.5060   -4.3820 hc        1 3JH      0.144367
     54 H13         0.5880    0.1030   -4.4410 hc        1 3JH      0.144367
     55 H14        -0.4710   -0.3240   -3.0140 hc        1 3JH      0.144367
     56 H15         2.8940   -4.0540   -1.2850 hn        1 3JH      0.491800
     57 H16         5.3260   -4.7010   -2.0550 hx        1 3JH      0.139700
     58 H17         6.6730   -6.1200    0.6320 hc        1 3JH      0.065811
     59 H18         7.9870   -4.8800    0.5690 hc        1 3JH      0.065811
     60 H19         7.3810   -5.6080   -0.9740 hc        1 3JH      0.065811
     61 H20         6.0220   -2.0520   -0.7390 hc        1 3JH      0.065811
     62 H21         7.1410   -3.1440   -1.6740 hc        1 3JH      0.065811
     63 H22         7.5800   -2.6010   -0.0040 hc        1 3JH      0.065811
     64 H23         5.0690   -2.7890    1.3740 hc        1 3JH      0.065811
     65 H24         6.3870   -3.8050    2.0590 hc        1 3JH      0.065811
     66 H25         4.7890   -4.5660    1.6840 hc        1 3JH      0.065811
     67 H26         5.2870   -6.5150   -2.9890 h1        1 3JH      0.088700
     68 H27         6.6150   -7.3240   -2.0030 h1        1 3JH      0.088700
     69 H28         5.9830   -9.2520   -3.2190 h1        1 3JH      0.100700
     70 H29         4.1850   -9.1420   -4.4820 ho        1 3JH      0.447000
     71 H30         3.4550   -9.8910   -1.9840 hc        1 3JH      0.092700
     72 H31         5.1010  -10.2640   -1.2950 hc        1 3JH      0.092700
     73 H32         3.0650   -8.2430   -0.3730 h1        1 3JH      0.122700
     74 H33         3.7480   -9.8870    2.2620 hn        1 3JH      0.464300
     75 H34         5.7080  -11.4520    0.6450 hx        1 3JH      0.108200
     76 H35         6.0630  -10.6640    2.2720 hx        1 3JH      0.108200
     77 H36         4.2480  -13.4150    0.5020 ha        1 3JH      0.134000
     78 H37         3.3180  -15.3910    1.6750 ha        1 3JH      0.170000
     79 H38         5.0190  -11.5110    4.3250 ha        1 3JH      0.134000
     80 H39         4.1000  -13.4940    5.4960 ha        1 3JH      0.170000
     81 H40         2.2970  -19.0170    5.1990 h5        1 3JH      0.081100
     82 H41         1.8270  -13.6910    5.6510 hc        1 3JH      0.063367
     83 H42         2.6480  -14.3930    7.1210 hc        1 3JH      0.063367
     84 H43         0.9080  -14.7730    6.7880 hc        1 3JH      0.063367
     85 H2A         3.1630   -0.5960   -3.8080 hn        1 3JH      0.493300
     86 HAH2        3.6920   -3.1490   -0.1350 hn        1 3JH      0.491800
     87 HBA2        3.4990  -10.5030    0.7370 hn        1 3JH      0.464300
@<TRIPOS>BOND
     1    1    2 1   
     2    1   42 1   
     3    1   43 1   
     4    1   44 1   
     5    2    3 1   
     6    2    4 1   
     7    2   45 1   
     8    3   46 1   
     9    3   47 1   
    10    3   48 1   
    11    4    5 1   
    12    4   49 1   
    13    4   50 1   
    14    5    6 1   
    15    5   10 1   
    16    5   51 1   
    17    6    7 1   
    18    6   52 1   
    19    6   85 1   
    20    7    8 2   
    21    7    9 1   
    22    9   53 1   
    23    9   54 1   
    24    9   55 1   
    25   10   11 2   
    26   10   12 1   
    27   12   13 1   
    28   12   56 1   
    29   12   86 1   
    30   13   14 1   
    31   13   18 1   
    32   13   57 1   
    33   14   15 1   
    34   14   16 1   
    35   14   17 1   
    36   15   58 1   
    37   15   59 1   
    38   15   60 1   
    39   16   61 1   
    40   16   62 1   
    41   16   63 1   
    42   17   64 1   
    43   17   65 1   
    44   17   66 1   
    45   18   19 2   
    46   18   20 1   
    47   20   21 1   
    48   20   25 1   
    49   21   22 1   
    50   21   67 1   
    51   21   68 1   
    52   22   23 1   
    53   22   24 1   
    54   22   69 1   
    55   23   70 1   
    56   24   25 1   
    57   24   71 1   
    58   24   72 1   
    59   25   26 1   
    60   25   73 1   
    61   26   27 2   
    62   26   28 1   
    63   28   29 1   
    64   28   74 1   
    65   28   87 1   
    66   29   30 1   
    67   29   75 1   
    68   29   76 1   
    69   30   31 ar  
    70   30   33 ar  
    71   31   32 ar  
    72   31   77 1   
    73   32   35 ar  
    74   32   78 1   
    75   33   34 ar  
    76   33   79 1   
    77   34   35 ar  
    78   34   80 1   
    79   35   36 1   
    80   36   37 1   
    81   36   40 2   
    82   37   38 1   
    83   38   39 2   
    84   38   81 1   
    85   39   40 1   
    86   40   41 1   
    87   41   82 1   
    88   41   83 1   
    89   41   84 1   
@<TRIPOS>SUBSTRUCTURE
     1 3JH         1 TEMP              0 ****  ****    0 ROOT
