@<TRIPOS>MOLECULE
3JJ
   84    86     1     0     0
SMALL
bcc


@<TRIPOS>ATOM
      1 CAD         0.9550    0.4270   -0.3550 c3        1 3JJ     -0.173100
      2 CAA         2.4540    0.2590   -0.3640 c         1 3JJ      0.659100
      3 OAC         3.1800    0.7920    0.4980 o         1 3JJ     -0.609100
      4 N           2.9910   -0.5540   -1.3510 n         1 3JJ     -0.557900
      5 CA          4.4100   -0.6850   -1.5480 c3        1 3JJ      0.048700
      6 CB          4.8690   -2.1550   -1.7770 c3        1 3JJ     -0.052000
      7 CG1         4.6940   -2.9280   -0.4780 c3        1 3JJ     -0.095767
      8 CBO         4.0710   -2.8270   -2.8820 c3        1 3JJ     -0.095767
      9 CG2         6.3450   -2.1490   -2.1510 c3        1 3JJ     -0.095767
     10 C           4.8570    0.1820   -2.7570 c         1 3JJ      0.640100
     11 O           4.2300    0.1690   -3.8370 o         1 3JJ     -0.624100
     12 NAH         5.9470    1.0060   -2.5740 n         1 3JJ     -0.554900
     13 CAI         6.4520    1.8570   -3.6180 c3        1 3JJ      0.053700
     14 CAJ         6.7880    3.3010   -3.1430 c3        1 3JJ     -0.050000
     15 CAL         5.4820    4.0350   -2.8700 c3        1 3JJ     -0.097433
     16 CAM         7.6410    3.3110   -1.8850 c3        1 3JJ     -0.097433
     17 CAK         7.5290    4.0140   -4.2660 c3        1 3JJ     -0.097433
     18 CAO         7.7150    1.2110   -4.2500 c         1 3JJ      0.647100
     19 OAP         8.7310    0.9850   -3.5570 o         1 3JJ     -0.635100
     20 NAQ         7.7210    0.9190   -5.6030 n         1 3JJ     -0.451800
     21 CAU         6.5080    0.7710   -6.3900 c3        1 3JJ      0.075000
     22 CAT         6.8270   -0.1810   -7.5690 c3        1 3JJ      0.131100
     23 OAX         5.9450   -1.2840   -7.4520 oh        1 3JJ     -0.592800
     24 CAS         8.2940   -0.5950   -7.4030 c3        1 3JJ     -0.126400
     25 CAR         8.8440    0.2110   -6.2110 c3        1 3JJ      0.032700
     26 CAV         9.9750    1.1650   -6.6670 c         1 3JJ      0.651100
     27 OAW        10.3470    1.2050   -7.8570 o         1 3JJ     -0.622100
     28 NAY        10.5450    1.9610   -5.6990 n         1 3JJ     -0.551900
     29 CAZ        11.6850    2.7950   -5.9730 c3        1 3JJ      0.131300
     30 CBA        13.0180    2.1370   -5.7460 ca        1 3JJ     -0.115300
     31 CBF        13.4810    1.1790   -6.6560 ca        1 3JJ     -0.115500
     32 CBE        14.7240    0.5830   -6.4730 ca        1 3JJ     -0.120000
     33 CBB        13.8100    2.4880   -4.6510 ca        1 3JJ     -0.115500
     34 CBC        15.0560    1.8930   -4.4660 ca        1 3JJ     -0.120000
     35 CBD        15.5270    0.9330   -5.3740 ca        1 3JJ     -0.005000
     36 CBG        16.8200    0.3200   -5.1930 cc        1 3JJ     -0.145400
     37 SBK        17.9210    0.1210   -6.4630 ss        1 3JJ     -0.093300
     38 CBJ        19.0420   -0.6030   -5.4080 cc        1 3JJ      0.368300
     39 NBI        18.6500   -0.7130   -4.1450 nd        1 3JJ     -0.627000
     40 CBH        17.3660   -0.1840   -4.0060 cd        1 3JJ      0.356600
     41 CBL        16.6810   -0.1870   -2.6920 c3        1 3JJ     -0.129400
     42 H1          0.6730    1.0770    0.5090 hc        1 3JJ      0.068700
     43 H2          0.4500   -0.5630   -0.2450 hc        1 3JJ      0.068700
     44 H3          0.6120    0.9090   -1.3020 hc        1 3JJ      0.068700
     45 H4          2.4170   -0.8370   -2.1120 hn        1 3JJ      0.322500
     46 H5          4.9200   -0.3170   -0.6050 h1        1 3JJ      0.099700
     47 H6          5.0340   -3.9830   -0.6190 hc        1 3JJ      0.043478
     48 H7          3.6230   -2.9430   -0.1640 hc        1 3JJ      0.043478
     49 H8          5.2990   -2.4650    0.3380 hc        1 3JJ      0.043478
     50 H9          3.0370   -3.0700   -2.5360 hc        1 3JJ      0.043478
     51 H10         4.0050   -2.1620   -3.7780 hc        1 3JJ      0.043478
     52 H11         4.5680   -3.7820   -3.1800 hc        1 3JJ      0.043478
     53 H12         6.4900   -1.7300   -3.1760 hc        1 3JJ      0.043478
     54 H13         6.7400   -3.1940   -2.1430 hc        1 3JJ      0.043478
     55 H14         6.9360   -1.5440   -1.4220 hc        1 3JJ      0.043478
     56 H15         6.4890    0.9420   -1.7430 hn        1 3JJ      0.329500
     57 H16         5.6380    1.9600   -4.4020 h1        1 3JJ      0.099700
     58 H17         5.7000    5.0760   -2.5300 hc        1 3JJ      0.044256
     59 H18         4.8960    3.5200   -2.0720 hc        1 3JJ      0.044256
     60 H19         4.8600    4.0870   -3.7960 hc        1 3JJ      0.044256
     61 H20         7.0360    3.0280   -0.9900 hc        1 3JJ      0.044256
     62 H21         8.0460    4.3380   -1.7140 hc        1 3JJ      0.044256
     63 H22         8.4980    2.6010   -1.9850 hc        1 3JJ      0.044256
     64 H23         8.5510    3.5810   -4.3970 hc        1 3JJ      0.044256
     65 H24         7.6340    5.0980   -4.0230 hc        1 3JJ      0.044256
     66 H25         6.9710    3.9170   -5.2290 hc        1 3JJ      0.044256
     67 H26         6.2050    1.7790   -6.7850 h1        1 3JJ      0.079200
     68 H27         5.6630    0.3440   -5.7750 h1        1 3JJ      0.079200
     69 H28         6.6580    0.3370   -8.5500 h1        1 3JJ      0.055700
     70 H29         6.1360   -1.8720   -8.1920 ho        1 3JJ      0.405000
     71 H30         8.8770   -0.3820   -8.3340 hc        1 3JJ      0.081200
     72 H31         8.3660   -1.6890   -7.1810 hc        1 3JJ      0.081200
     73 H32         9.3050   -0.4890   -5.4490 h1        1 3JJ      0.086700
     74 H33        10.3420    1.7680   -4.7410 hn        1 3JJ      0.335500
     75 H34        11.6320    3.1290   -7.0510 h1        1 3JJ      0.067200
     76 H35        11.6020    3.7070   -5.3130 h1        1 3JJ      0.067200
     77 H36        12.8490    0.9040   -7.5170 ha        1 3JJ      0.145000
     78 H37        15.0810   -0.1710   -7.1920 ha        1 3JJ      0.138000
     79 H38        13.4540    3.2400   -3.9310 ha        1 3JJ      0.145000
     80 H39        15.6800    2.1770   -3.6050 ha        1 3JJ      0.138000
     81 H40        20.0240   -0.9600   -5.7310 h5        1 3JJ      0.054100
     82 H41        15.5760   -0.0920   -2.8380 hc        1 3JJ      0.054700
     83 H42        16.8930   -1.1300   -2.1300 hc        1 3JJ      0.054700
     84 H43        17.0380    0.6770   -2.0770 hc        1 3JJ      0.054700
@<TRIPOS>BOND
     1    1    2 1   
     2    1   42 1   
     3    1   43 1   
     4    1   44 1   
     5    2    3 2   
     6    2    4 1   
     7    4    5 1   
     8    4   45 1   
     9    5    6 1   
    10    5   10 1   
    11    5   46 1   
    12    6    7 1   
    13    6    8 1   
    14    6    9 1   
    15    7   47 1   
    16    7   48 1   
    17    7   49 1   
    18    8   50 1   
    19    8   51 1   
    20    8   52 1   
    21    9   53 1   
    22    9   54 1   
    23    9   55 1   
    24   10   11 2   
    25   10   12 1   
    26   12   13 1   
    27   12   56 1   
    28   13   14 1   
    29   13   18 1   
    30   13   57 1   
    31   14   15 1   
    32   14   16 1   
    33   14   17 1   
    34   15   58 1   
    35   15   59 1   
    36   15   60 1   
    37   16   61 1   
    38   16   62 1   
    39   16   63 1   
    40   17   64 1   
    41   17   65 1   
    42   17   66 1   
    43   18   19 2   
    44   18   20 1   
    45   20   21 1   
    46   20   25 1   
    47   21   22 1   
    48   21   67 1   
    49   21   68 1   
    50   22   23 1   
    51   22   24 1   
    52   22   69 1   
    53   23   70 1   
    54   24   25 1   
    55   24   71 1   
    56   24   72 1   
    57   25   26 1   
    58   25   73 1   
    59   26   27 2   
    60   26   28 1   
    61   28   29 1   
    62   28   74 1   
    63   29   30 1   
    64   29   75 1   
    65   29   76 1   
    66   30   31 ar  
    67   30   33 ar  
    68   31   32 ar  
    69   31   77 1   
    70   32   35 ar  
    71   32   78 1   
    72   33   34 ar  
    73   33   79 1   
    74   34   35 ar  
    75   34   80 1   
    76   35   36 1   
    77   36   37 1   
    78   36   40 2   
    79   37   38 1   
    80   38   39 2   
    81   38   81 1   
    82   39   40 1   
    83   40   41 1   
    84   41   82 1   
    85   41   83 1   
    86   41   84 1   
@<TRIPOS>SUBSTRUCTURE
     1 3JJ         1 TEMP              0 ****  ****    0 ROOT
