@<TRIPOS>MOLECULE
3JJ
   87    89     1     0     0
SMALL
bcc


@<TRIPOS>ATOM
      1 CAD        -0.0780    0.7190   -1.4280 c3        1 3JJ     -0.197100
      2 CAA         1.3930    0.6640   -1.5910 c         1 3JJ      0.604100
      3 OAC         2.2190    1.5650   -1.6260 o         1 3JJ     -0.477100
      4 N           2.0090   -0.7360   -1.7340 n4        1 3JJ     -0.701800
      5 CA          3.4920   -0.7490   -1.5190 c3        1 3JJ      0.055500
      6 CB          4.0720   -2.2010   -1.4470 c3        1 3JJ     -0.052000
      7 CG1         3.5700   -2.8570   -0.1690 c3        1 3JJ     -0.128767
      8 CBO         3.6560   -3.0230   -2.6540 c3        1 3JJ     -0.128767
      9 CG2         5.5880   -2.0800   -1.3870 c3        1 3JJ     -0.128767
     10 C           4.1860    0.0410   -2.6420 c         1 3JJ      0.532100
     11 O           3.9510   -0.1030   -3.8330 o         1 3JJ     -0.390100
     12 NAH         5.1820    1.0600   -2.2030 n4        1 3JJ     -0.667800
     13 CAI         5.8710    1.8340   -3.3120 c3        1 3JJ      0.068500
     14 CAJ         6.0500    3.3280   -2.8880 c3        1 3JJ     -0.055000
     15 CAL         4.6830    4.0000   -2.8730 c3        1 3JJ     -0.120100
     16 CAM         6.7060    3.4380   -1.5200 c3        1 3JJ     -0.120100
     17 CAK         6.9190    4.0300   -3.9230 c3        1 3JJ     -0.120100
     18 CAO         7.2360    1.1590   -3.6030 c         1 3JJ      0.660100
     19 OAP         7.8510    0.6350   -2.6470 o         1 3JJ     -0.609100
     20 NAQ         7.7620    1.1730   -4.8710 n         1 3JJ     -0.427800
     21 CAU         6.9990    1.3300   -6.1020 c3        1 3JJ      0.066000
     22 CAT         7.6940    0.4570   -7.1800 c3        1 3JJ      0.145100
     23 OAX         6.9520   -0.7400   -7.2630 oh        1 3JJ     -0.598800
     24 CAS         9.1050    0.1770   -6.6270 c3        1 3JJ     -0.135400
     25 CAR         9.0710    0.5780   -5.1350 c3        1 3JJ      0.043700
     26 CAV        10.2190    1.5480   -4.8090 c         1 3JJ      0.516100
     27 OAW        10.1160    2.6890   -4.3850 o         1 3JJ     -0.402100
     28 NAY        11.6020    1.0140   -5.0150 n4        1 3JJ     -0.683800
     29 CAZ        12.4330    1.8920   -5.9430 c3        1 3JJ      0.201100
     30 CBA        13.8270    1.4020   -5.9890 ca        1 3JJ     -0.243300
     31 CBF        14.2280    0.4960   -6.9830 ca        1 3JJ     -0.080500
     32 CBE        15.5500    0.0840   -7.0590 ca        1 3JJ     -0.132000
     33 CBB        14.7750    1.8920   -5.0780 ca        1 3JJ     -0.080500
     34 CBC        16.0980    1.4780   -5.1540 ca        1 3JJ     -0.132000
     35 CBD        16.5100    0.5620   -6.1410 ca        1 3JJ      0.117000
     36 CBG        17.8750    0.1340   -6.2400 cc        1 3JJ     -0.249400
     37 SBK        18.6350   -0.1550   -7.7270 ss        1 3JJ     -0.041300
     38 CBJ        20.0800   -0.5580   -6.9380 cc        1 3JJ      0.415300
     39 NBI        20.0440   -0.5040   -5.6090 nd        1 3JJ     -0.616000
     40 CBH        18.7810   -0.1040   -5.1880 cd        1 3JJ      0.418600
     41 CBL        18.4780    0.0190   -3.7440 c3        1 3JJ     -0.143400
     42 H1         -0.6090   -0.2200   -1.7220 hc        1 3JJ      0.145033
     43 H2         -0.4760    1.5720   -2.0500 hc        1 3JJ      0.145033
     44 H3         -0.3160    0.9510   -0.3490 hc        1 3JJ      0.145033
     45 H4          1.7970   -1.1070   -2.6740 hn        1 3JJ      0.490800
     46 H5          3.6770   -0.2570   -0.5130 hx        1 3JJ      0.135700
     47 H6          2.4740   -3.0700   -0.2100 hc        1 3JJ      0.074144
     48 H7          4.0900   -3.8430   -0.0350 hc        1 3JJ      0.074144
     49 H8          3.7940   -2.2300    0.7280 hc        1 3JJ      0.074144
     50 H9          4.2570   -3.9700   -2.6800 hc        1 3JJ      0.074144
     51 H10         3.8420   -2.4740   -3.6090 hc        1 3JJ      0.074144
     52 H11         2.5810   -3.3220   -2.5990 hc        1 3JJ      0.074144
     53 H12         5.9100   -1.4340   -0.5340 hc        1 3JJ      0.074144
     54 H13         6.0040   -1.6860   -2.3460 hc        1 3JJ      0.074144
     55 H14         6.0310   -3.0980   -1.2220 hc        1 3JJ      0.074144
     56 H15         4.6860    1.7460   -1.6040 hn        1 3JJ      0.496800
     57 H16         5.2000    1.8040   -4.2230 hx        1 3JJ      0.137700
     58 H17         4.8100    5.0800   -2.5980 hc        1 3JJ      0.067700
     59 H18         4.2080    3.9570   -3.8840 hc        1 3JJ      0.067700
     60 H19         3.9880    3.5470   -2.1260 hc        1 3JJ      0.067700
     61 H20         7.5660    2.7300   -1.4280 hc        1 3JJ      0.067700
     62 H21         7.1000    4.4780   -1.3800 hc        1 3JJ      0.067700
     63 H22         5.9790    3.2500   -0.6940 hc        1 3JJ      0.067700
     64 H23         7.9800    3.6870   -3.8600 hc        1 3JJ      0.067700
     65 H24         6.9050    5.1330   -3.7240 hc        1 3JJ      0.067700
     66 H25         6.5260    3.8610   -4.9530 hc        1 3JJ      0.067700
     67 H26         7.0140    2.4110   -6.4150 h1        1 3JJ      0.089700
     68 H27         5.9370    0.9850   -5.9700 h1        1 3JJ      0.089700
     69 H28         7.7340    0.9940   -8.1640 h1        1 3JJ      0.101700
     70 H29         7.0520   -1.0950   -8.1580 ho        1 3JJ      0.446000
     71 H30         9.8590    0.7720   -7.1980 hc        1 3JJ      0.092700
     72 H31         9.3470   -0.9120   -6.7240 hc        1 3JJ      0.092700
     73 H32         9.2100   -0.3260   -4.4630 h1        1 3JJ      0.120700
     74 H33        12.0900    0.9780   -4.1070 hn        1 3JJ      0.463800
     75 H34        11.9420    1.8530   -6.9560 hx        1 3JJ      0.108700
     76 H35        12.3740    2.9430   -5.5350 hx        1 3JJ      0.108700
     77 H36        13.5010    0.1250   -7.7210 ha        1 3JJ      0.134500
     78 H37        15.8620   -0.6220   -7.8480 ha        1 3JJ      0.170000
     79 H38        14.4800    2.6300   -4.3150 ha        1 3JJ      0.134500
     80 H39        16.8430    1.8900   -4.4520 ha        1 3JJ      0.170000
     81 H40        21.0000   -0.8450   -7.4650 h5        1 3JJ      0.081100
     82 H41        17.3880   -0.1420   -3.5610 hc        1 3JJ      0.063700
     83 H42        18.7640    1.0410   -3.3850 hc        1 3JJ      0.063700
     84 H43        19.0570   -0.7300   -3.1440 hc        1 3JJ      0.063700
     85 H2A         1.5820   -1.3720   -1.0410 hn        1 3JJ      0.490800
     86 HAH2        5.9180    0.5960   -1.6310 hn        1 3JJ      0.496800
     87 HAY2       11.5710    0.0630   -5.3960 hn        1 3JJ      0.463800
@<TRIPOS>BOND
     1    1    2 1   
     2    1   42 1   
     3    1   43 1   
     4    1   44 1   
     5    2    3 2   
     6    2    4 1   
     7    4    5 1   
     8    4   45 1   
     9    4   85 1   
    10    5    6 1   
    11    5   10 1   
    12    5   46 1   
    13    6    7 1   
    14    6    8 1   
    15    6    9 1   
    16    7   47 1   
    17    7   48 1   
    18    7   49 1   
    19    8   50 1   
    20    8   51 1   
    21    8   52 1   
    22    9   53 1   
    23    9   54 1   
    24    9   55 1   
    25   10   11 2   
    26   10   12 1   
    27   12   13 1   
    28   12   56 1   
    29   12   86 1   
    30   13   14 1   
    31   13   18 1   
    32   13   57 1   
    33   14   15 1   
    34   14   16 1   
    35   14   17 1   
    36   15   58 1   
    37   15   59 1   
    38   15   60 1   
    39   16   61 1   
    40   16   62 1   
    41   16   63 1   
    42   17   64 1   
    43   17   65 1   
    44   17   66 1   
    45   18   19 2   
    46   18   20 1   
    47   20   21 1   
    48   20   25 1   
    49   21   22 1   
    50   21   67 1   
    51   21   68 1   
    52   22   23 1   
    53   22   24 1   
    54   22   69 1   
    55   23   70 1   
    56   24   25 1   
    57   24   71 1   
    58   24   72 1   
    59   25   26 1   
    60   25   73 1   
    61   26   27 2   
    62   26   28 1   
    63   28   29 1   
    64   28   74 1   
    65   28   87 1   
    66   29   30 1   
    67   29   75 1   
    68   29   76 1   
    69   30   31 ar  
    70   30   33 ar  
    71   31   32 ar  
    72   31   77 1   
    73   32   35 ar  
    74   32   78 1   
    75   33   34 ar  
    76   33   79 1   
    77   34   35 ar  
    78   34   80 1   
    79   35   36 1   
    80   36   37 1   
    81   36   40 2   
    82   37   38 1   
    83   38   39 2   
    84   38   81 1   
    85   39   40 1   
    86   40   41 1   
    87   41   82 1   
    88   41   83 1   
    89   41   84 1   
@<TRIPOS>SUBSTRUCTURE
     1 3JJ         1 TEMP              0 ****  ****    0 ROOT
