@<TRIPOS>MOLECULE
3JJ
   87    89     1     0     0
SMALL
bcc


@<TRIPOS>ATOM
      1 CAD        -0.0660    0.7160   -1.3810 c3        1 3JJ     -0.197100
      2 CAA         1.4050    0.6680   -1.5510 c         1 3JJ      0.604100
      3 OAC         2.2250    1.5740   -1.6070 o         1 3JJ     -0.477100
      4 N           2.0300   -0.7290   -1.6740 ny        1 3JJ     -0.701800
      5 CA          3.5140   -0.7280   -1.4660 c3        1 3JJ      0.055500
      6 CB          4.1050   -2.1750   -1.3730 c3        1 3JJ     -0.052000
      7 CG1         3.6130   -2.8130   -0.0820 c3        1 3JJ     -0.128767
      8 CBO         3.6890   -3.0200   -2.5640 c3        1 3JJ     -0.128767
      9 CG2         5.6200   -2.0430   -1.3220 c3        1 3JJ     -0.128767
     10 C           4.1970    0.0480   -2.6070 c         1 3JJ      0.532100
     11 O           3.9570   -0.1180   -3.7940 o         1 3JJ     -0.390100
     12 NAH         5.1880    1.0800   -2.1900 ny        1 3JJ     -0.667800
     13 CAI         5.8680    1.8380   -3.3160 c3        1 3JJ      0.068500
     14 CAJ         6.0450    3.3390   -2.9170 c3        1 3JJ     -0.055000
     15 CAL         4.6750    4.0070   -2.9060 c3        1 3JJ     -0.120100
     16 CAM         6.7080    3.4730   -1.5560 c3        1 3JJ     -0.120100
     17 CAK         6.9050    4.0270   -3.9690 c3        1 3JJ     -0.120100
     18 CAO         7.2330    1.1620   -3.6040 c         1 3JJ      0.660100
     19 OAP         7.8560    0.6560   -2.6440 o         1 3JJ     -0.610100
     20 NAQ         7.7520    1.1580   -4.8760 n         1 3JJ     -0.427800
     21 CAU         6.9800    1.2930   -6.1050 c3        1 3JJ      0.066000
     22 CAT         7.6730    0.4050   -7.1730 c3        1 3JJ      0.145100
     23 OAX         6.9340   -0.7960   -7.2320 oh        1 3JJ     -0.598800
     24 CAS         9.0880    0.1390   -6.6230 c3        1 3JJ     -0.135400
     25 CAR         9.0610    0.5620   -5.1370 c3        1 3JJ      0.043700
     26 CAV        10.2080    1.5410   -4.8340 c         1 3JJ      0.516100
     27 OAW        10.1040    2.6880   -4.4270 o         1 3JJ     -0.402100
     28 NAY        11.5910    1.0080   -5.0390 ny        1 3JJ     -0.683800
     29 CAZ        12.4140    1.8740   -5.9850 c3        1 3JJ      0.201100
     30 CBA        13.8080    1.3850   -6.0340 ca        1 3JJ     -0.243300
     31 CBF        14.2040    0.4650   -7.0170 ca        1 3JJ     -0.080500
     32 CBE        15.5270    0.0540   -7.0970 ca        1 3JJ     -0.132000
     33 CBB        14.7620    1.8890   -5.1370 ca        1 3JJ     -0.080500
     34 CBC        16.0850    1.4770   -5.2160 ca        1 3JJ     -0.132000
     35 CBD        16.4920    0.5460   -6.1920 ca        1 3JJ      0.117000
     36 CBG        17.8570    0.1180   -6.2940 cc        1 3JJ     -0.249400
     37 SBK        18.6070   -0.1920   -7.7810 ss        1 3JJ     -0.041300
     38 CBJ        20.0580   -0.5820   -6.9960 cc        1 3JJ      0.415300
     39 NBI        20.0310   -0.5080   -5.6690 nd        1 3JJ     -0.616000
     40 CBH        18.7690   -0.1030   -5.2450 cd        1 3JJ      0.418600
     41 CBL        18.4760    0.0400   -3.8000 c3        1 3JJ     -0.143400
     42 H1         -0.5920   -0.2310   -1.6600 hc        1 3JJ      0.145033
     43 H2         -0.2990    0.9610   -0.3040 hc        1 3JJ      0.145033
     44 H3         -0.4720    1.5580   -2.0120 hc        1 3JJ      0.145033
     45 H4          1.6110   -1.3570   -0.9680 hn        1 3JJ      0.490800
     46 H5          3.7010   -0.2180   -0.4700 hx        1 3JJ      0.135700
     47 H6          2.5190   -3.0340   -0.1150 hc        1 3JJ      0.074144
     48 H7          3.8370   -2.1690    0.8030 hc        1 3JJ      0.074144
     49 H8          4.1410   -3.7920    0.0670 hc        1 3JJ      0.074144
     50 H9          4.2960   -3.9630   -2.5770 hc        1 3JJ      0.074144
     51 H10         3.8660   -2.4860   -3.5290 hc        1 3JJ      0.074144
     52 H11         2.6160   -3.3250   -2.4990 hc        1 3JJ      0.074144
     53 H12         6.0710   -3.0540   -1.1430 hc        1 3JJ      0.074144
     54 H13         6.0280   -1.6610   -2.2890 hc        1 3JJ      0.074144
     55 H14         5.9410   -1.3800   -0.4820 hc        1 3JJ      0.074144
     56 H15         4.6900    1.7740   -1.6010 hn        1 3JJ      0.496800
     57 H16         5.1920    1.7900   -4.2220 hx        1 3JJ      0.137700
     58 H17         3.9860    3.5650   -2.1460 hc        1 3JJ      0.067811
     59 H18         4.1940    3.9450   -3.9120 hc        1 3JJ      0.067811
     60 H19         4.8000    5.0910   -2.6500 hc        1 3JJ      0.067811
     61 H20         7.5720    2.7710   -1.4580 hc        1 3JJ      0.067811
     62 H21         5.9870    3.2960   -0.7220 hc        1 3JJ      0.067811
     63 H22         7.0990    4.5170   -1.4340 hc        1 3JJ      0.067811
     64 H23         7.9680    3.6880   -3.9070 hc        1 3JJ      0.067811
     65 H24         6.8890    5.1330   -3.7880 hc        1 3JJ      0.067811
     66 H25         6.5050    3.8410   -4.9940 hc        1 3JJ      0.067811
     67 H26         5.9200    0.9460   -5.9600 h1        1 3JJ      0.089700
     68 H27         6.9900    2.3690   -6.4350 h1        1 3JJ      0.089700
     69 H28         7.7050    0.9260   -8.1650 h1        1 3JJ      0.101700
     70 H29         7.0300   -1.1640   -8.1220 ho        1 3JJ      0.446000
     71 H30         9.8360    0.7270   -7.2080 hc        1 3JJ      0.092700
     72 H31         9.3330   -0.9510   -6.7050 hc        1 3JJ      0.092700
     73 H32         9.2070   -0.3310   -4.4530 h1        1 3JJ      0.120700
     74 H33        12.0840    0.9870   -4.1340 hn        1 3JJ      0.463800
     75 H34        11.9170    1.8190   -6.9950 hx        1 3JJ      0.108700
     76 H35        12.3560    2.9300   -5.5920 hx        1 3JJ      0.108700
     77 H36        13.4730    0.0820   -7.7450 ha        1 3JJ      0.134500
     78 H37        15.8330   -0.6630   -7.8770 ha        1 3JJ      0.170000
     79 H38        14.4720    2.6380   -4.3830 ha        1 3JJ      0.134500
     80 H39        16.8350    1.9000   -4.5250 ha        1 3JJ      0.170000
     81 H40        20.9740   -0.8750   -7.5260 h5        1 3JJ      0.081100
     82 H41        18.7640    1.0670   -3.4590 hc        1 3JJ      0.063367
     83 H42        19.0590   -0.7000   -3.1940 hc        1 3JJ      0.063367
     84 H43        17.3870   -0.1190   -3.6080 hc        1 3JJ      0.063367
     85 H2A         1.8150   -1.1180   -2.6060 hn        1 3JJ      0.490800
     86 HAH2        5.9300    0.6300   -1.6130 hn        1 3JJ      0.496800
     87 HAY2       11.5610    0.0510   -5.4050 hn        1 3JJ      0.463800
@<TRIPOS>BOND
     1    1    2 1   
     2    1   42 1   
     3    1   43 1   
     4    1   44 1   
     5    2    3 2   
     6    2    4 1   
     7    4    5 1   
     8    4   45 1   
     9    4   85 1   
    10    5    6 1   
    11    5   10 1   
    12    5   46 1   
    13    6    7 1   
    14    6    8 1   
    15    6    9 1   
    16    7   47 1   
    17    7   48 1   
    18    7   49 1   
    19    8   50 1   
    20    8   51 1   
    21    8   52 1   
    22    9   53 1   
    23    9   54 1   
    24    9   55 1   
    25   10   11 2   
    26   10   12 1   
    27   12   13 1   
    28   12   56 1   
    29   12   86 1   
    30   13   14 1   
    31   13   18 1   
    32   13   57 1   
    33   14   15 1   
    34   14   16 1   
    35   14   17 1   
    36   15   58 1   
    37   15   59 1   
    38   15   60 1   
    39   16   61 1   
    40   16   62 1   
    41   16   63 1   
    42   17   64 1   
    43   17   65 1   
    44   17   66 1   
    45   18   19 2   
    46   18   20 1   
    47   20   21 1   
    48   20   25 1   
    49   21   22 1   
    50   21   67 1   
    51   21   68 1   
    52   22   23 1   
    53   22   24 1   
    54   22   69 1   
    55   23   70 1   
    56   24   25 1   
    57   24   71 1   
    58   24   72 1   
    59   25   26 1   
    60   25   73 1   
    61   26   27 2   
    62   26   28 1   
    63   28   29 1   
    64   28   74 1   
    65   28   87 1   
    66   29   30 1   
    67   29   75 1   
    68   29   76 1   
    69   30   31 ar  
    70   30   33 ar  
    71   31   32 ar  
    72   31   77 1   
    73   32   35 ar  
    74   32   78 1   
    75   33   34 ar  
    76   33   79 1   
    77   34   35 ar  
    78   34   80 1   
    79   35   36 1   
    80   36   37 1   
    81   36   40 2   
    82   37   38 1   
    83   38   39 2   
    84   38   81 1   
    85   39   40 1   
    86   40   41 1   
    87   41   82 1   
    88   41   83 1   
    89   41   84 1   
@<TRIPOS>SUBSTRUCTURE
     1 3JJ         1 TEMP              0 ****  ****    0 ROOT
