@<TRIPOS>MOLECULE
3JK
   59    61     1     0     0
SMALL
bcc


@<TRIPOS>ATOM
      1 CAB        -0.0780    0.8270    0.9380 c3        1 3JK     -0.096433
      2 CBC         1.4110    1.0520    1.1370 c3        1 3JK     -0.041000
      3 CAC         1.6800    1.5500    2.5490 c3        1 3JK     -0.096433
      4 CAD         2.1440   -0.2720    0.9340 c3        1 3JK     -0.096433
      5 CAN         1.9580    2.0340    0.0980 c3        1 3JK     -0.137400
      6 CAT         1.2800    3.3810    0.0540 c         1 3JK      0.683100
      7 OAE         0.5370    3.8350    0.9520 o         1 3JK     -0.650100
      8 N           1.4370    4.1720   -1.0950 n         1 3JK     -0.479800
      9 CD2         2.4310    3.8660   -2.1140 c3        1 3JK      0.037000
     10 CG          2.9480    5.2050   -2.7030 c3        1 3JK      0.136100
     11 OD1         4.2890    5.4230   -2.3130 oh        1 3JK     -0.584800
     12 CB          2.1020    6.3080   -2.0490 c3        1 3JK     -0.096400
     13 CA          1.1690    5.6000   -1.0440 c3        1 3JK      0.039700
     14 C          -0.3000    5.9230   -1.3750 c         1 3JK      0.534100
     15 O          -0.7130    6.6300   -2.2790 o         1 3JK     -0.418100
     16 NAR        -1.3100    5.3090   -0.4430 ny        1 3JK     -0.677800
     17 CAM        -2.6270    6.0260   -0.3760 c3        1 3JK      0.175100
     18 CAV        -2.5800    7.1810    0.5610 ca        1 3JK     -0.193300
     19 CAI        -2.5170    8.4890    0.0640 ca        1 3JK     -0.094000
     20 CAK        -2.5220    9.5680    0.9400 ca        1 3JK     -0.118000
     21 CAH        -2.6430    6.9650    1.9430 ca        1 3JK     -0.094000
     22 CAJ        -2.6430    8.0430    2.8220 ca        1 3JK     -0.118000
     23 CAX        -2.5860    9.3590    2.3310 ca        1 3JK     -0.045500
     24 CAY        -2.5950   10.4780    3.2300 cc        1 3JK      0.147900
     25 OAS        -2.3320   11.7440    2.6630 os        1 3JK     -0.385800
     26 CAL        -2.4070   12.6420    3.7290 cc        1 3JK      0.523300
     27 NAQ        -2.6910   12.0510    4.8830 nd        1 3JK     -0.664000
     28 CAW        -2.8180   10.6750    4.5990 cd        1 3JK      0.320300
     29 CAA        -3.1410    9.6760    5.6310 c3        1 3JK     -0.138400
     30 H1         -0.4420    0.0490    1.6520 hc        1 3JK      0.045478
     31 H2         -0.2860    0.4770   -0.1010 hc        1 3JK      0.045478
     32 H3         -0.6440    1.7700    1.1270 hc        1 3JK      0.045478
     33 H4          1.3160    0.7990    3.2910 hc        1 3JK      0.045478
     34 H5          1.1510    2.5160    2.7330 hc        1 3JK      0.045478
     35 H6          2.7750    1.7010    2.7070 hc        1 3JK      0.045478
     36 H7          1.9390   -0.6840   -0.0830 hc        1 3JK      0.045478
     37 H8          1.7980   -1.0140    1.6940 hc        1 3JK      0.045478
     38 H9          3.2450   -0.1320    1.0520 hc        1 3JK      0.045478
     39 H10         1.8880    1.5500   -0.9150 hc        1 3JK      0.084200
     40 H11         3.0460    2.2230    0.3210 hc        1 3JK      0.084200
     41 H12         1.9410    3.2460   -2.9130 h1        1 3JK      0.076700
     42 H13         3.2950    3.2900   -1.6800 h1        1 3JK      0.076700
     43 H14         2.8430    5.2120   -3.8190 h1        1 3JK      0.074700
     44 H15         4.8570    4.9970   -2.9680 ho        1 3JK      0.424000
     45 H16         1.5300    6.8740   -2.8250 hc        1 3JK      0.102700
     46 H17         2.7660    7.0270   -1.5020 hc        1 3JK      0.102700
     47 H18         1.3450    6.0000    0.0030 h1        1 3JK      0.112700
     48 H19        -1.4600    4.3400   -0.7460 hn        1 3JK      0.474800
     49 H20        -3.3910    5.2710   -0.0260 hx        1 3JK      0.111200
     50 H21        -2.8970    6.3620   -1.4200 hx        1 3JK      0.111200
     51 H22        -2.4730    8.6660   -1.0220 ha        1 3JK      0.143500
     52 H23        -2.4800   10.5980    0.5490 ha        1 3JK      0.164500
     53 H24        -2.7070    5.9410    2.3420 ha        1 3JK      0.143500
     54 H25        -2.6890    7.8620    3.9080 ha        1 3JK      0.164500
     55 H26        -2.2280   13.6940    3.4870 h5        1 3JK      0.101100
     56 H27        -2.2510    9.0240    5.8220 hc        1 3JK      0.064700
     57 H28        -3.9940    9.0360    5.2900 hc        1 3JK      0.064700
     58 H29        -3.4300   10.1630    6.5970 hc        1 3JK      0.064700
     59 HAR2       -0.8920    5.2720    0.5060 hn        1 3JK      0.474800
@<TRIPOS>BOND
     1    1    2 1   
     2    1   30 1   
     3    1   31 1   
     4    1   32 1   
     5    2    3 1   
     6    2    4 1   
     7    2    5 1   
     8    3   33 1   
     9    3   34 1   
    10    3   35 1   
    11    4   36 1   
    12    4   37 1   
    13    4   38 1   
    14    5    6 1   
    15    5   39 1   
    16    5   40 1   
    17    6    7 2   
    18    6    8 1   
    19    8    9 1   
    20    8   13 1   
    21    9   10 1   
    22    9   41 1   
    23    9   42 1   
    24   10   11 1   
    25   10   12 1   
    26   10   43 1   
    27   11   44 1   
    28   12   13 1   
    29   12   45 1   
    30   12   46 1   
    31   13   14 1   
    32   13   47 1   
    33   14   15 2   
    34   14   16 1   
    35   16   17 1   
    36   16   48 1   
    37   16   59 1   
    38   17   18 1   
    39   17   49 1   
    40   17   50 1   
    41   18   19 ar  
    42   18   21 ar  
    43   19   20 ar  
    44   19   51 1   
    45   20   23 ar  
    46   20   52 1   
    47   21   22 ar  
    48   21   53 1   
    49   22   23 ar  
    50   22   54 1   
    51   23   24 1   
    52   24   25 1   
    53   24   28 2   
    54   25   26 1   
    55   26   27 2   
    56   26   55 1   
    57   27   28 1   
    58   28   29 1   
    59   29   56 1   
    60   29   57 1   
    61   29   58 1   
@<TRIPOS>SUBSTRUCTURE
     1 3JK         1 TEMP              0 ****  ****    0 ROOT
