@<TRIPOS>MOLECULE
3JK
   58    60     1     0     0
SMALL
bcc


@<TRIPOS>ATOM
      1 CAB        -0.5150    1.4670    1.1540 c3        1 3JK     -0.094100
      2 CBC         0.9800    1.2100    1.2640 c3        1 3JK     -0.039000
      3 CAC         1.4710    1.5970    2.6500 c3        1 3JK     -0.094100
      4 CAD         1.2440   -0.2770    1.0460 c3        1 3JK     -0.094100
      5 CAN         1.7430    1.9760    0.1830 c3        1 3JK     -0.137400
      6 CAT         1.5050    3.4710    0.1500 c         1 3JK      0.674100
      7 OAE         1.0030    4.1170    1.0950 o         1 3JK     -0.628100
      8 N           1.8400    4.1480   -1.0180 n         1 3JK     -0.465800
      9 CD2         2.6680    3.5640   -2.0550 c3        1 3JK      0.085000
     10 CG          3.4330    4.7160   -2.7510 c3        1 3JK      0.129100
     11 OD1         4.8130    4.4680   -2.5430 oh        1 3JK     -0.599800
     12 CB          2.9640    6.0110   -2.0740 c3        1 3JK     -0.126400
     13 CA          1.8630    5.6050   -1.0730 c3        1 3JK      0.035700
     14 C           0.4960    6.2080   -1.4850 c         1 3JK      0.652100
     15 O           0.3900    6.9390   -2.4900 o         1 3JK     -0.620100
     16 NAR        -0.5830    5.8890   -0.6930 n         1 3JK     -0.550900
     17 CAM        -1.8690    6.5080   -0.8670 c3        1 3JK      0.126300
     18 CAV        -2.2490    7.4680    0.2260 ca        1 3JK     -0.104300
     19 CAI        -2.5210    8.8060   -0.0770 ca        1 3JK     -0.119000
     20 CAK        -2.9020    9.6910    0.9280 ca        1 3JK     -0.109000
     21 CAH        -2.3600    7.0260    1.5480 ca        1 3JK     -0.119000
     22 CAJ        -2.7370    7.9070    2.5580 ca        1 3JK     -0.109000
     23 CAX        -3.0090    9.2510    2.2570 ca        1 3JK     -0.119500
     24 CAY        -3.3900   10.1680    3.2990 cc        1 3JK      0.209900
     25 OAS        -3.9990   11.3730    2.8970 os        1 3JK     -0.384800
     26 CAL        -4.2540   12.0660    4.0830 cc        1 3JK      0.484300
     27 NAQ        -3.8590   11.4040    5.1620 nd        1 3JK     -0.668000
     28 CAW        -3.3030   10.1940    4.6950 cd        1 3JK      0.260300
     29 CAA        -2.7360    9.1730    5.5930 c3        1 3JK     -0.123400
     30 H1         -0.7370    2.5440    1.3470 hc        1 3JK      0.040589
     31 H2         -1.0640    0.8490    1.9050 hc        1 3JK      0.040589
     32 H3         -0.8820    1.1980    0.1350 hc        1 3JK      0.040589
     33 H4          2.5640    1.3940    2.7450 hc        1 3JK      0.040589
     34 H5          0.9300    1.0020    3.4250 hc        1 3JK      0.040589
     35 H6          1.2870    2.6830    2.8390 hc        1 3JK      0.040589
     36 H7          0.8610   -0.6020    0.0490 hc        1 3JK      0.040589
     37 H8          2.3390   -0.4900    1.0970 hc        1 3JK      0.040589
     38 H9          0.7290   -0.8740    1.8360 hc        1 3JK      0.040589
     39 H10         1.4700    1.5360   -0.8160 hc        1 3JK      0.069700
     40 H11         2.8450    1.8190    0.3410 hc        1 3JK      0.069700
     41 H12         3.4010    2.8230   -1.6300 h1        1 3JK      0.064200
     42 H13         2.0100    3.0380   -2.8000 h1        1 3JK      0.064200
     43 H14         3.2140    4.7290   -3.8520 h1        1 3JK      0.057700
     44 H15         5.2930    5.2030   -2.9420 ho        1 3JK      0.408000
     45 H16         2.5710    6.7370   -2.8290 hc        1 3JK      0.082200
     46 H17         3.8110    6.4920   -1.5240 hc        1 3JK      0.082200
     47 H18         2.0980    6.0180   -0.0460 h1        1 3JK      0.087700
     48 H19        -0.4210    5.4210    0.1730 hn        1 3JK      0.334500
     49 H20        -2.6450    5.6860   -0.8920 h1        1 3JK      0.069700
     50 H21        -1.8880    7.0380   -1.8640 h1        1 3JK      0.069700
     51 H22        -2.4300    9.1640   -1.1140 ha        1 3JK      0.141000
     52 H23        -3.1200   10.7420    0.6860 ha        1 3JK      0.144000
     53 H24        -2.1500    5.9740    1.7960 ha        1 3JK      0.141000
     54 H25        -2.8300    7.5460    3.5930 ha        1 3JK      0.144000
     55 H26        -4.7350   13.0390    3.9740 h5        1 3JK      0.087100
     56 H27        -1.7840    8.7720    5.1610 hc        1 3JK      0.055033
     57 H28        -2.5180    9.5950    6.6050 hc        1 3JK      0.055033
     58 H29        -3.4600    8.3270    5.7140 hc        1 3JK      0.055033
@<TRIPOS>BOND
     1    1    2 1   
     2    1   30 1   
     3    1   31 1   
     4    1   32 1   
     5    2    3 1   
     6    2    4 1   
     7    2    5 1   
     8    3   33 1   
     9    3   34 1   
    10    3   35 1   
    11    4   36 1   
    12    4   37 1   
    13    4   38 1   
    14    5    6 1   
    15    5   39 1   
    16    5   40 1   
    17    6    7 2   
    18    6    8 1   
    19    8    9 1   
    20    8   13 1   
    21    9   10 1   
    22    9   41 1   
    23    9   42 1   
    24   10   11 1   
    25   10   12 1   
    26   10   43 1   
    27   11   44 1   
    28   12   13 1   
    29   12   45 1   
    30   12   46 1   
    31   13   14 1   
    32   13   47 1   
    33   14   15 2   
    34   14   16 1   
    35   16   17 1   
    36   16   48 1   
    37   17   18 1   
    38   17   49 1   
    39   17   50 1   
    40   18   19 ar  
    41   18   21 ar  
    42   19   20 ar  
    43   19   51 1   
    44   20   23 ar  
    45   20   52 1   
    46   21   22 ar  
    47   21   53 1   
    48   22   23 ar  
    49   22   54 1   
    50   23   24 1   
    51   24   25 1   
    52   24   28 2   
    53   25   26 1   
    54   26   27 2   
    55   26   55 1   
    56   27   28 1   
    57   28   29 1   
    58   29   56 1   
    59   29   57 1   
    60   29   58 1   
@<TRIPOS>SUBSTRUCTURE
     1 3JK         1 TEMP              0 ****  ****    0 ROOT
