@<TRIPOS>MOLECULE
3JL
   27    31     1     0     0
SMALL
bcc


@<TRIPOS>ATOM
      1 C8          0.0000    0.0000    0.0000 c2        1 3JL      0.480000
      2 C4          2.1780    0.0000    1.2040 c3        1 3JL     -0.303000
      3 C5          1.4780    0.0000    0.0000 c2        1 3JL      0.051000
      4 C2          4.2570   -0.0060    0.0050 c2        1 3JL     -0.087000
      5 C6          2.1870    0.0000   -1.2160 c2        1 3JL     -0.158000
      6 O12         0.2680   -3.7660    3.8710 o         1 3JL     -0.618500
      7 O15        -0.7280   -3.0960    5.7270 o         1 3JL     -0.618500
      8 C11        -0.0530   -2.8520    4.5930 c2        1 3JL      0.398000
      9 C10         0.3040   -1.4370    4.2180 DU        1 3JL     -0.018000
     10 C9          1.0660   -1.4360    2.8910 DU        1 3JL     -0.077000
     11 C3          3.5610   -0.0060    1.1990 c2        1 3JL     -0.159000
     12 C7          3.5790   -0.0000   -1.2010 c2        1 3JL     -0.052000
     13 O10        -0.6740   -1.1660   -0.0010 o         1 3JL     -0.626500
     14 O9         -0.6070    1.0520    0.0040 o         1 3JL     -0.626500
     15 C12         1.4580   -0.0000   -2.5030 c2        1 3JL      0.429000
     16 O14         0.2440    0.0010   -2.5120 o         1 3JL     -0.615500
     17 O13         2.1400   -0.0000   -3.6640 o         1 3JL     -0.615500
     18 H1          3.4570   -0.0520    0.7340 ha        1 3JL     -0.185000
     19 H3          1.1170   -1.2060    3.5400 DU        1 3JL      0.077500
     20 H4          0.9270   -1.0050    4.9920 ha        1 3JL      0.049000
     21 H5          0.2250   -1.1400    3.5060 DU        1 3JL      0.077500
     22 H6          1.9740   -2.0200    2.9810 ha        1 3JL      0.047000
     23 H7          0.9240   -0.9350    2.3000 DU        1 3JL      0.260000
     24 H8          1.9650    0.2070    3.4290 hc        1 3JL      0.034000
     25 H9          2.5790    0.1240    1.6380 DU        1 3JL      0.362000
     26 H10         3.7470   -0.0020   -0.1310 ha        1 3JL      0.000000
     27 C1          1.4280   -0.0000    2.5110 c3        1 3JL     -0.503000
@<TRIPOS>BOND
     1    1    3 1   
     2    1   13 1   
     3    1   14 1   
     4    2    3 1   
     5    2   11 1   
     6    2   25 1   
     7    2   27 1   
     8    3    5 1   
     9    4   11 1   
    10    4   12 1   
    11    4   18 1   
    12    5   12 1   
    13    5   15 1   
    14    6    8 1   
    15    7    8 1   
    16    8    9 1   
    17    9   10 1   
    18    9   19 1   
    19    9   20 1   
    20    9   21 1   
    21   10   19 1   
    22   10   21 1   
    23   10   22 1   
    24   10   23 1   
    25   10   27 1   
    26   11   25 1   
    27   12   26 1   
    28   15   16 1   
    29   15   17 1   
    30   23   27 1   
    31   24   27 1   
@<TRIPOS>SUBSTRUCTURE
     1 3JL         1 TEMP              0 ****  ****    0 ROOT
