@<TRIPOS>MOLECULE
3JM
   24    24     1     0     0
SMALL
bcc


@<TRIPOS>ATOM
      1 C7          0.0650    0.0960    0.1090 ca        1 3JM     -0.159000
      2 O19         4.3490   -2.3130    5.6700 o         1 3JM     -0.890300
      3 C15         3.8950   -1.3110    5.0260 c         1 3JM      0.899600
      4 O16         4.5020   -0.1970    5.0450 o         1 3JM     -0.890300
      5 C14         2.6360   -1.5160    4.1800 c3        1 3JM     -0.167400
      6 C13         1.7500   -0.2930    4.0250 c3        1 3JM     -0.030100
      7 C4          1.1030   -0.1790    2.6780 ca        1 3JM     -0.059300
      8 C3         -0.2940   -0.0500    2.5050 ca        1 3JM     -0.070600
      9 C10        -1.1730   -0.0500    3.7490 c         1 3JM      0.927200
     10 O12        -1.6600   -1.1440    4.1620 o         1 3JM     -0.858800
     11 O11        -1.3400    1.0400    4.3760 o         1 3JM     -0.858800
     12 C5          1.9540   -0.1500    1.5650 ca        1 3JM     -0.176000
     13 C6          1.4390   -0.0170    0.2810 ca        1 3JM     -0.198000
     14 C2         -0.8140    0.0880    1.2040 ca        1 3JM     -0.077600
     15 C1         -2.2710    0.2450    0.7940 c         1 3JM      0.928200
     16 O8         -2.9200   -0.7810    0.4230 o         1 3JM     -0.869300
     17 O9         -2.7590    1.4110    0.6830 o         1 3JM     -0.869300
     18 H1         -0.3540    0.1980   -0.9030 ha        1 3JM      0.092000
     19 H3          2.0410   -2.3510    4.6310 hc        1 3JM      0.022700
     20 H4          2.9890   -1.8700    3.1760 hc        1 3JM      0.022700
     21 H5          0.9580   -0.3020    4.8220 hc        1 3JM      0.058700
     22 H6          2.3790    0.6260    4.1880 hc        1 3JM      0.058700
     23 H8          3.0410   -0.2260    1.7170 ha        1 3JM      0.102000
     24 H9          2.1120   -0.0000   -0.5870 ha        1 3JM      0.063000
@<TRIPOS>BOND
     1    1   13 ar  
     2    1   14 ar  
     3    1   18 1   
     4    2    3 1   
     5    3    4 1   
     6    3    5 1   
     7    5    6 1   
     8    5   19 1   
     9    5   20 1   
    10    6    7 1   
    11    6   21 1   
    12    6   22 1   
    13    7    8 ar  
    14    7   12 ar  
    15    8    9 1   
    16    8   14 ar  
    17    9   10 1   
    18    9   11 1   
    19   12   13 ar  
    20   12   23 1   
    21   13   24 1   
    22   14   15 1   
    23   15   16 1   
    24   15   17 1   
@<TRIPOS>SUBSTRUCTURE
     1 3JM         1 TEMP              0 ****  ****    0 ROOT
