@<TRIPOS>MOLECULE
3JN
   25    25     1     0     0
SMALL
bcc


@<TRIPOS>ATOM
      1 O15         0.6820   -1.7310    0.4220 o         1 3JN     -0.882800
      2 C11         1.0640   -0.6010   -0.0250 c         1 3JN      0.902600
      3 O12         1.7460    0.1930    0.6900 o         1 3JN     -0.882800
      4 C10         0.6660   -0.2490   -1.4650 c3        1 3JN     -0.143200
      5 C9          1.0800    1.0880   -1.9330 c2        1 3JN     -0.182200
      6 C1          0.8910    1.7030   -3.1110 ce        1 3JN     -0.119200
      7 C4          0.2220    1.2880   -4.3380 ca        1 3JN     -0.047800
      8 C3         -0.3670    0.0210   -4.4450 ca        1 3JN     -0.163000
      9 C2         -1.0040   -0.3720   -5.6180 ca        1 3JN     -0.200000
     10 C7         -1.0550    0.5010   -6.6970 ca        1 3JN     -0.144000
     11 C5          0.1670    2.1800   -5.4460 ca        1 3JN     -0.059600
     12 C8          0.8190    3.5490   -5.2910 c         1 3JN      0.924200
     13 O10         0.1330    4.5040   -4.8180 o         1 3JN     -0.855800
     14 O9          2.0500    3.6750   -5.5660 o         1 3JN     -0.855800
     15 C6         -0.4760    1.7790   -6.6280 ca        1 3JN     -0.085600
     16 C12        -0.6410    2.5760   -7.9150 c         1 3JN      0.928200
     17 O14         0.2130    2.4300   -8.8410 o         1 3JN     -0.865300
     18 O13        -1.7030    3.2480   -8.0880 o         1 3JN     -0.865300
     19 H2          1.1120   -1.0420   -2.1250 hc        1 3JN      0.030200
     20 H3         -0.4510   -0.3500   -1.5280 hc        1 3JN      0.030200
     21 H4          1.6390    1.6460   -1.1530 ha        1 3JN      0.123000
     22 H5          1.3160    2.7280   -3.1960 ha        1 3JN      0.141000
     23 H6         -0.3340   -0.6800   -3.6020 ha        1 3JN      0.109000
     24 H7         -1.4610   -1.3680   -5.6860 ha        1 3JN      0.070000
     25 H8         -1.5560    0.1980   -7.6270 ha        1 3JN      0.096000
@<TRIPOS>BOND
     1    1    2 1   
     2    2    3 1   
     3    2    4 1   
     4    4    5 1   
     5    4   19 1   
     6    4   20 1   
     7    5    6 2   
     8    5   21 1   
     9    6    7 1   
    10    6   22 1   
    11    7    8 ar  
    12    7   11 ar  
    13    8    9 ar  
    14    8   23 1   
    15    9   10 ar  
    16    9   24 1   
    17   10   15 ar  
    18   10   25 1   
    19   11   12 1   
    20   11   15 ar  
    21   12   13 1   
    22   12   14 1   
    23   15   16 1   
    24   16   17 1   
    25   16   18 1   
@<TRIPOS>SUBSTRUCTURE
     1 3JN         1 TEMP              0 ****  ****    0 ROOT
