@<TRIPOS>MOLECULE
3JO
   85    88     1     0     0
SMALL
bcc


@<TRIPOS>ATOM
      1 CAB         0.0130   -0.0640   -0.9070 c3        1 3JO     -0.128400
      2 CBJ         0.8840   -1.2520   -1.0620 cc        1 3JO      0.356600
      3 NAY         1.2550   -2.0170    0.0450 nc        1 3JO     -0.627000
      4 CAT         2.0380   -3.0140   -0.3460 cd        1 3JO      0.368300
      5 SBC         2.3590   -3.0840   -2.0160 ss        1 3JO     -0.092300
      6 CBL         1.4080   -1.7090   -2.2780 cd        1 3JO     -0.145400
      7 CBK         1.2040   -1.1440   -3.5900 ca        1 3JO     -0.004000
      8 CAS         2.2870   -0.9870   -4.4710 ca        1 3JO     -0.120000
      9 CAQ         2.0900   -0.4500   -5.7390 ca        1 3JO     -0.115000
     10 CAR        -0.0770   -0.7540   -4.0100 ca        1 3JO     -0.120000
     11 CAP        -0.2710   -0.2200   -5.2820 ca        1 3JO     -0.115000
     12 CBH         0.8110   -0.0610   -6.1510 ca        1 3JO     -0.115300
     13 CAU         0.6190    0.5450   -7.5130 c3        1 3JO      0.130300
     14 NAZ         0.7050   -0.3850   -8.6080 n         1 3JO     -0.551900
     15 CBE         1.8990   -0.6640   -9.2330 c         1 3JO      0.649100
     16 OAG         2.9470   -0.0430   -8.9600 o         1 3JO     -0.621100
     17 CBO         1.8870   -1.7870  -10.2990 c3        1 3JO      0.033700
     18 CAW         3.2810   -1.9520  -10.9350 c3        1 3JO     -0.126400
     19 CBM         3.1390   -1.5180  -12.4000 c3        1 3JO      0.133100
     20 OAJ         3.5880   -2.5120  -13.3040 oh        1 3JO     -0.588800
     21 CAX         1.6220   -1.3390  -12.6520 c3        1 3JO      0.075000
     22 NBQ         0.9420   -1.5260  -11.3820 n         1 3JO     -0.449800
     23 CBG        -0.3810   -1.9130  -11.2800 c         1 3JO      0.644100
     24 OAI        -0.8220   -2.3680  -10.2010 o         1 3JO     -0.638100
     25 CBP        -1.3240   -1.7450  -12.5020 c3        1 3JO      0.047700
     26 CBR        -2.3490   -0.6100  -12.2120 c3        1 3JO     -0.048000
     27 CAD        -3.4110   -1.0370  -11.2120 c3        1 3JO     -0.096100
     28 CAE        -1.5910    0.5920  -11.6650 c3        1 3JO     -0.096100
     29 CAC        -3.0190   -0.2170  -13.5230 c3        1 3JO     -0.096100
     30 NBB        -1.9420   -3.0080  -12.8190 n         1 3JO     -0.551900
     31 C          -1.4030   -3.8570  -13.7710 c         1 3JO      0.618100
     32 O          -0.4710   -3.4780  -14.5070 o         1 3JO     -0.604100
     33 CA         -2.0830   -5.2440  -13.9420 c3        1 3JO      0.053700
     34 N          -1.7140   -5.8830  -15.1790 n         1 3JO     -0.530900
     35 CBD        -0.5080   -6.5530  -15.4010 c         1 3JO      0.665100
     36 OAF         0.2120   -6.9740  -14.4780 o         1 3JO     -0.596100
     37 CAA        -0.1520   -6.8210  -16.8460 c3        1 3JO     -0.179100
     38 CB         -1.8510   -6.0820  -12.6720 c3        1 3JO     -0.043100
     39 CG         -2.7050   -7.3000  -12.6550 ca        1 3JO     -0.081300
     40 CD1        -4.0620   -7.2070  -12.3220 ca        1 3JO     -0.121500
     41 CE1        -4.8560   -8.3520  -12.2810 ca        1 3JO     -0.131500
     42 CZ         -4.3010   -9.5980  -12.5720 ca        1 3JO     -0.129000
     43 CE2        -2.9500   -9.6960  -12.9050 ca        1 3JO     -0.131500
     44 CD2        -2.1540   -8.5530  -12.9480 ca        1 3JO     -0.121500
     45 H1         -1.0580   -0.3850   -0.8450 hc        1 3JO      0.054700
     46 H2          0.2650    0.5020    0.0240 hc        1 3JO      0.054700
     47 H3          0.1350    0.6150   -1.7870 hc        1 3JO      0.054700
     48 H4          2.4410   -3.7350    0.3720 h5        1 3JO      0.054100
     49 H5          3.2970   -1.2860   -4.1520 ha        1 3JO      0.138500
     50 H6          2.9410   -0.3230   -6.4310 ha        1 3JO      0.145000
     51 H7         -0.9330   -0.8800   -3.3290 ha        1 3JO      0.138500
     52 H8         -1.2820    0.0790   -5.5980 ha        1 3JO      0.145000
     53 H9         -0.3970    1.0330   -7.5650 h1        1 3JO      0.067200
     54 H10         1.4050    1.3430   -7.6610 h1        1 3JO      0.067200
     55 H11        -0.0530   -1.0240   -8.7200 hn        1 3JO      0.335500
     56 H12         1.5900   -2.7370   -9.7600 h1        1 3JO      0.088700
     57 H13         3.5940   -3.0240  -10.8770 hc        1 3JO      0.082200
     58 H14         4.0420   -1.3270  -10.4040 hc        1 3JO      0.082200
     59 H15         3.6880   -0.5580  -12.5930 h1        1 3JO      0.054700
     60 H16         4.5200   -2.6660  -13.1090 ho        1 3JO      0.406000
     61 H17         1.4160   -0.3000  -13.0280 h1        1 3JO      0.078700
     62 H18         1.2770   -2.0890  -13.4220 h1        1 3JO      0.078700
     63 H19        -0.7290   -1.4200  -13.4110 h1        1 3JO      0.101700
     64 H20        -4.1400   -1.7420  -11.6800 hc        1 3JO      0.043589
     65 H21        -2.9410   -1.5340  -10.3280 hc        1 3JO      0.043589
     66 H22        -3.9770   -0.1410  -10.8590 hc        1 3JO      0.043589
     67 H23        -1.2090    0.3800  -10.6370 hc        1 3JO      0.043589
     68 H24        -2.2710    1.4770  -11.6140 hc        1 3JO      0.043589
     69 H25        -0.7270    0.8460  -12.3260 hc        1 3JO      0.043589
     70 H26        -3.7590    0.5990  -13.3370 hc        1 3JO      0.043589
     71 H27        -2.2610    0.1500  -14.2550 hc        1 3JO      0.043589
     72 H28        -3.5580   -1.0860  -13.9700 hc        1 3JO      0.043589
     73 H29        -2.5570   -3.3760  -12.1290 hn        1 3JO      0.321500
     74 H30        -3.2000   -5.0520  -14.0210 h1        1 3JO      0.072700
     75 H31        -2.0820   -5.4150  -15.9800 hn        1 3JO      0.300500
     76 H32         0.0850   -5.8590  -17.3620 hc        1 3JO      0.068700
     77 H33         0.7500   -7.4800  -16.8750 hc        1 3JO      0.068700
     78 H34        -0.9910   -7.3290  -17.3780 hc        1 3JO      0.068700
     79 H35        -0.7650   -6.3630  -12.5920 hc        1 3JO      0.078200
     80 H36        -2.1040   -5.4550  -11.7750 hc        1 3JO      0.078200
     81 H37        -4.5020   -6.2270  -12.0870 ha        1 3JO      0.139000
     82 H38        -5.9200   -8.2720  -12.0170 ha        1 3JO      0.130500
     83 H39        -4.9270  -10.5010  -12.5370 ha        1 3JO      0.130000
     84 H40        -2.5090  -10.6780  -13.1340 ha        1 3JO      0.130500
     85 H41        -1.0870   -8.6230  -13.2190 ha        1 3JO      0.139000
@<TRIPOS>BOND
     1    1    2 1   
     2    1   45 1   
     3    1   46 1   
     4    1   47 1   
     5    2    3 1   
     6    2    6 2   
     7    3    4 2   
     8    4    5 1   
     9    4   48 1   
    10    5    6 1   
    11    6    7 1   
    12    7    8 ar  
    13    7   10 ar  
    14    8    9 ar  
    15    8   49 1   
    16    9   12 ar  
    17    9   50 1   
    18   10   11 ar  
    19   10   51 1   
    20   11   12 ar  
    21   11   52 1   
    22   12   13 1   
    23   13   14 1   
    24   13   53 1   
    25   13   54 1   
    26   14   15 1   
    27   14   55 1   
    28   15   16 2   
    29   15   17 1   
    30   17   18 1   
    31   17   22 1   
    32   17   56 1   
    33   18   19 1   
    34   18   57 1   
    35   18   58 1   
    36   19   20 1   
    37   19   21 1   
    38   19   59 1   
    39   20   60 1   
    40   21   22 1   
    41   21   61 1   
    42   21   62 1   
    43   22   23 1   
    44   23   24 2   
    45   23   25 1   
    46   25   26 1   
    47   25   30 1   
    48   25   63 1   
    49   26   27 1   
    50   26   28 1   
    51   26   29 1   
    52   27   64 1   
    53   27   65 1   
    54   27   66 1   
    55   28   67 1   
    56   28   68 1   
    57   28   69 1   
    58   29   70 1   
    59   29   71 1   
    60   29   72 1   
    61   30   31 1   
    62   30   73 1   
    63   31   32 2   
    64   31   33 1   
    65   33   34 1   
    66   33   38 1   
    67   33   74 1   
    68   34   35 1   
    69   34   75 1   
    70   35   36 2   
    71   35   37 1   
    72   37   76 1   
    73   37   77 1   
    74   37   78 1   
    75   38   39 1   
    76   38   79 1   
    77   38   80 1   
    78   39   40 ar  
    79   39   44 ar  
    80   40   41 ar  
    81   40   81 1   
    82   41   42 ar  
    83   41   82 1   
    84   42   43 ar  
    85   42   83 1   
    86   43   44 ar  
    87   43   84 1   
    88   44   85 1   
@<TRIPOS>SUBSTRUCTURE
     1 3JO         1 TEMP              0 ****  ****    0 ROOT
