@<TRIPOS>MOLECULE
3JO
   88    91     1     0     0
SMALL
bcc


@<TRIPOS>ATOM
      1 CAB         1.0450    1.0360    0.1630 c3        1 3JO     -0.147400
      2 CBJ         2.3450    0.3260    0.1350 cc        1 3JO      0.426600
      3 NAY         3.0630    0.1270    1.3110 nc        1 3JO     -0.615000
      4 CAT         4.2040   -0.4970    1.0440 cd        1 3JO      0.423300
      5 SBC         4.4750   -0.8620   -0.5920 ss        1 3JO     -0.070300
      6 CBL         2.9840   -0.1730   -1.0160 cd        1 3JO     -0.244400
      7 CBK         2.5110   -0.1300   -2.3690 ca        1 3JO      0.117000
      8 CAS         3.4230    0.0500   -3.4320 ca        1 3JO     -0.132000
      9 CAQ         2.9800    0.1020   -4.7450 ca        1 3JO     -0.081000
     10 CAR         1.1430   -0.2740   -2.6740 ca        1 3JO     -0.132000
     11 CAP         0.7000   -0.2200   -3.9890 ca        1 3JO     -0.081000
     12 CBH         1.6130   -0.0280   -5.0360 ca        1 3JO     -0.243300
     13 CAU         1.1290    0.1030   -6.4270 c3        1 3JO      0.201100
     14 NAZ         1.0540   -1.2680   -7.0850 n4        1 3JO     -0.683800
     15 CBE         0.4320   -1.2150   -8.4460 c         1 3JO      0.517100
     16 OAG        -0.6890   -0.7370   -8.5320 o         1 3JO     -0.404100
     17 CBO         1.2760   -1.7990   -9.5910 c3        1 3JO      0.043700
     18 CAW         2.5840   -0.9950   -9.7640 c3        1 3JO     -0.135400
     19 CBM         2.6430   -0.5810  -11.2470 c3        1 3JO      0.145100
     20 OAJ         3.5210   -1.4240  -11.9600 oh        1 3JO     -0.596800
     21 CAX         1.2220   -0.8590  -11.8070 c3        1 3JO      0.066000
     22 NBQ         0.5640   -1.7570  -10.8670 n         1 3JO     -0.430800
     23 CBG        -0.3300   -2.7490  -11.1900 c         1 3JO      0.655100
     24 OAI        -0.5710   -3.6890  -10.4030 o         1 3JO     -0.596100
     25 CBP        -1.0950   -2.7020  -12.5390 c3        1 3JO      0.068500
     26 CBR        -2.4670   -1.9810  -12.3850 c3        1 3JO     -0.058000
     27 CAD        -3.4130   -2.7490  -11.4760 c3        1 3JO     -0.116433
     28 CAE        -2.2190   -0.5960  -11.7990 c3        1 3JO     -0.116433
     29 CAC        -3.0930   -1.8150  -13.7630 c3        1 3JO     -0.116433
     30 NBB        -1.2700   -4.1350  -13.0180 n4        1 3JO     -0.654800
     31 C          -1.2990   -4.2780  -14.5020 c         1 3JO      0.534100
     32 O          -0.5260   -3.5990  -15.1650 o         1 3JO     -0.393100
     33 CA         -2.2790   -5.2660  -15.1510 c3        1 3JO      0.060500
     34 N          -1.5400   -6.2170  -16.0510 n4        1 3JO     -0.697800
     35 CBD        -0.3410   -6.9180  -15.4120 c         1 3JO      0.604100
     36 OAF        -0.0040   -6.4560  -14.3290 o         1 3JO     -0.487100
     37 CAA         0.2490   -8.0420  -16.1790 c3        1 3JO     -0.196100
     38 CB         -3.2130   -6.0160  -14.1840 c3        1 3JO     -0.049100
     39 CG         -4.1080   -6.9310  -14.9420 ca        1 3JO     -0.212300
     40 CD1        -5.2140   -6.4190  -15.6340 ca        1 3JO     -0.128000
     41 CE1        -6.0930   -7.2830  -16.2850 ca        1 3JO     -0.103000
     42 CZ         -5.8790   -8.6620  -16.2420 ca        1 3JO     -0.064000
     43 CE2        -4.7810   -9.1770  -15.5480 ca        1 3JO     -0.103000
     44 CD2        -3.8980   -8.3170  -14.8990 ca        1 3JO     -0.128000
     45 H1          0.8590    1.5440   -0.8150 hc        1 3JO      0.067700
     46 H2          1.0230    1.8070    0.9760 hc        1 3JO      0.067700
     47 H3          0.2210    0.3040    0.3610 hc        1 3JO      0.067700
     48 H4          4.9110   -0.7510    1.8450 h5        1 3JO      0.080100
     49 H5          4.4970    0.1690   -3.2080 ha        1 3JO      0.170000
     50 H6          3.7050    0.2760   -5.5550 ha        1 3JO      0.134000
     51 H7          0.4190   -0.4330   -1.8570 ha        1 3JO      0.170000
     52 H8         -0.3770   -0.3090   -4.2020 ha        1 3JO      0.134000
     53 H9          0.0880    0.5380   -6.4650 hx        1 3JO      0.108200
     54 H10         1.8230    0.7300   -7.0540 hx        1 3JO      0.108200
     55 H11         1.9980   -1.6660   -7.1350 hn        1 3JO      0.464300
     56 H12         1.4910   -2.8800   -9.3210 h1        1 3JO      0.122700
     57 H13         2.6000   -0.0850   -9.1160 hc        1 3JO      0.092700
     58 H14         3.4640   -1.6400   -9.5110 hc        1 3JO      0.092700
     59 H15         2.9130    0.5010  -11.3650 h1        1 3JO      0.100700
     60 H16         4.3940   -1.0060  -11.9750 ho        1 3JO      0.446000
     61 H17         1.3090   -1.3240  -12.8260 h1        1 3JO      0.088700
     62 H18         0.6390    0.1010  -11.8720 h1        1 3JO      0.088700
     63 H19        -0.4880   -2.1580  -13.3270 hx        1 3JO      0.138700
     64 H20        -2.8830   -3.1390  -10.5720 hc        1 3JO      0.065367
     65 H21        -4.2290   -2.0650  -11.1250 hc        1 3JO      0.065367
     66 H22        -3.9060   -3.5970  -12.0110 hc        1 3JO      0.065367
     67 H23        -3.1650    0.0010  -11.8520 hc        1 3JO      0.065367
     68 H24        -1.4340   -0.0530  -12.3780 hc        1 3JO      0.065367
     69 H25        -1.9180   -0.6620  -10.7240 hc        1 3JO      0.065367
     70 H26        -2.4260   -1.2260  -14.4390 hc        1 3JO      0.065367
     71 H27        -4.0630   -1.2630  -13.6660 hc        1 3JO      0.065367
     72 H28        -3.3110   -2.8060  -14.2340 hc        1 3JO      0.065367
     73 H29        -2.1350   -4.5050  -12.5910 hn        1 3JO      0.490800
     74 H30        -2.9420   -4.6270  -15.8300 hx        1 3JO      0.168700
     75 H31        -1.2130   -5.7140  -16.8880 hn        1 3JO      0.497300
     76 H32        -0.1960   -8.1950  -17.1940 hc        1 3JO      0.142367
     77 H33         0.1260   -8.9890  -15.5800 hc        1 3JO      0.142367
     78 H34         1.3560   -7.8560  -16.2910 hc        1 3JO      0.142367
     79 H35        -2.6180   -6.5940  -13.4270 hc        1 3JO      0.089700
     80 H36        -3.8420   -5.2490  -13.6500 hc        1 3JO      0.089700
     81 H37        -5.4100   -5.3350  -15.6450 ha        1 3JO      0.134000
     82 H38        -6.9700   -6.8770  -16.8190 ha        1 3JO      0.177000
     83 H39        -6.5860   -9.3470  -16.7440 ha        1 3JO      0.184000
     84 H40        -4.6250  -10.2680  -15.4970 ha        1 3JO      0.177000
     85 H41        -3.0690   -8.7370  -14.3090 ha        1 3JO      0.134000
     86 HAZ2        0.4850   -1.8730   -6.4750 hn        1 3JO      0.464300
     87 HBB2       -0.4810   -4.7070  -12.6630 hn        1 3JO      0.490800
     88 H2A        -2.2250   -6.9450  -16.3450 hn        1 3JO      0.497300
@<TRIPOS>BOND
     1    1    2 1   
     2    1   45 1   
     3    1   46 1   
     4    1   47 1   
     5    2    3 1   
     6    2    6 2   
     7    3    4 2   
     8    4    5 1   
     9    4   48 1   
    10    5    6 1   
    11    6    7 1   
    12    7    8 ar  
    13    7   10 ar  
    14    8    9 ar  
    15    8   49 1   
    16    9   12 ar  
    17    9   50 1   
    18   10   11 ar  
    19   10   51 1   
    20   11   12 ar  
    21   11   52 1   
    22   12   13 1   
    23   13   14 1   
    24   13   53 1   
    25   13   54 1   
    26   14   15 1   
    27   14   55 1   
    28   14   86 1   
    29   15   16 2   
    30   15   17 1   
    31   17   18 1   
    32   17   22 1   
    33   17   56 1   
    34   18   19 1   
    35   18   57 1   
    36   18   58 1   
    37   19   20 1   
    38   19   21 1   
    39   19   59 1   
    40   20   60 1   
    41   21   22 1   
    42   21   61 1   
    43   21   62 1   
    44   22   23 1   
    45   23   24 2   
    46   23   25 1   
    47   25   26 1   
    48   25   30 1   
    49   25   63 1   
    50   26   27 1   
    51   26   28 1   
    52   26   29 1   
    53   27   64 1   
    54   27   65 1   
    55   27   66 1   
    56   28   67 1   
    57   28   68 1   
    58   28   69 1   
    59   29   70 1   
    60   29   71 1   
    61   29   72 1   
    62   30   31 1   
    63   30   73 1   
    64   30   87 1   
    65   31   32 2   
    66   31   33 1   
    67   33   34 1   
    68   33   38 1   
    69   33   74 1   
    70   34   35 1   
    71   34   75 1   
    72   34   88 1   
    73   35   36 2   
    74   35   37 1   
    75   37   76 1   
    76   37   77 1   
    77   37   78 1   
    78   38   39 1   
    79   38   79 1   
    80   38   80 1   
    81   39   40 ar  
    82   39   44 ar  
    83   40   41 ar  
    84   40   81 1   
    85   41   42 ar  
    86   41   82 1   
    87   42   43 ar  
    88   42   83 1   
    89   43   44 ar  
    90   43   84 1   
    91   44   85 1   
@<TRIPOS>SUBSTRUCTURE
     1 3JO         1 TEMP              0 ****  ****    0 ROOT
