@<TRIPOS>MOLECULE
3JO
   88    91     1     0     0
SMALL
bcc


@<TRIPOS>ATOM
      1 CAB         0.9030    1.1410    0.1420 c3        1 3JO     -0.147400
      2 CBJ         2.2010    0.4270    0.1410 cc        1 3JO      0.426600
      3 NAY         2.9000    0.2390    1.3300 nc        1 3JO     -0.615000
      4 CAT         4.0430   -0.3920    1.0880 cd        1 3JO      0.423300
      5 SBC         4.3380   -0.7750   -0.5400 ss        1 3JO     -0.070300
      6 CBL         2.8560   -0.0870   -0.9950 cd        1 3JO     -0.244400
      7 CBK         2.4040   -0.0570   -2.3550 ca        1 3JO      0.117000
      8 CAS         3.3330    0.1090   -3.4050 ca        1 3JO     -0.132000
      9 CAQ         2.9100    0.1490   -4.7260 ca        1 3JO     -0.081000
     10 CAR         1.0410   -0.2000   -2.6790 ca        1 3JO     -0.132000
     11 CAP         0.6180   -0.1580   -4.0010 ca        1 3JO     -0.081000
     12 CBH         1.5480    0.0200   -5.0360 ca        1 3JO     -0.243300
     13 CAU         1.0850    0.1370   -6.4350 c3        1 3JO      0.201100
     14 NAZ         1.0160   -1.2410   -7.0810 ny        1 3JO     -0.683800
     15 CBE         0.4130   -1.2000   -8.4510 c         1 3JO      0.517100
     16 OAG        -0.7050   -0.7200   -8.5580 o         1 3JO     -0.404100
     17 CBO         1.2720   -1.7980   -9.5770 c3        1 3JO      0.043700
     18 CAW         2.5850   -0.9990   -9.7400 c3        1 3JO     -0.135400
     19 CBM         2.6660   -0.6000  -11.2260 c3        1 3JO      0.145100
     20 OAJ         3.5520   -1.4530  -11.9180 oh        1 3JO     -0.596800
     21 CAX         1.2520   -0.8810  -11.8030 c3        1 3JO      0.066000
     22 NBQ         0.5790   -1.7670  -10.8640 n         1 3JO     -0.430800
     23 CBG        -0.3130   -2.7610  -11.1890 c         1 3JO      0.655100
     24 OAI        -0.5690   -3.6920  -10.3950 o         1 3JO     -0.596100
     25 CBP        -1.0590   -2.7250  -12.5490 c3        1 3JO      0.068500
     26 CBR        -2.4320   -1.9990  -12.4220 c3        1 3JO     -0.058000
     27 CAD        -3.3930   -2.7560  -11.5180 c3        1 3JO     -0.116433
     28 CAE        -2.1880   -0.6090  -11.8460 c3        1 3JO     -0.116433
     29 CAC        -3.0370   -1.8460  -13.8110 c3        1 3JO     -0.116433
     30 NBB        -1.2320   -4.1620  -13.0150 ny        1 3JO     -0.654800
     31 C          -1.2400   -4.3210  -14.4980 c         1 3JO      0.534100
     32 O          -0.4560   -3.6510  -15.1570 o         1 3JO     -0.393100
     33 CA         -2.2140   -5.3130  -15.1510 c3        1 3JO      0.060500
     34 N          -1.4650   -6.2760  -16.0300 ny        1 3JO     -0.697800
     35 CBD        -0.2770   -6.9730  -15.3670 c         1 3JO      0.604100
     36 OAF         0.0460   -6.5010  -14.2850 o         1 3JO     -0.487100
     37 CAA         0.3210   -8.1070  -16.1140 c3        1 3JO     -0.196100
     38 CB         -3.1630   -6.0510  -14.1890 c3        1 3JO     -0.049100
     39 CG         -4.0500   -6.9710  -14.9500 ca        1 3JO     -0.212300
     40 CD1        -5.1440   -6.4630  -15.6640 ca        1 3JO     -0.128000
     41 CE1        -6.0170   -7.3320  -16.3170 ca        1 3JO     -0.103000
     42 CZ         -5.8070   -8.7120  -16.2570 ca        1 3JO     -0.064000
     43 CE2        -4.7210   -9.2220  -15.5420 ca        1 3JO     -0.103000
     44 CD2        -3.8450   -8.3570  -14.8890 ca        1 3JO     -0.128000
     45 H1          0.7340    1.6380   -0.8450 hc        1 3JO      0.067700
     46 H2          0.0730    0.4130    0.3360 hc        1 3JO      0.067700
     47 H3          0.8710    1.9210    0.9450 hc        1 3JO      0.067700
     48 H4          4.7370   -0.6390    1.9030 h5        1 3JO      0.080100
     49 H5          4.4030    0.2280   -3.1670 ha        1 3JO      0.170000
     50 H6          3.6480    0.3120   -5.5260 ha        1 3JO      0.134000
     51 H7          0.3040   -0.3490   -1.8710 ha        1 3JO      0.170000
     52 H8         -0.4560   -0.2470   -4.2290 ha        1 3JO      0.134000
     53 H9          0.0460    0.5760   -6.4950 hx        1 3JO      0.108200
     54 H10         1.7910    0.7560   -7.0580 hx        1 3JO      0.108200
     55 H11         1.9590   -1.6410   -7.1120 hn        1 3JO      0.464300
     56 H12         1.4800   -2.8760   -9.2930 h1        1 3JO      0.122700
     57 H13         3.4590   -1.6430   -9.4680 hc        1 3JO      0.092700
     58 H14         2.5930   -0.0820   -9.1010 hc        1 3JO      0.092700
     59 H15         2.9410    0.4800  -11.3520 h1        1 3JO      0.100700
     60 H16         4.4260   -1.0380  -11.9250 ho        1 3JO      0.446000
     61 H17         0.6730    0.0800  -11.8870 h1        1 3JO      0.088700
     62 H18         1.3530   -1.3570  -12.8170 h1        1 3JO      0.088700
     63 H19        -0.4410   -2.1910  -13.3340 hx        1 3JO      0.138700
     64 H20        -2.8760   -3.1370  -10.6030 hc        1 3JO      0.065367
     65 H21        -3.8810   -3.6080  -12.0530 hc        1 3JO      0.065367
     66 H22        -4.2120   -2.0660  -11.1860 hc        1 3JO      0.065367
     67 H23        -3.1320   -0.0100  -11.9200 hc        1 3JO      0.065367
     68 H24        -1.9030   -0.6650  -10.7670 hc        1 3JO      0.065367
     69 H25        -1.3940   -0.0740  -12.4210 hc        1 3JO      0.065367
     70 H26        -2.3600   -1.2660  -14.4830 hc        1 3JO      0.065367
     71 H27        -4.0070   -1.2910  -13.7330 hc        1 3JO      0.065367
     72 H28        -3.2520   -2.8410  -14.2740 hc        1 3JO      0.065367
     73 H29        -2.1030   -4.5270  -12.5980 hn        1 3JO      0.490800
     74 H30        -2.8660   -4.6790  -15.8460 hx        1 3JO      0.168700
     75 H31        -1.1250   -5.7820  -16.8680 hn        1 3JO      0.497300
     76 H32         1.4300   -7.9260  -16.2100 hc        1 3JO      0.142367
     77 H33        -0.1090   -8.2670  -17.1340 hc        1 3JO      0.142367
     78 H34         0.1840   -9.0470  -15.5080 hc        1 3JO      0.142367
     79 H35        -2.5800   -6.6220  -13.4180 hc        1 3JO      0.089700
     80 H36        -3.7980   -5.2770  -13.6720 hc        1 3JO      0.089700
     81 H37        -5.3370   -5.3800  -15.6890 ha        1 3JO      0.134000
     82 H38        -6.8840   -6.9290  -16.8690 ha        1 3JO      0.177000
     83 H39        -6.5090   -9.4000  -16.7610 ha        1 3JO      0.184000
     84 H40        -4.5690  -10.3130  -15.4760 ha        1 3JO      0.177000
     85 H41        -3.0250   -8.7730  -14.2830 ha        1 3JO      0.134000
     86 HAZ2        0.4360   -1.8380   -6.4730 hn        1 3JO      0.464300
     87 HBB2       -0.4490   -4.7330  -12.6440 hn        1 3JO      0.490800
     88 H2A        -2.1480   -7.0050  -16.3260 hn        1 3JO      0.497300
@<TRIPOS>BOND
     1    1    2 1   
     2    1   45 1   
     3    1   46 1   
     4    1   47 1   
     5    2    3 1   
     6    2    6 2   
     7    3    4 2   
     8    4    5 1   
     9    4   48 1   
    10    5    6 1   
    11    6    7 1   
    12    7    8 ar  
    13    7   10 ar  
    14    8    9 ar  
    15    8   49 1   
    16    9   12 ar  
    17    9   50 1   
    18   10   11 ar  
    19   10   51 1   
    20   11   12 ar  
    21   11   52 1   
    22   12   13 1   
    23   13   14 1   
    24   13   53 1   
    25   13   54 1   
    26   14   15 1   
    27   14   55 1   
    28   14   86 1   
    29   15   16 2   
    30   15   17 1   
    31   17   18 1   
    32   17   22 1   
    33   17   56 1   
    34   18   19 1   
    35   18   57 1   
    36   18   58 1   
    37   19   20 1   
    38   19   21 1   
    39   19   59 1   
    40   20   60 1   
    41   21   22 1   
    42   21   61 1   
    43   21   62 1   
    44   22   23 1   
    45   23   24 2   
    46   23   25 1   
    47   25   26 1   
    48   25   30 1   
    49   25   63 1   
    50   26   27 1   
    51   26   28 1   
    52   26   29 1   
    53   27   64 1   
    54   27   65 1   
    55   27   66 1   
    56   28   67 1   
    57   28   68 1   
    58   28   69 1   
    59   29   70 1   
    60   29   71 1   
    61   29   72 1   
    62   30   31 1   
    63   30   73 1   
    64   30   87 1   
    65   31   32 2   
    66   31   33 1   
    67   33   34 1   
    68   33   38 1   
    69   33   74 1   
    70   34   35 1   
    71   34   75 1   
    72   34   88 1   
    73   35   36 2   
    74   35   37 1   
    75   37   76 1   
    76   37   77 1   
    77   37   78 1   
    78   38   39 1   
    79   38   79 1   
    80   38   80 1   
    81   39   40 ar  
    82   39   44 ar  
    83   40   41 ar  
    84   40   81 1   
    85   41   42 ar  
    86   41   82 1   
    87   42   43 ar  
    88   42   83 1   
    89   43   44 ar  
    90   43   84 1   
    91   44   85 1   
@<TRIPOS>SUBSTRUCTURE
     1 3JO         1 TEMP              0 ****  ****    0 ROOT
