@<TRIPOS>MOLECULE
3JP
   69    72     1     0     0
SMALL
bcc


@<TRIPOS>ATOM
      1 CAC         0.0400    1.4890    0.4150 c3        1 3JP      0.109700
      2 OAW         1.4270    1.2020    0.2730 os        1 3JP     -0.300900
      3 CBE         2.0660    0.7370    1.4040 ca        1 3JP      0.135100
      4 CAO         1.4410    0.5090    2.6250 ca        1 3JP     -0.213000
      5 CBD         3.4590    0.4870    1.2560 ca        1 3JP      0.071100
      6 OAV         3.9730    0.7460   -0.0020 os        1 3JP     -0.304900
      7 CAB         5.3680    0.5200   -0.1580 c3        1 3JP      0.110700
      8 CAK         4.1940    0.0140    2.3390 ca        1 3JP     -0.145000
      9 CAJ         3.5730   -0.2170    3.5700 ca        1 3JP     -0.204000
     10 CBB         2.2080    0.0280    3.7070 ca        1 3JP      0.129100
     11 OAX         1.4830   -0.1710    4.8680 os        1 3JP     -0.343900
     12 CAQ         2.2400   -0.5870    6.0110 c3        1 3JP      0.101400
     13 CAT         1.2480   -0.6700    7.1790 c3        1 3JP      0.090000
     14 NBI         0.3550   -1.8060    7.1630 n         1 3JP     -0.455800
     15 C           0.7430   -2.9660    7.8160 c         1 3JP      0.681500
     16 O           1.8900   -3.0860    8.2900 o         1 3JP     -0.638500
     17 CAU        -0.7430   -1.7720    6.2290 c3        1 3JP      0.101000
     18 CBF        -2.1600   -1.8770    6.8030 c3        1 3JP     -0.086700
     19 CAI        -2.4640   -0.8050    7.8350 c3        1 3JP     -0.089400
     20 CAA        -2.6260    0.5570    7.2080 c3        1 3JP     -0.092100
     21 CBH        -2.4700   -3.2880    7.3560 c3        1 3JP      0.233500
     22 CAS        -2.5550   -4.3090    6.2020 c3        1 3JP     -0.090400
     23 CAP        -1.6100   -5.4810    6.3590 c3        1 3JP     -0.071400
     24 CB         -0.2280   -5.0270    6.7730 c3        1 3JP     -0.083400
     25 CA         -0.2600   -4.1260    8.0210 c3        1 3JP      0.187500
     26 N          -1.5730   -3.6890    8.4190 n3        1 3JP     -0.793500
     27 SBK        -2.0470   -3.6940    9.9840 sy        1 3JP      1.504200
     28 OAE        -1.0230   -3.2110   10.8160 o         1 3JP     -0.639800
     29 OAF        -3.3110   -3.0760   10.1000 o         1 3JP     -0.639800
     30 CBC        -2.2380   -5.3530   10.3170 ca        1 3JP     -0.350500
     31 CAM        -1.1880   -6.0860   10.8770 ca        1 3JP     -0.019000
     32 CAZ        -1.3580   -7.4410   11.1760 ca        1 3JP     -0.003600
     33 ClA        -0.0750   -8.3230   11.8510 cl        1 3JP     -0.069400
     34 CAL        -2.5770   -8.0780   10.9270 ca        1 3JP     -0.065000
     35 CBA        -3.6280   -7.3370   10.3760 ca        1 3JP     -0.003600
     36 ClB        -5.1170   -8.0930   10.0740 cl        1 3JP     -0.069400
     37 CAN        -3.4620   -5.9830   10.0750 ca        1 3JP     -0.019000
     38 H1         -0.2500    1.8590   -0.6010 h1        1 3JP      0.044700
     39 H2         -0.1240    2.2810    1.1850 h1        1 3JP      0.044700
     40 H3         -0.5300    0.5650    0.6750 h1        1 3JP      0.044700
     41 H4          0.3690    0.6940    2.7720 ha        1 3JP      0.153000
     42 H5          5.5560    0.7990   -1.2260 h1        1 3JP      0.042700
     43 H6          5.9560    1.1750    0.5290 h1        1 3JP      0.042700
     44 H7          5.6180   -0.5540    0.0180 h1        1 3JP      0.042700
     45 H8          5.2710   -0.1830    2.2410 ha        1 3JP      0.141000
     46 H9          4.1750   -0.5910    4.4100 ha        1 3JP      0.142000
     47 H10         3.0210    0.1840    6.2440 h1        1 3JP      0.053700
     48 H11         2.7270   -1.5750    5.8070 h1        1 3JP      0.053700
     49 H12         0.6200    0.2670    7.1870 h1        1 3JP      0.077700
     50 H13         1.8610   -0.7110    8.1260 h1        1 3JP      0.077700
     51 H14        -0.6090   -2.6060    5.4780 h1        1 3JP      0.057200
     52 H15        -0.6790   -0.7990    5.6560 h1        1 3JP      0.057200
     53 H16        -2.8590   -1.7260    5.9290 hc        1 3JP      0.060700
     54 H17        -1.6500   -0.7640    8.6060 hc        1 3JP      0.057700
     55 H18        -3.4110   -1.0750    8.3790 hc        1 3JP      0.057700
     56 H19        -3.4330    0.5470    6.4360 hc        1 3JP      0.034367
     57 H20        -2.8980    1.3060    7.9910 hc        1 3JP      0.034367
     58 H21        -1.6760    0.8870    6.7210 hc        1 3JP      0.034367
     59 H22        -3.5100   -3.2250    7.8150 h1        1 3JP      0.074700
     60 H23        -2.3430   -3.7950    5.2280 hc        1 3JP      0.049700
     61 H24        -3.6070   -4.6920    6.1450 hc        1 3JP      0.049700
     62 H25        -1.5430   -6.0390    5.3880 hc        1 3JP      0.048200
     63 H26        -2.0160   -6.1950    7.1230 hc        1 3JP      0.048200
     64 H27         0.2570   -4.4840    5.9210 hc        1 3JP      0.058700
     65 H28         0.4110   -5.9200    7.0010 hc        1 3JP      0.058700
     66 H29         0.1690   -4.7190    8.8920 h1        1 3JP      0.080700
     67 H30        -0.2280   -5.5830   11.1010 ha        1 3JP      0.173000
     68 H31        -2.7100   -9.1460   11.1650 ha        1 3JP      0.167000
     69 H32        -4.3040   -5.3980    9.6630 ha        1 3JP      0.173000
@<TRIPOS>BOND
     1    1    2 1   
     2    1   38 1   
     3    1   39 1   
     4    1   40 1   
     5    2    3 1   
     6    3    4 ar  
     7    3    5 ar  
     8    4   10 ar  
     9    4   41 1   
    10    5    6 1   
    11    5    8 ar  
    12    6    7 1   
    13    7   42 1   
    14    7   43 1   
    15    7   44 1   
    16    8    9 ar  
    17    8   45 1   
    18    9   10 ar  
    19    9   46 1   
    20   10   11 1   
    21   11   12 1   
    22   12   13 1   
    23   12   47 1   
    24   12   48 1   
    25   13   14 1   
    26   13   49 1   
    27   13   50 1   
    28   14   15 1   
    29   14   17 1   
    30   15   16 2   
    31   15   25 1   
    32   17   18 1   
    33   17   51 1   
    34   17   52 1   
    35   18   19 1   
    36   18   21 1   
    37   18   53 1   
    38   19   20 1   
    39   19   54 1   
    40   19   55 1   
    41   20   56 1   
    42   20   57 1   
    43   20   58 1   
    44   21   22 1   
    45   21   26 1   
    46   21   59 1   
    47   22   23 1   
    48   22   60 1   
    49   22   61 1   
    50   23   24 1   
    51   23   62 1   
    52   23   63 1   
    53   24   25 1   
    54   24   64 1   
    55   24   65 1   
    56   25   26 1   
    57   25   66 1   
    58   26   27 1   
    59   27   28 2   
    60   27   29 2   
    61   27   30 1   
    62   30   31 ar  
    63   30   37 ar  
    64   31   32 ar  
    65   31   67 1   
    66   32   33 1   
    67   32   34 ar  
    68   34   35 ar  
    69   34   68 1   
    70   35   36 1   
    71   35   37 ar  
    72   37   69 1   
@<TRIPOS>SUBSTRUCTURE
     1 3JP         1 TEMP              0 ****  ****    0 ROOT
