@<TRIPOS>MOLECULE
3JP
   69    72     1     0     0
SMALL
bcc


@<TRIPOS>ATOM
      1 CAC         0.0150    1.4810    0.4080 c3        1 3JP      0.109700
      2 OAW         1.4020    1.1970    0.2630 os        1 3JP     -0.300900
      3 CBE         2.0450    0.7360    1.3920 ca        1 3JP      0.135100
      4 CAO         1.4240    0.5070    2.6150 ca        1 3JP     -0.213000
      5 CBD         3.4390    0.4890    1.2400 ca        1 3JP      0.071100
      6 OAV         3.9480    0.7480   -0.0190 os        1 3JP     -0.304900
      7 CAB         5.3440    0.5280   -0.1780 c3        1 3JP      0.110700
      8 CAK         4.1780    0.0200    2.3220 ca        1 3JP     -0.145000
      9 CAJ         3.5610   -0.2120    3.5550 ca        1 3JP     -0.204000
     10 CBB         2.1950    0.0300    3.6950 ca        1 3JP      0.129100
     11 OAX         1.4740   -0.1700    4.8590 os        1 3JP     -0.343900
     12 CAQ         2.2360   -0.5820    6.0000 c3        1 3JP      0.101400
     13 CAT         1.2470   -0.6660    7.1710 c3        1 3JP      0.090000
     14 NBI         0.3570   -1.8040    7.1600 n         1 3JP     -0.455800
     15 C           0.7510   -2.9610    7.8140 c         1 3JP      0.681500
     16 O           1.9000   -3.0780    8.2840 o         1 3JP     -0.638500
     17 CAU        -0.7440   -1.7740    6.2290 c3        1 3JP      0.101000
     18 CBF        -2.1580   -1.8830    6.8080 c3        1 3JP     -0.086700
     19 CAI        -2.4620   -0.8080    7.8390 c3        1 3JP     -0.089400
     20 CAA        -2.6300    0.5510    7.2100 c3        1 3JP     -0.092100
     21 CBH        -2.4640   -3.2920    7.3660 c3        1 3JP      0.233500
     22 CAS        -2.5490   -4.3170    6.2130 c3        1 3JP     -0.090400
     23 CAP        -1.6010   -5.4850    6.3700 c3        1 3JP     -0.071400
     24 CB         -0.2190   -5.0270    6.7780 c3        1 3JP     -0.083400
     25 CA         -0.2490   -4.1230    8.0250 c3        1 3JP      0.187500
     26 N          -1.5620   -3.6890    8.4260 n3        1 3JP     -0.793500
     27 SBK        -2.0310   -3.6920    9.9930 sy        1 3JP      1.504200
     28 OAE        -1.0040   -3.2070   10.8210 o         1 3JP     -0.639800
     29 OAF        -3.2950   -3.0750   10.1120 o         1 3JP     -0.639800
     30 CBC        -2.2200   -5.3510   10.3290 ca        1 3JP     -0.350500
     31 CAM        -1.1660   -6.0830   10.8850 ca        1 3JP     -0.019000
     32 CAZ        -1.3340   -7.4370   11.1870 ca        1 3JP     -0.003100
     33 CLA        -0.0490   -8.3180   11.8580 cl        1 3JP     -0.069400
     34 CAL        -2.5540   -8.0760   10.9430 ca        1 3JP     -0.065000
     35 CBA        -3.6070   -7.3360   10.3960 ca        1 3JP     -0.003100
     36 CLB        -5.0980   -8.0940   10.1010 cl        1 3JP     -0.069400
     37 CAN        -3.4440   -5.9820   10.0920 ca        1 3JP     -0.019000
     38 H1         -0.5520    0.5550    0.6710 h1        1 3JP      0.044700
     39 H2         -0.2800    1.8490   -0.6080 h1        1 3JP      0.044700
     40 H3         -0.1500    2.2730    1.1780 h1        1 3JP      0.044700
     41 H4          0.3520    0.6890    2.7650 ha        1 3JP      0.153000
     42 H5          5.9310    1.1870    0.5080 h1        1 3JP      0.042700
     43 H6          5.5290    0.8070   -1.2460 h1        1 3JP      0.042700
     44 H7          5.5990   -0.5450   -0.0020 h1        1 3JP      0.042700
     45 H8          5.2550   -0.1750    2.2220 ha        1 3JP      0.141000
     46 H9          4.1660   -0.5830    4.3940 ha        1 3JP      0.142000
     47 H10         2.7250   -1.5690    5.7970 h1        1 3JP      0.053700
     48 H11         3.0160    0.1920    6.2300 h1        1 3JP      0.053700
     49 H12         1.8630   -0.7030    8.1170 h1        1 3JP      0.077200
     50 H13         0.6170    0.2700    7.1800 h1        1 3JP      0.077200
     51 H14        -0.6830   -0.8020    5.6540 h1        1 3JP      0.057200
     52 H15        -0.6100   -2.6100    5.4800 h1        1 3JP      0.057200
     53 H16        -2.8610   -1.7350    5.9360 hc        1 3JP      0.060700
     54 H17        -3.4060   -1.0810    8.3870 hc        1 3JP      0.057700
     55 H18        -1.6460   -0.7630    8.6070 hc        1 3JP      0.057700
     56 H19        -2.9010    1.3020    7.9920 hc        1 3JP      0.034033
     57 H20        -1.6830    0.8830    6.7180 hc        1 3JP      0.034033
     58 H21        -3.4400    0.5380    6.4400 hc        1 3JP      0.034033
     59 H22        -3.5020   -3.2310    7.8270 h1        1 3JP      0.074700
     60 H23        -3.6010   -4.7020    6.1610 hc        1 3JP      0.049700
     61 H24        -2.3420   -3.8040    5.2370 hc        1 3JP      0.049700
     62 H25        -1.5360   -6.0450    5.4000 hc        1 3JP      0.048200
     63 H26        -2.0020   -6.1990    7.1370 hc        1 3JP      0.048200
     64 H27         0.4240   -5.9180    7.0060 hc        1 3JP      0.058700
     65 H28         0.2620   -4.4840    5.9240 hc        1 3JP      0.058700
     66 H29         0.1840   -4.7140    8.8960 h1        1 3JP      0.080700
     67 H30        -0.2060   -5.5790   11.1040 ha        1 3JP      0.173000
     68 H31        -2.6850   -9.1440   11.1830 ha        1 3JP      0.167000
     69 H32        -4.2880   -5.3980    9.6830 ha        1 3JP      0.173000
@<TRIPOS>BOND
     1    1    2 1   
     2    1   38 1   
     3    1   39 1   
     4    1   40 1   
     5    2    3 1   
     6    3    4 ar  
     7    3    5 ar  
     8    4   10 ar  
     9    4   41 1   
    10    5    6 1   
    11    5    8 ar  
    12    6    7 1   
    13    7   42 1   
    14    7   43 1   
    15    7   44 1   
    16    8    9 ar  
    17    8   45 1   
    18    9   10 ar  
    19    9   46 1   
    20   10   11 1   
    21   11   12 1   
    22   12   13 1   
    23   12   47 1   
    24   12   48 1   
    25   13   14 1   
    26   13   49 1   
    27   13   50 1   
    28   14   15 1   
    29   14   17 1   
    30   15   16 2   
    31   15   25 1   
    32   17   18 1   
    33   17   51 1   
    34   17   52 1   
    35   18   19 1   
    36   18   21 1   
    37   18   53 1   
    38   19   20 1   
    39   19   54 1   
    40   19   55 1   
    41   20   56 1   
    42   20   57 1   
    43   20   58 1   
    44   21   22 1   
    45   21   26 1   
    46   21   59 1   
    47   22   23 1   
    48   22   60 1   
    49   22   61 1   
    50   23   24 1   
    51   23   62 1   
    52   23   63 1   
    53   24   25 1   
    54   24   64 1   
    55   24   65 1   
    56   25   26 1   
    57   25   66 1   
    58   26   27 1   
    59   27   28 2   
    60   27   29 2   
    61   27   30 1   
    62   30   31 ar  
    63   30   37 ar  
    64   31   32 ar  
    65   31   67 1   
    66   32   33 1   
    67   32   34 ar  
    68   34   35 ar  
    69   34   68 1   
    70   35   36 1   
    71   35   37 ar  
    72   37   69 1   
@<TRIPOS>SUBSTRUCTURE
     1 3JP         1 TEMP              0 ****  ****    0 ROOT
