@<TRIPOS>MOLECULE
3JQ
   71    74     1     0     0
SMALL
bcc


@<TRIPOS>ATOM
      1 CAB        -0.4470    1.6390    0.9000 c3        1 3JQ      0.109700
      2 OAY         0.9350    1.4640    0.6090 os        1 3JQ     -0.299900
      3 CBF         1.7080    0.9540    1.6300 ca        1 3JQ      0.136100
      4 CAM         1.2250    0.6010    2.8860 ca        1 3JQ     -0.215000
      5 CBE         3.0900    0.7960    1.3250 ca        1 3JQ      0.073100
      6 OAX         3.4570    1.1760    0.0490 os        1 3JQ     -0.303900
      7 CAA         4.8370    1.0390   -0.2650 c3        1 3JQ      0.110700
      8 CAK         3.9550    0.2880    2.2900 ca        1 3JQ     -0.144000
      9 CAJ         3.4760   -0.0690    3.5550 ca        1 3JQ     -0.202000
     10 CBD         2.1220    0.0880    3.8450 ca        1 3JQ      0.127100
     11 OAZ         1.5350   -0.2290    5.0570 os        1 3JQ     -0.350900
     12 CAR         2.4150   -0.7580    6.0580 c3        1 3JQ      0.110400
     13 CAV         1.5520   -0.9890    7.3060 c3        1 3JQ      0.084000
     14 NBL         0.8610   -2.2600    7.3430 n         1 3JQ     -0.440800
     15 C           1.0840   -3.1080    8.4130 c         1 3JQ      0.689500
     16 O           2.0970   -2.9850    9.1330 o         1 3JQ     -0.655500
     17 CAU        -0.1960   -2.4660    6.3900 c3        1 3JQ      0.103000
     18 CBJ        -1.6530   -2.3920    6.8510 c3        1 3JQ     -0.088700
     19 CBH        -2.0940   -1.0340    7.3930 c3        1 3JQ      0.147100
     20 OAG        -1.2810   -0.6470    8.4860 oh        1 3JQ     -0.597800
     21 CAP        -2.0270    0.0360    6.2890 c3        1 3JQ      0.081400
     22 OAF        -2.5330    1.2250    6.8760 oh        1 3JQ     -0.611800
     23 CBK        -2.0590   -3.5620    7.7740 c3        1 3JQ      0.241500
     24 CAT        -2.1290   -4.8660    6.9380 c3        1 3JQ     -0.096400
     25 CAQ        -1.1750   -5.9460    7.4050 c3        1 3JQ     -0.076400
     26 CB          0.1840   -5.3900    7.7690 c3        1 3JQ     -0.083400
     27 CA          0.0790   -4.2260    8.7710 c3        1 3JQ      0.169500
     28 N          -1.2550   -3.7140    8.9660 n3        1 3JQ     -0.779500
     29 SBN        -1.9220   -3.6840   10.4680 sy        1 3JQ      1.499200
     30 OAD        -3.3270   -3.5620   10.3600 o         1 3JQ     -0.648800
     31 OAE        -1.4510   -4.7960   11.1970 o         1 3JQ     -0.648800
     32 CBG        -1.3280   -2.2890   11.2240 ca        1 3JQ     -0.335500
     33 CAN        -2.2350   -1.2940   11.6130 ca        1 3JQ     -0.009000
     34 CBB        -1.7920   -0.1720   12.3160 ca        1 3JQ     -0.004100
     35 ClB        -2.9050    1.0230   12.7830 cl        1 3JQ     -0.072900
     36 CAL        -0.4410   -0.0220   12.6430 ca        1 3JQ     -0.065000
     37 CBC         0.4620   -1.0120   12.2470 ca        1 3JQ     -0.004100
     38 ClA         2.1060   -0.8440   12.6340 cl        1 3JQ     -0.072900
     39 CAO         0.0250   -2.1360   11.5390 ca        1 3JQ     -0.009000
     40 H1         -0.9280    0.6600    1.1400 h1        1 3JQ      0.044367
     41 H2         -0.8590    2.0590   -0.0530 h1        1 3JQ      0.044367
     42 H3         -0.5860    2.3600    1.7420 h1        1 3JQ      0.044367
     43 H4          0.1660    0.7120    3.1510 ha        1 3JQ      0.148000
     44 H5          5.4630    1.6730    0.4080 h1        1 3JQ      0.043367
     45 H6          5.1540   -0.0300   -0.2010 h1        1 3JQ      0.043367
     46 H7          4.8990    1.4050   -1.3220 h1        1 3JQ      0.043367
     47 H8          5.0250    0.1600    2.0710 ha        1 3JQ      0.143000
     48 H9          4.1800   -0.4680    4.2980 ha        1 3JQ      0.142000
     49 H10         3.2050    0.0040    6.2930 h1        1 3JQ      0.052700
     50 H11         2.8920   -1.6990    5.6830 h1        1 3JQ      0.052700
     51 H12         2.2370   -0.9190    8.2000 h1        1 3JQ      0.081700
     52 H13         0.7850   -0.1610    7.3740 h1        1 3JQ      0.081700
     53 H14        -0.0500   -3.4860    5.9250 h1        1 3JQ      0.060700
     54 H15        -0.0620   -1.7040    5.5640 h1        1 3JQ      0.060700
     55 H16        -2.2670   -2.5310    5.9080 hc        1 3JQ      0.061700
     56 H17        -3.1650   -1.1090    7.7460 h1        1 3JQ      0.050700
     57 H18        -1.5640    0.2460    8.7320 ho        1 3JQ      0.421000
     58 H19        -0.9660    0.1890    5.9500 h1        1 3JQ      0.042200
     59 H20        -2.6660   -0.2600    5.4170 h1        1 3JQ      0.042200
     60 H21        -2.3490    1.9420    6.2590 ho        1 3JQ      0.410000
     61 H22        -3.1180   -3.3340    8.1200 h1        1 3JQ      0.082700
     62 H23        -1.9200   -4.6370    5.8610 hc        1 3JQ      0.049700
     63 H24        -3.1780   -5.2600    6.9910 hc        1 3JQ      0.049700
     64 H25        -1.6100   -6.4740    8.2960 hc        1 3JQ      0.052700
     65 H26        -1.0570   -6.7120    6.5950 hc        1 3JQ      0.052700
     66 H27         0.8030   -6.1990    8.2410 hc        1 3JQ      0.058200
     67 H28         0.7260   -5.0660    6.8450 hc        1 3JQ      0.058200
     68 H29         0.4390   -4.6250    9.7760 h1        1 3JQ      0.099700
     69 H30        -3.3070   -1.4080   11.3660 ha        1 3JQ      0.175500
     70 H31        -0.0950    0.8630   13.2020 ha        1 3JQ      0.163000
     71 H32         0.7610   -2.9000   11.2230 ha        1 3JQ      0.175500
@<TRIPOS>BOND
     1    1    2 1   
     2    1   40 1   
     3    1   41 1   
     4    1   42 1   
     5    2    3 1   
     6    3    4 ar  
     7    3    5 ar  
     8    4   10 ar  
     9    4   43 1   
    10    5    6 1   
    11    5    8 ar  
    12    6    7 1   
    13    7   44 1   
    14    7   45 1   
    15    7   46 1   
    16    8    9 ar  
    17    8   47 1   
    18    9   10 ar  
    19    9   48 1   
    20   10   11 1   
    21   11   12 1   
    22   12   13 1   
    23   12   49 1   
    24   12   50 1   
    25   13   14 1   
    26   13   51 1   
    27   13   52 1   
    28   14   15 1   
    29   14   17 1   
    30   15   16 2   
    31   15   27 1   
    32   17   18 1   
    33   17   53 1   
    34   17   54 1   
    35   18   19 1   
    36   18   23 1   
    37   18   55 1   
    38   19   20 1   
    39   19   21 1   
    40   19   56 1   
    41   20   57 1   
    42   21   22 1   
    43   21   58 1   
    44   21   59 1   
    45   22   60 1   
    46   23   24 1   
    47   23   28 1   
    48   23   61 1   
    49   24   25 1   
    50   24   62 1   
    51   24   63 1   
    52   25   26 1   
    53   25   64 1   
    54   25   65 1   
    55   26   27 1   
    56   26   66 1   
    57   26   67 1   
    58   27   28 1   
    59   27   68 1   
    60   28   29 1   
    61   29   30 2   
    62   29   31 2   
    63   29   32 1   
    64   32   33 ar  
    65   32   39 ar  
    66   33   34 ar  
    67   33   69 1   
    68   34   35 1   
    69   34   36 ar  
    70   36   37 ar  
    71   36   70 1   
    72   37   38 1   
    73   37   39 ar  
    74   39   71 1   
@<TRIPOS>SUBSTRUCTURE
     1 3JQ         1 TEMP              0 ****  ****    0 ROOT
