@<TRIPOS>MOLECULE
3JQ
   71    74     1     0     0
SMALL
bcc


@<TRIPOS>ATOM
      1 CAB        -0.4560    1.6450    0.9040 c3        1 3JQ      0.109700
      2 OAY         0.9260    1.4730    0.6120 os        1 3JQ     -0.299900
      3 CBF         1.7010    0.9630    1.6320 ca        1 3JQ      0.136100
      4 CAM         1.2190    0.6070    2.8880 ca        1 3JQ     -0.215000
      5 CBE         3.0820    0.8070    1.3260 ca        1 3JQ      0.073100
      6 OAX         3.4470    1.1900    0.0490 os        1 3JQ     -0.303900
      7 CAA         4.8280    1.0540   -0.2660 c3        1 3JQ      0.110700
      8 CAK         3.9490    0.2980    2.2890 ca        1 3JQ     -0.144000
      9 CAJ         3.4720   -0.0600    3.5540 ca        1 3JQ     -0.202000
     10 CBD         2.1180    0.0940    3.8460 ca        1 3JQ      0.127100
     11 OAZ         1.5310   -0.2260    5.0570 os        1 3JQ     -0.350900
     12 CAR         2.4130   -0.7530    6.0570 c3        1 3JQ      0.110400
     13 CAV         1.5520   -0.9870    7.3050 c3        1 3JQ      0.084000
     14 NBL         0.8630   -2.2600    7.3420 n         1 3JQ     -0.440800
     15 C           1.0880   -3.1080    8.4120 c         1 3JQ      0.689500
     16 O           2.1020   -2.9830    9.1310 o         1 3JQ     -0.655500
     17 CAU        -0.1930   -2.4670    6.3890 c3        1 3JQ      0.103000
     18 CBJ        -1.6500   -2.3970    6.8510 c3        1 3JQ     -0.088700
     19 CBH        -2.0940   -1.0390    7.3940 c3        1 3JQ      0.147100
     20 OAG        -1.2810   -0.6520    8.4870 oh        1 3JQ     -0.597800
     21 CAP        -2.0290    0.0310    6.2910 c3        1 3JQ      0.081400
     22 OAF        -2.5380    1.2190    6.8790 oh        1 3JQ     -0.611800
     23 CBK        -2.0540   -3.5680    7.7740 c3        1 3JQ      0.241500
     24 CAT        -2.1210   -4.8720    6.9370 c3        1 3JQ     -0.096400
     25 CAQ        -1.1650   -5.9500    7.4030 c3        1 3JQ     -0.076400
     26 CB          0.1930   -5.3910    7.7670 c3        1 3JQ     -0.083400
     27 CA          0.0860   -4.2280    8.7690 c3        1 3JQ      0.169500
     28 N          -1.2490   -3.7190    8.9650 n3        1 3JQ     -0.779500
     29 SBN        -1.9150   -3.6910   10.4670 sy        1 3JQ      1.499200
     30 OAD        -3.3210   -3.5730   10.3590 o         1 3JQ     -0.648800
     31 OAE        -1.4420   -4.8030   11.1950 o         1 3JQ     -0.648800
     32 CBG        -1.3240   -2.2960   11.2240 ca        1 3JQ     -0.335500
     33 CAN        -2.2330   -1.3040   11.6140 ca        1 3JQ     -0.009000
     34 CBB        -1.7930   -0.1810   12.3180 ca        1 3JQ     -0.004100
     35 CLB        -2.9070    1.0120   12.7860 cl        1 3JQ     -0.072900
     36 CAL        -0.4420   -0.0280   12.6440 ca        1 3JQ     -0.065000
     37 CBC         0.4640   -1.0160   12.2480 ca        1 3JQ     -0.004100
     38 CLA         2.1070   -0.8450   12.6350 cl        1 3JQ     -0.072900
     39 CAO         0.0290   -2.1400   11.5390 ca        1 3JQ     -0.009000
     40 H1         -0.5960    2.3650    1.7470 h1        1 3JQ      0.044367
     41 H2         -0.8690    2.0660   -0.0480 h1        1 3JQ      0.044367
     42 H3         -0.9350    0.6650    1.1430 h1        1 3JQ      0.044367
     43 H4          0.1600    0.7170    3.1540 ha        1 3JQ      0.148000
     44 H5          4.8880    1.4220   -1.3220 h1        1 3JQ      0.043367
     45 H6          5.1460   -0.0150   -0.2030 h1        1 3JQ      0.043367
     46 H7          5.4530    1.6890    0.4080 h1        1 3JQ      0.043367
     47 H8          5.0190    0.1720    2.0680 ha        1 3JQ      0.143000
     48 H9          4.1760   -0.4590    4.2960 ha        1 3JQ      0.142000
     49 H10         3.2020    0.0090    6.2930 h1        1 3JQ      0.052700
     50 H11         2.8920   -1.6940    5.6810 h1        1 3JQ      0.052700
     51 H12         0.7830   -0.1610    7.3750 h1        1 3JQ      0.081700
     52 H13         2.2370   -0.9160    8.1990 h1        1 3JQ      0.081700
     53 H14        -0.0460   -3.4870    5.9230 h1        1 3JQ      0.060700
     54 H15        -0.0610   -1.7040    5.5640 h1        1 3JQ      0.060700
     55 H16        -2.2650   -2.5370    5.9080 hc        1 3JQ      0.061700
     56 H17        -3.1640   -1.1170    7.7470 h1        1 3JQ      0.050700
     57 H18        -1.5660    0.2400    8.7330 ho        1 3JQ      0.421000
     58 H19        -2.6680   -0.2660    5.4180 h1        1 3JQ      0.042200
     59 H20        -0.9700    0.1860    5.9520 h1        1 3JQ      0.042200
     60 H21        -2.3550    1.9370    6.2620 ho        1 3JQ      0.410000
     61 H22        -3.1140   -3.3430    8.1200 h1        1 3JQ      0.082700
     62 H23        -3.1690   -5.2670    6.9900 hc        1 3JQ      0.049700
     63 H24        -1.9130   -4.6410    5.8600 hc        1 3JQ      0.049700
     64 H25        -1.0460   -6.7150    6.5920 hc        1 3JQ      0.052700
     65 H26        -1.5980   -6.4790    8.2940 hc        1 3JQ      0.052700
     66 H27         0.8140   -6.1990    8.2380 hc        1 3JQ      0.058200
     67 H28         0.7340   -5.0660    6.8420 hc        1 3JQ      0.058200
     68 H29         0.4470   -4.6270    9.7740 h1        1 3JQ      0.099700
     69 H30        -3.3050   -1.4190   11.3680 ha        1 3JQ      0.175500
     70 H31        -0.0970    0.8570   13.2040 ha        1 3JQ      0.163000
     71 H32         0.7670   -2.9020   11.2220 ha        1 3JQ      0.175500
@<TRIPOS>BOND
     1    1    2 1   
     2    1   40 1   
     3    1   41 1   
     4    1   42 1   
     5    2    3 1   
     6    3    4 ar  
     7    3    5 ar  
     8    4   10 ar  
     9    4   43 1   
    10    5    6 1   
    11    5    8 ar  
    12    6    7 1   
    13    7   44 1   
    14    7   45 1   
    15    7   46 1   
    16    8    9 ar  
    17    8   47 1   
    18    9   10 ar  
    19    9   48 1   
    20   10   11 1   
    21   11   12 1   
    22   12   13 1   
    23   12   49 1   
    24   12   50 1   
    25   13   14 1   
    26   13   51 1   
    27   13   52 1   
    28   14   15 1   
    29   14   17 1   
    30   15   16 2   
    31   15   27 1   
    32   17   18 1   
    33   17   53 1   
    34   17   54 1   
    35   18   19 1   
    36   18   23 1   
    37   18   55 1   
    38   19   20 1   
    39   19   21 1   
    40   19   56 1   
    41   20   57 1   
    42   21   22 1   
    43   21   58 1   
    44   21   59 1   
    45   22   60 1   
    46   23   24 1   
    47   23   28 1   
    48   23   61 1   
    49   24   25 1   
    50   24   62 1   
    51   24   63 1   
    52   25   26 1   
    53   25   64 1   
    54   25   65 1   
    55   26   27 1   
    56   26   66 1   
    57   26   67 1   
    58   27   28 1   
    59   27   68 1   
    60   28   29 1   
    61   29   30 2   
    62   29   31 2   
    63   29   32 1   
    64   32   33 ar  
    65   32   39 ar  
    66   33   34 ar  
    67   33   69 1   
    68   34   35 1   
    69   34   36 ar  
    70   36   37 ar  
    71   36   70 1   
    72   37   38 1   
    73   37   39 ar  
    74   39   71 1   
@<TRIPOS>SUBSTRUCTURE
     1 3JQ         1 TEMP              0 ****  ****    0 ROOT
