@<TRIPOS>MOLECULE
3JR
   71    74     1     0     0
SMALL
bcc


@<TRIPOS>ATOM
      1 CAB        -0.4360    1.2370    0.4890 c3        1 3JR      0.109700
      2 OAY         0.9630    1.1060    0.2610 os        1 3JR     -0.300900
      3 CBF         1.7240    0.7680    1.3590 ca        1 3JR      0.135100
      4 CAM         1.2110    0.5060    2.6250 ca        1 3JR     -0.212000
      5 CBE         3.1270    0.6910    1.1260 ca        1 3JR      0.072100
      6 OAX         3.5230    0.9660   -0.1690 os        1 3JR     -0.303900
      7 CAA         4.9240    0.9210   -0.4090 c3        1 3JR      0.110700
      8 CAK         3.9820    0.3540    2.1710 ca        1 3JR     -0.146000
      9 CAJ         3.4740    0.0900    3.4470 ca        1 3JR     -0.202000
     10 CBD         2.0990    0.1650    3.6660 ca        1 3JR      0.127100
     11 OAZ         1.4800   -0.0900    4.8770 os        1 3JR     -0.345900
     12 CAR         2.3550   -0.3100    5.9890 c3        1 3JR      0.100400
     13 CAV         1.4560   -0.4570    7.2240 c3        1 3JR      0.084000
     14 NBL         0.7230   -1.7000    7.3290 n         1 3JR     -0.455800
     15 C           1.3480   -2.7790    7.9420 c         1 3JR      0.671500
     16 O           2.5310   -2.6990    8.3280 o         1 3JR     -0.631500
     17 CAU        -0.4000   -1.8730    6.4370 c3        1 3JR      0.097000
     18 CBJ        -1.7480   -2.2160    7.0740 c3        1 3JR     -0.097700
     19 CBH        -2.1960   -1.1590    8.0870 c3        1 3JR      0.107100
     20 OAG        -3.4400   -1.5650    8.6520 oh        1 3JR     -0.633800
     21 CAP        -2.4450    0.1920    7.3980 c3        1 3JR      0.120400
     22 OAF        -3.1320    1.0770    8.2570 oh        1 3JR     -0.598800
     23 CBK        -1.7800   -3.6380    7.6760 c3        1 3JR      0.242500
     24 CAT        -1.7590   -4.6900    6.5460 c3        1 3JR     -0.088400
     25 CAQ        -0.6260   -5.6870    6.6710 c3        1 3JR     -0.071400
     26 CB          0.6810   -5.0000    6.9930 c3        1 3JR     -0.083400
     27 CA          0.5710   -4.0860    8.2290 c3        1 3JR      0.174500
     28 N          -0.7750   -3.8620    8.6930 n3        1 3JR     -0.796500
     29 SBN        -1.1640   -3.9150   10.2790 sy        1 3JR      1.514200
     30 OAD        -0.0280   -4.2230   11.0500 o         1 3JR     -0.648800
     31 OAE        -1.8830   -2.7530   10.6340 o         1 3JR     -0.648800
     32 CBG        -2.2450   -5.2240   10.3750 ca        1 3JR     -0.354500
     33 CAN        -1.7630   -6.5160   10.6040 ca        1 3JR     -0.017000
     34 CBB        -2.6510   -7.5880   10.7230 ca        1 3JR     -0.003600
     35 CLA        -2.0540   -9.1520   10.9970 cl        1 3JR     -0.066900
     36 CAL        -4.0310   -7.3830   10.6220 ca        1 3JR     -0.062000
     37 CBC        -4.5100   -6.0880   10.4010 ca        1 3JR     -0.003600
     38 CLB        -6.1810   -5.8220   10.2810 cl        1 3JR     -0.066900
     39 CAO        -3.6250   -5.0140   10.2790 ca        1 3JR     -0.017000
     40 H1         -0.8330    1.5350   -0.5140 h1        1 3JR      0.045367
     41 H2         -0.6420    2.0310    1.2480 h1        1 3JR      0.045367
     42 H3         -0.8760    0.2630    0.8140 h1        1 3JR      0.045367
     43 H4          0.1360    0.5600    2.8370 ha        1 3JR      0.153000
     44 H5          5.4600    1.6720    0.2200 h1        1 3JR      0.043033
     45 H6          5.0080    1.1850   -1.4940 h1        1 3JR      0.043033
     46 H7          5.3260   -0.1040   -0.2220 h1        1 3JR      0.043033
     47 H8          5.0680    0.2920    2.0080 ha        1 3JR      0.142000
     48 H9          4.1690   -0.1740    4.2550 ha        1 3JR      0.142000
     49 H10         3.0270    0.5780    6.1220 h1        1 3JR      0.055200
     50 H11         2.9700   -1.2310    5.8130 h1        1 3JR      0.055200
     51 H12         2.1260   -0.3640    8.1280 h1        1 3JR      0.078200
     52 H13         0.7120    0.3900    7.2320 h1        1 3JR      0.078200
     53 H14        -0.5300   -0.9150    5.8500 h1        1 3JR      0.060200
     54 H15        -0.1570   -2.6850    5.6890 h1        1 3JR      0.060200
     55 H16        -2.5070   -2.2190    6.2370 hc        1 3JR      0.072700
     56 H17        -1.4260   -1.0330    8.8970 h1        1 3JR      0.075700
     57 H18        -3.3250   -1.5780    9.6130 ho        1 3JR      0.439000
     58 H19        -1.4740    0.7030    7.1680 h1        1 3JR      0.046200
     59 H20        -3.0330    0.0430    6.4530 h1        1 3JR      0.046200
     60 H21        -3.9340    0.6240    8.5500 ho        1 3JR      0.413000
     61 H22        -2.7880   -3.7280    8.1960 h1        1 3JR      0.066700
     62 H23        -2.7360   -5.2400    6.5570 hc        1 3JR      0.051200
     63 H24        -1.6860   -4.1760    5.5520 hc        1 3JR      0.051200
     64 H25        -0.5210   -6.2540    5.7090 hc        1 3JR      0.048700
     65 H26        -0.8660   -6.4360    7.4710 hc        1 3JR      0.048700
     66 H27         1.4740   -5.7670    7.1950 hc        1 3JR      0.059200
     67 H28         1.0190   -4.4040    6.1050 hc        1 3JR      0.059200
     68 H29         1.1490   -4.5760    9.0790 h1        1 3JR      0.109700
     69 H30        -0.6750   -6.6820   10.7120 ha        1 3JR      0.173000
     70 H31        -4.7310   -8.2300   10.7180 ha        1 3JR      0.168000
     71 H32        -4.0110   -3.9880   10.1220 ha        1 3JR      0.173000
@<TRIPOS>BOND
     1    1    2 1   
     2    1   40 1   
     3    1   41 1   
     4    1   42 1   
     5    2    3 1   
     6    3    4 ar  
     7    3    5 ar  
     8    4   10 ar  
     9    4   43 1   
    10    5    6 1   
    11    5    8 ar  
    12    6    7 1   
    13    7   44 1   
    14    7   45 1   
    15    7   46 1   
    16    8    9 ar  
    17    8   47 1   
    18    9   10 ar  
    19    9   48 1   
    20   10   11 1   
    21   11   12 1   
    22   12   13 1   
    23   12   49 1   
    24   12   50 1   
    25   13   14 1   
    26   13   51 1   
    27   13   52 1   
    28   14   15 1   
    29   14   17 1   
    30   15   16 2   
    31   15   27 1   
    32   17   18 1   
    33   17   53 1   
    34   17   54 1   
    35   18   19 1   
    36   18   23 1   
    37   18   55 1   
    38   19   20 1   
    39   19   21 1   
    40   19   56 1   
    41   20   57 1   
    42   21   22 1   
    43   21   58 1   
    44   21   59 1   
    45   22   60 1   
    46   23   24 1   
    47   23   28 1   
    48   23   61 1   
    49   24   25 1   
    50   24   62 1   
    51   24   63 1   
    52   25   26 1   
    53   25   64 1   
    54   25   65 1   
    55   26   27 1   
    56   26   66 1   
    57   26   67 1   
    58   27   28 1   
    59   27   68 1   
    60   28   29 1   
    61   29   30 2   
    62   29   31 2   
    63   29   32 1   
    64   32   33 ar  
    65   32   39 ar  
    66   33   34 ar  
    67   33   69 1   
    68   34   35 1   
    69   34   36 ar  
    70   36   37 ar  
    71   36   70 1   
    72   37   38 1   
    73   37   39 ar  
    74   39   71 1   
@<TRIPOS>SUBSTRUCTURE
     1 3JR         1 TEMP              0 ****  ****    0 ROOT
