@<TRIPOS>MOLECULE
3JR
   71    74     1     0     0
SMALL
bcc


@<TRIPOS>ATOM
      1 CAB        -0.4210    1.2180    0.4760 c3        1 3JR      0.109700
      2 OAY         0.9790    1.0900    0.2550 os        1 3JR     -0.300900
      3 CBF         1.7370    0.7570    1.3570 ca        1 3JR      0.135100
      4 CAM         1.2190    0.4980    2.6220 ca        1 3JR     -0.212000
      5 CBE         3.1410    0.6840    1.1310 ca        1 3JR      0.072100
      6 OAX         3.5420    0.9580   -0.1630 os        1 3JR     -0.303900
      7 CAA         4.9450    0.9150   -0.3970 c3        1 3JR      0.110700
      8 CAK         3.9920    0.3530    2.1810 ca        1 3JR     -0.146000
      9 CAJ         3.4780    0.0900    3.4550 ca        1 3JR     -0.202000
     10 CBD         2.1030    0.1630    3.6670 ca        1 3JR      0.127100
     11 OAZ         1.4790   -0.0910    4.8760 os        1 3JR     -0.345900
     12 CAR         2.3500   -0.3040    5.9930 c3        1 3JR      0.100400
     13 CAV         1.4450   -0.4490    7.2240 c3        1 3JR      0.084000
     14 NBL         0.7160   -1.6940    7.3300 n         1 3JR     -0.455800
     15 C           1.3420   -2.7680    7.9520 c         1 3JR      0.671500
     16 O           2.5230   -2.6830    8.3420 o         1 3JR     -0.631500
     17 CAU        -0.4020   -1.8750    6.4350 c3        1 3JR      0.097000
     18 CBJ        -1.7520   -2.2200    7.0670 c3        1 3JR     -0.097700
     19 CBH        -2.2080   -1.1610    8.0730 c3        1 3JR      0.107100
     20 OAG        -3.4530   -1.5690    8.6350 oh        1 3JR     -0.633800
     21 CAP        -2.4590    0.1860    7.3780 c3        1 3JR      0.120400
     22 OAF        -3.1530    1.0720    8.2300 oh        1 3JR     -0.598800
     23 CBK        -1.7820   -3.6390    7.6740 c3        1 3JR      0.242500
     24 CAT        -1.7510   -4.6970    6.5480 c3        1 3JR     -0.088400
     25 CAQ        -0.6160   -5.6880    6.6830 c3        1 3JR     -0.071400
     26 CB          0.6880   -4.9950    7.0080 c3        1 3JR     -0.083400
     27 CA          0.5680   -4.0770    8.2390 c3        1 3JR      0.174500
     28 N          -0.7800   -3.8560    8.6970 n3        1 3JR     -0.796500
     29 SBN        -1.1770   -3.9040   10.2810 sy        1 3JR      1.514200
     30 OAD        -0.0430   -4.2050   11.0590 o         1 3JR     -0.648800
     31 OAE        -1.9010   -2.7430   10.6290 o         1 3JR     -0.648800
     32 CBG        -2.2540   -5.2160   10.3770 ca        1 3JR     -0.354500
     33 CAN        -1.7680   -6.5050   10.6150 ca        1 3JR     -0.017000
     34 CBB        -2.6540   -7.5800   10.7340 ca        1 3JR     -0.003600
     35 ClA        -2.0530   -9.1410   11.0170 cl        1 3JR     -0.066900
     36 CAL        -4.0340   -7.3800   10.6250 ca        1 3JR     -0.062000
     37 CBC        -4.5160   -6.0870   10.3970 ca        1 3JR     -0.003600
     38 ClB        -6.1870   -5.8270   10.2690 cl        1 3JR     -0.066900
     39 CAO        -3.6340   -5.0110   10.2750 ca        1 3JR     -0.017000
     40 H1         -0.6330    2.0140    1.2310 h1        1 3JR      0.045367
     41 H2         -0.8140    1.5120   -0.5300 h1        1 3JR      0.045367
     42 H3         -0.8590    0.2430    0.8010 h1        1 3JR      0.045367
     43 H4          0.1420    0.5490    2.8280 ha        1 3JR      0.153000
     44 H5          5.0330    1.1760   -1.4830 h1        1 3JR      0.043033
     45 H6          5.4760    1.6690    0.2330 h1        1 3JR      0.043033
     46 H7          5.3480   -0.1090   -0.2050 h1        1 3JR      0.043033
     47 H8          5.0790    0.2940    2.0230 ha        1 3JR      0.142000
     48 H9          4.1710   -0.1690    4.2660 ha        1 3JR      0.142000
     49 H10         2.9690   -1.2230    5.8240 h1        1 3JR      0.055200
     50 H11         3.0170    0.5880    6.1260 h1        1 3JR      0.055200
     51 H12         0.6980    0.3950    7.2250 h1        1 3JR      0.078200
     52 H13         2.1100   -0.3490    8.1310 h1        1 3JR      0.078200
     53 H14        -0.1530   -2.6890    5.6910 h1        1 3JR      0.060200
     54 H15        -0.5320   -0.9190    5.8430 h1        1 3JR      0.060200
     55 H16        -2.5070   -2.2290    6.2260 hc        1 3JR      0.072700
     56 H17        -1.4420   -1.0290    8.8860 h1        1 3JR      0.075700
     57 H18        -3.3420   -1.5770    9.5960 ho        1 3JR      0.439000
     58 H19        -3.0420    0.0320    6.4310 h1        1 3JR      0.046200
     59 H20        -1.4890    0.7000    7.1500 h1        1 3JR      0.046200
     60 H21        -3.9550    0.6170    8.5210 ho        1 3JR      0.413000
     61 H22        -2.7920   -3.7310    8.1910 h1        1 3JR      0.066700
     62 H23        -1.6760   -4.1860    5.5530 hc        1 3JR      0.051200
     63 H24        -2.7260   -5.2500    6.5570 hc        1 3JR      0.051200
     64 H25        -0.8560   -6.4350    7.4840 hc        1 3JR      0.048700
     65 H26        -0.5040   -6.2590    5.7230 hc        1 3JR      0.048700
     66 H27         1.4820   -5.7580    7.2170 hc        1 3JR      0.059200
     67 H28         1.0270   -4.4010    6.1200 hc        1 3JR      0.059200
     68 H29         1.1450   -4.5620    9.0940 h1        1 3JR      0.109700
     69 H30        -0.6800   -6.6670   10.7280 ha        1 3JR      0.173000
     70 H31        -4.7310   -8.2290   10.7220 ha        1 3JR      0.168000
     71 H32        -4.0220   -3.9870   10.1110 ha        1 3JR      0.173000
@<TRIPOS>BOND
     1    1    2 1   
     2    1   40 1   
     3    1   41 1   
     4    1   42 1   
     5    2    3 1   
     6    3    4 ar  
     7    3    5 ar  
     8    4   10 ar  
     9    4   43 1   
    10    5    6 1   
    11    5    8 ar  
    12    6    7 1   
    13    7   44 1   
    14    7   45 1   
    15    7   46 1   
    16    8    9 ar  
    17    8   47 1   
    18    9   10 ar  
    19    9   48 1   
    20   10   11 1   
    21   11   12 1   
    22   12   13 1   
    23   12   49 1   
    24   12   50 1   
    25   13   14 1   
    26   13   51 1   
    27   13   52 1   
    28   14   15 1   
    29   14   17 1   
    30   15   16 2   
    31   15   27 1   
    32   17   18 1   
    33   17   53 1   
    34   17   54 1   
    35   18   19 1   
    36   18   23 1   
    37   18   55 1   
    38   19   20 1   
    39   19   21 1   
    40   19   56 1   
    41   20   57 1   
    42   21   22 1   
    43   21   58 1   
    44   21   59 1   
    45   22   60 1   
    46   23   24 1   
    47   23   28 1   
    48   23   61 1   
    49   24   25 1   
    50   24   62 1   
    51   24   63 1   
    52   25   26 1   
    53   25   64 1   
    54   25   65 1   
    55   26   27 1   
    56   26   66 1   
    57   26   67 1   
    58   27   28 1   
    59   27   68 1   
    60   28   29 1   
    61   29   30 2   
    62   29   31 2   
    63   29   32 1   
    64   32   33 ar  
    65   32   39 ar  
    66   33   34 ar  
    67   33   69 1   
    68   34   35 1   
    69   34   36 ar  
    70   36   37 ar  
    71   36   70 1   
    72   37   38 1   
    73   37   39 ar  
    74   39   71 1   
@<TRIPOS>SUBSTRUCTURE
     1 3JR         1 TEMP              0 ****  ****    0 ROOT
