@<TRIPOS>MOLECULE
3JS
   62    65     1     0     0
SMALL
bcc


@<TRIPOS>ATOM
      1 CAA         2.0360   -0.1900    1.6310 c3        1 3JS     -0.169100
      2 CAU         3.1210   -0.0370    0.5990 c         1 3JS      0.682100
      3 OAC         4.1500   -0.7430    0.6220 o         1 3JS     -0.634100
      4 NBF         2.9880    0.9560   -0.3710 n         1 3JS     -0.461800
      5 CAP         1.7100    1.5840   -0.6590 c3        1 3JS      0.048000
      6 CBC         1.6760    1.9210   -2.1720 c3        1 3JS      0.135100
      7 OAG         0.7650    1.0850   -2.8580 oh        1 3JS     -0.587800
      8 CAO         3.0780    1.5940   -2.7100 c3        1 3JS     -0.087400
      9 CBE         3.8830    1.0320   -1.5160 c3        1 3JS      0.055700
     10 CAW         5.0620    1.9840   -1.2100 c         1 3JS      0.664100
     11 OAE         4.8980    3.2250   -1.2180 o         1 3JS     -0.654100
     12 N           6.3590    1.5080   -1.0180 n         1 3JS     -0.456800
     13 CD2         6.6940    0.1010   -0.8250 c3        1 3JS      0.016000
     14 CG          7.6270    0.0090    0.4080 c3        1 3JS      0.140100
     15 OD1         6.9200   -0.2400    1.6050 oh        1 3JS     -0.595800
     16 CB          8.2340    1.4140    0.5420 c3        1 3JS     -0.093400
     17 CA          7.3120    2.3410   -0.2840 c3        1 3JS      0.028700
     18 C           8.1530    3.2190   -1.2210 c         1 3JS      0.537100
     19 O           9.3680    3.2470   -1.3180 o         1 3JS     -0.417100
     20 NAS         7.3570    4.1660   -2.0820 n4        1 3JS     -0.679800
     21 CAM         8.1080    5.3800   -2.5440 c3        1 3JS      0.175100
     22 CAX         8.1300    6.4460   -1.5050 ca        1 3JS     -0.192300
     23 CAI         9.2930    6.6820   -0.7630 ca        1 3JS     -0.093500
     24 CAK         9.3250    7.7090    0.1740 ca        1 3JS     -0.123500
     25 CAH         7.0000    7.2480   -1.3000 ca        1 3JS     -0.093500
     26 CAJ         7.0310    8.2720   -0.3610 ca        1 3JS     -0.123500
     27 CAZ         8.1930    8.5160    0.3920 ca        1 3JS      0.067000
     28 CBA         8.2380    9.5810    1.3590 cc        1 3JS     -0.210400
     29 SAT         9.5790   10.5950    1.5410 ss        1 3JS     -0.056300
     30 CAL         8.7900   11.4560    2.7740 cc        1 3JS      0.393300
     31 NAR         7.5670   11.0330    3.0770 nd        1 3JS     -0.621000
     32 CAY         7.2320    9.9500    2.2660 cd        1 3JS      0.390600
     33 CAB         5.9180    9.2800    2.4090 c3        1 3JS     -0.136400
     34 H1          1.6830    0.8000    2.0060 hc        1 3JS      0.081033
     35 H2          2.4400   -0.7850    2.4870 hc        1 3JS      0.081033
     36 H3          1.1730   -0.7440    1.1830 hc        1 3JS      0.081033
     37 H4          0.8570    0.9010   -0.3970 h1        1 3JS      0.068200
     38 H5          1.6240    2.5250   -0.0490 h1        1 3JS      0.068200
     39 H6          1.4160    3.0010   -2.3270 h1        1 3JS      0.063700
     40 H7         -0.1250    1.4010   -2.6560 ho        1 3JS      0.416000
     41 H8          3.5520    2.5140   -3.1270 hc        1 3JS      0.081700
     42 H9          3.0070    0.8220   -3.5190 hc        1 3JS      0.081700
     43 H10         4.2720    0.0040   -1.7700 h1        1 3JS      0.094700
     44 H11         7.2380   -0.2510   -1.7450 h1        1 3JS      0.093700
     45 H12         5.7830   -0.5390   -0.6710 h1        1 3JS      0.093700
     46 H13         8.4090   -0.7800    0.2560 h1        1 3JS      0.077700
     47 H14         6.2870   -0.9550    1.4420 ho        1 3JS      0.440000
     48 H15         9.2840    1.4230    0.1590 hc        1 3JS      0.099700
     49 H16         8.2350    1.7380    1.6140 hc        1 3JS      0.099700
     50 H17         6.7630    3.0550    0.4060 h1        1 3JS      0.115700
     51 H18         6.5210    4.4640   -1.5440 hn        1 3JS      0.473300
     52 H19         9.1560    5.0610   -2.8180 hx        1 3JS      0.109700
     53 H20         7.5860    5.7530   -3.4730 hx        1 3JS      0.109700
     54 H21        10.1870    6.0590   -0.9230 ha        1 3JS      0.142000
     55 H22        10.2450    7.8930    0.7530 ha        1 3JS      0.160000
     56 H23         6.0870    7.0830   -1.8940 ha        1 3JS      0.142000
     57 H24         6.1440    8.9100   -0.2120 ha        1 3JS      0.160000
     58 H25         9.2390   12.3070    3.2980 h5        1 3JS      0.069100
     59 H26         5.9790    8.2300    2.0310 hc        1 3JS      0.059367
     60 H27         5.5890    9.2600    3.4780 hc        1 3JS      0.059367
     61 H28         5.1460    9.8350    1.8170 hc        1 3JS      0.059367
     62 HAS2        7.0250    3.6370   -2.8960 hn        1 3JS      0.473300
@<TRIPOS>BOND
     1    1    2 1   
     2    1   34 1   
     3    1   35 1   
     4    1   36 1   
     5    2    3 2   
     6    2    4 1   
     7    4    5 1   
     8    4    9 1   
     9    5    6 1   
    10    5   37 1   
    11    5   38 1   
    12    6    7 1   
    13    6    8 1   
    14    6   39 1   
    15    7   40 1   
    16    8    9 1   
    17    8   41 1   
    18    8   42 1   
    19    9   10 1   
    20    9   43 1   
    21   10   11 2   
    22   10   12 1   
    23   12   13 1   
    24   12   17 1   
    25   13   14 1   
    26   13   44 1   
    27   13   45 1   
    28   14   15 1   
    29   14   16 1   
    30   14   46 1   
    31   15   47 1   
    32   16   17 1   
    33   16   48 1   
    34   16   49 1   
    35   17   18 1   
    36   17   50 1   
    37   18   19 2   
    38   18   20 1   
    39   20   21 1   
    40   20   51 1   
    41   20   62 1   
    42   21   22 1   
    43   21   52 1   
    44   21   53 1   
    45   22   23 ar  
    46   22   25 ar  
    47   23   24 ar  
    48   23   54 1   
    49   24   27 ar  
    50   24   55 1   
    51   25   26 ar  
    52   25   56 1   
    53   26   27 ar  
    54   26   57 1   
    55   27   28 1   
    56   28   29 1   
    57   28   32 2   
    58   29   30 1   
    59   30   31 2   
    60   30   58 1   
    61   31   32 1   
    62   32   33 1   
    63   33   59 1   
    64   33   60 1   
    65   33   61 1   
@<TRIPOS>SUBSTRUCTURE
     1 3JS         1 TEMP              0 ****  ****    0 ROOT
