@<TRIPOS>MOLECULE
3JS
   61    64     1     0     0
SMALL
bcc


@<TRIPOS>ATOM
      1 CAA         1.4580   -1.1870    0.6710 c3        1 3JS     -0.168100
      2 CAU         2.6980   -0.7720   -0.0790 c         1 3JS      0.667100
      3 OAC         3.6790   -1.5370   -0.1770 o         1 3JS     -0.619100
      4 NBF         2.7510    0.5120   -0.6140 n         1 3JS     -0.450800
      5 CAP         1.5520    1.2860   -0.8770 c3        1 3JS      0.050000
      6 CBC         1.7700    2.0620   -2.2040 c3        1 3JS      0.130100
      7 OAG         0.9060    1.5850   -3.2200 oh        1 3JS     -0.593800
      8 CAO         3.2090    1.7560   -2.6430 c3        1 3JS     -0.085400
      9 CBE         3.8350    0.9220   -1.5000 c3        1 3JS      0.038700
     10 CAW         4.8470    1.8180   -0.7440 c         1 3JS      0.660100
     11 OAE         4.5250    2.9760   -0.4030 o         1 3JS     -0.628100
     12 N           6.1380    1.3670   -0.5440 n         1 3JS     -0.442800
     13 CD2         6.5160   -0.0330   -0.5890 c3        1 3JS      0.031000
     14 CG          7.6590   -0.2480    0.4340 c3        1 3JS      0.134100
     15 OD1         7.2290   -0.9990    1.5550 oh        1 3JS     -0.595800
     16 CB          8.0430    1.1470    0.9420 c3        1 3JS     -0.088400
     17 CA          7.0830    2.1420    0.2580 c3        1 3JS      0.028700
     18 C           7.8670    3.1720   -0.5900 c         1 3JS      0.650100
     19 O           9.1120    3.1370   -0.6670 o         1 3JS     -0.619100
     20 NAS         7.1240    4.1200   -1.2590 n         1 3JS     -0.552900
     21 CAM         7.7420    5.2020   -1.9770 c3        1 3JS      0.131300
     22 CAX         7.9850    6.4440   -1.1650 ca        1 3JS     -0.115300
     23 CAI         9.0040    6.4560   -0.2050 ca        1 3JS     -0.115500
     24 CAK         9.2580    7.6060    0.5340 ca        1 3JS     -0.120500
     25 CAH         7.2230    7.5950   -1.3750 ca        1 3JS     -0.115500
     26 CAJ         7.4760    8.7500   -0.6370 ca        1 3JS     -0.120500
     27 CAZ         8.4960    8.7680    0.3260 ca        1 3JS     -0.006000
     28 CBA         8.7690    9.9630    1.0860 cc        1 3JS     -0.144400
     29 SAT        10.3380   10.5390    1.3480 ss        1 3JS     -0.091300
     30 CAL         9.7320   11.8550    2.2390 cc        1 3JS      0.367300
     31 NAR         8.4110   11.9030    2.3620 nd        1 3JS     -0.628000
     32 CAY         7.8400   10.8130    1.7000 cd        1 3JS      0.355600
     33 CAB         6.3730   10.6170    1.6880 c3        1 3JS     -0.128400
     34 H1          0.6580   -1.4660   -0.0560 hc        1 3JS      0.071033
     35 H2          1.7050   -2.0790    1.2980 hc        1 3JS      0.071033
     36 H3          1.0860   -0.3680    1.3320 hc        1 3JS      0.071033
     37 H4          0.6470    0.6240   -0.9610 h1        1 3JS      0.059200
     38 H5          1.3990    2.0090   -0.0300 h1        1 3JS      0.059200
     39 H6          1.6150    3.1600   -2.0410 h1        1 3JS      0.061700
     40 H7          0.0200    1.9030   -3.0080 ho        1 3JS      0.404000
     41 H8          3.7760    2.7030   -2.8080 hc        1 3JS      0.080700
     42 H9          3.2060    1.1650   -3.5920 hc        1 3JS      0.080700
     43 H10         4.3500    0.0110   -1.9200 h1        1 3JS      0.094700
     44 H11         5.6460   -0.7030   -0.3430 h1        1 3JS      0.075200
     45 H12         6.8810   -0.2730   -1.6260 h1        1 3JS      0.075200
     46 H13         8.5260   -0.7660   -0.0540 h1        1 3JS      0.054700
     47 H14         6.8670   -1.8300    1.2220 ho        1 3JS      0.410000
     48 H15         7.9190    1.2010    2.0530 hc        1 3JS      0.089200
     49 H16         9.1080    1.3750    0.6890 hc        1 3JS      0.089200
     50 H17         6.5160    2.7320    1.0400 h1        1 3JS      0.088700
     51 H18         6.1610    4.2240   -1.0200 hn        1 3JS      0.334500
     52 H19         8.7340    4.8420   -2.3810 h1        1 3JS      0.067200
     53 H20         7.0720    5.4530   -2.8500 h1        1 3JS      0.067200
     54 H21         9.6020    5.5430   -0.0430 ha        1 3JS      0.145000
     55 H22        10.0600    7.6070    1.2890 ha        1 3JS      0.138000
     56 H23         6.4200    7.5960   -2.1270 ha        1 3JS      0.145000
     57 H24         6.8770    9.6570   -0.8110 ha        1 3JS      0.138000
     58 H25        10.3710   12.6210    2.6880 h5        1 3JS      0.054100
     59 H26         6.1330    9.5470    1.4660 hc        1 3JS      0.054700
     60 H27         5.9200   10.8920    2.6720 hc        1 3JS      0.054700
     61 H28         5.9110   11.2600    0.8960 hc        1 3JS      0.054700
@<TRIPOS>BOND
     1    1    2 1   
     2    1   34 1   
     3    1   35 1   
     4    1   36 1   
     5    2    3 2   
     6    2    4 1   
     7    4    5 1   
     8    4    9 1   
     9    5    6 1   
    10    5   37 1   
    11    5   38 1   
    12    6    7 1   
    13    6    8 1   
    14    6   39 1   
    15    7   40 1   
    16    8    9 1   
    17    8   41 1   
    18    8   42 1   
    19    9   10 1   
    20    9   43 1   
    21   10   11 2   
    22   10   12 1   
    23   12   13 1   
    24   12   17 1   
    25   13   14 1   
    26   13   44 1   
    27   13   45 1   
    28   14   15 1   
    29   14   16 1   
    30   14   46 1   
    31   15   47 1   
    32   16   17 1   
    33   16   48 1   
    34   16   49 1   
    35   17   18 1   
    36   17   50 1   
    37   18   19 2   
    38   18   20 1   
    39   20   21 1   
    40   20   51 1   
    41   21   22 1   
    42   21   52 1   
    43   21   53 1   
    44   22   23 ar  
    45   22   25 ar  
    46   23   24 ar  
    47   23   54 1   
    48   24   27 ar  
    49   24   55 1   
    50   25   26 ar  
    51   25   56 1   
    52   26   27 ar  
    53   26   57 1   
    54   27   28 1   
    55   28   29 1   
    56   28   32 2   
    57   29   30 1   
    58   30   31 2   
    59   30   58 1   
    60   31   32 1   
    61   32   33 1   
    62   33   59 1   
    63   33   60 1   
    64   33   61 1   
@<TRIPOS>SUBSTRUCTURE
     1 3JS         1 TEMP              0 ****  ****    0 ROOT
