@<TRIPOS>MOLECULE
3JS
   62    65     1     0     0
SMALL
bcc


@<TRIPOS>ATOM
      1 CAA         1.9780   -0.1680    1.5730 c3        1 3JS     -0.169100
      2 CAU         3.0790   -0.0220    0.5580 c         1 3JS      0.682100
      3 OAC         4.1040   -0.7350    0.5960 o         1 3JS     -0.634100
      4 NBF         2.9690    0.9730   -0.4130 n         1 3JS     -0.461800
      5 CAP         1.7000    1.6100   -0.7200 c3        1 3JS      0.048000
      6 CBC         1.6920    1.9480   -2.2340 c3        1 3JS      0.135100
      7 OAG         0.7850    1.1180   -2.9340 oh        1 3JS     -0.587800
      8 CAO         3.0990    1.6110   -2.7510 c3        1 3JS     -0.087400
      9 CBE         3.8810    1.0440   -1.5440 c3        1 3JS      0.055700
     10 CAW         5.0630    1.9880   -1.2190 c         1 3JS      0.664100
     11 OAE         4.9070    3.2300   -1.2300 o         1 3JS     -0.654100
     12 N           6.3530    1.5030   -1.0070 n         1 3JS     -0.456800
     13 CD2         6.6750    0.0940   -0.8100 c3        1 3JS      0.016000
     14 CG          7.5880   -0.0060    0.4380 c3        1 3JS      0.140100
     15 OD1         6.8600   -0.2510    1.6240 oh        1 3JS     -0.595800
     16 CB          8.2020    1.3950    0.5830 c3        1 3JS     -0.092400
     17 CA          7.2990    2.3290   -0.2580 c3        1 3JS      0.028700
     18 C           8.1610    3.2020   -1.1810 c         1 3JS      0.537100
     19 O           9.3780    3.2230   -1.2560 o         1 3JS     -0.417100
     20 NAS         7.3860    4.1530   -2.0550 ny        1 3JS     -0.679800
     21 CAM         8.1520    5.3600   -2.5080 c3        1 3JS      0.175100
     22 CAX         8.1660    6.4290   -1.4720 ca        1 3JS     -0.193300
     23 CAI         9.3180    6.6550   -0.7090 ca        1 3JS     -0.093500
     24 CAK         9.3440    7.6840    0.2260 ca        1 3JS     -0.124000
     25 CAH         7.0410    7.2420   -1.2890 ca        1 3JS     -0.093500
     26 CAJ         7.0660    8.2690   -0.3510 ca        1 3JS     -0.124000
     27 CAZ         8.2170    8.5020    0.4210 ca        1 3JS      0.067000
     28 CBA         8.2560    9.5700    1.3860 cc        1 3JS     -0.210400
     29 SAT         9.6050   10.5700    1.5900 ss        1 3JS     -0.056300
     30 CAL         8.8030   11.4420    2.8070 cc        1 3JS      0.393300
     31 NAR         7.5700   11.0340    3.0880 nd        1 3JS     -0.621000
     32 CAY         7.2380    9.9520    2.2750 cd        1 3JS      0.390600
     33 CAB         5.9150    9.2970    2.3950 c3        1 3JS     -0.136400
     34 H1          1.1180   -0.7150    1.1110 hc        1 3JS      0.081033
     35 H2          1.6260    0.8240    1.9440 hc        1 3JS      0.081033
     36 H3          2.3650   -0.7660    2.4350 hc        1 3JS      0.081033
     37 H4          0.8380    0.9320   -0.4720 h1        1 3JS      0.068200
     38 H5          1.6110    2.5510   -0.1110 h1        1 3JS      0.068200
     39 H6          1.4420    3.0290   -2.3920 h1        1 3JS      0.063700
     40 H7         -0.1050    1.4410   -2.7450 ho        1 3JS      0.416000
     41 H8          3.0350    0.8400   -3.5600 hc        1 3JS      0.081700
     42 H9          3.5860    2.5280   -3.1590 hc        1 3JS      0.081700
     43 H10         4.2680    0.0130   -1.7930 h1        1 3JS      0.094700
     44 H11         7.2320   -0.2620   -1.7200 h1        1 3JS      0.093700
     45 H12         5.7580   -0.5400   -0.6700 h1        1 3JS      0.093700
     46 H13         8.3670   -0.8000    0.2990 h1        1 3JS      0.077700
     47 H14         6.2250   -0.9620    1.4500 ho        1 3JS      0.440000
     48 H15         9.2580    1.3980    0.2170 hc        1 3JS      0.099700
     49 H16         8.1870    1.7190    1.6550 hc        1 3JS      0.099700
     50 H17         6.7440    3.0460    0.4240 h1        1 3JS      0.115700
     51 H18         6.5440    4.4580   -1.5300 hn        1 3JS      0.473300
     52 H19         7.6460    5.7360   -3.4460 hx        1 3JS      0.109700
     53 H20         9.2020    5.0330   -2.7660 hx        1 3JS      0.109700
     54 H21        10.2090    6.0210   -0.8520 ha        1 3JS      0.142000
     55 H22        10.2560    7.8590    0.8210 ha        1 3JS      0.160000
     56 H23         6.1380    7.0850   -1.8980 ha        1 3JS      0.142000
     57 H24         6.1840    8.9170   -0.2200 ha        1 3JS      0.160000
     58 H25         9.2520   12.2910    3.3360 h5        1 3JS      0.069100
     59 H26         5.9710    8.2450    2.0220 hc        1 3JS      0.059367
     60 H27         5.5670    9.2840    3.4590 hc        1 3JS      0.059367
     61 H28         5.1600    9.8590    1.7880 hc        1 3JS      0.059367
     62 HAS2        7.0620    3.6250   -2.8720 hn        1 3JS      0.473300
@<TRIPOS>BOND
     1    1    2 1   
     2    1   34 1   
     3    1   35 1   
     4    1   36 1   
     5    2    3 2   
     6    2    4 1   
     7    4    5 1   
     8    4    9 1   
     9    5    6 1   
    10    5   37 1   
    11    5   38 1   
    12    6    7 1   
    13    6    8 1   
    14    6   39 1   
    15    7   40 1   
    16    8    9 1   
    17    8   41 1   
    18    8   42 1   
    19    9   10 1   
    20    9   43 1   
    21   10   11 2   
    22   10   12 1   
    23   12   13 1   
    24   12   17 1   
    25   13   14 1   
    26   13   44 1   
    27   13   45 1   
    28   14   15 1   
    29   14   16 1   
    30   14   46 1   
    31   15   47 1   
    32   16   17 1   
    33   16   48 1   
    34   16   49 1   
    35   17   18 1   
    36   17   50 1   
    37   18   19 2   
    38   18   20 1   
    39   20   21 1   
    40   20   51 1   
    41   20   62 1   
    42   21   22 1   
    43   21   52 1   
    44   21   53 1   
    45   22   23 ar  
    46   22   25 ar  
    47   23   24 ar  
    48   23   54 1   
    49   24   27 ar  
    50   24   55 1   
    51   25   26 ar  
    52   25   56 1   
    53   26   27 ar  
    54   26   57 1   
    55   27   28 1   
    56   28   29 1   
    57   28   32 2   
    58   29   30 1   
    59   30   31 2   
    60   30   58 1   
    61   31   32 1   
    62   32   33 1   
    63   33   59 1   
    64   33   60 1   
    65   33   61 1   
@<TRIPOS>SUBSTRUCTURE
     1 3JS         1 TEMP              0 ****  ****    0 ROOT
