@<TRIPOS>MOLECULE
3JT
   55    57     1     0     0
SMALL
bcc


@<TRIPOS>ATOM
      1 CAA         1.2130   -0.6350    0.1040 c3        1 3JT     -0.094433
      2 CBB         2.7080   -0.3500   -0.0140 c3        1 3JT     -0.039000
      3 CAB         3.2900   -0.1790    1.3800 c3        1 3JT     -0.094433
      4 CAC         3.3770   -1.5220   -0.7150 c3        1 3JT     -0.094433
      5 CAN         2.8670    0.9340   -0.8290 c3        1 3JT     -0.136400
      6 CAT         4.2820    1.4610   -0.9480 c         1 3JT      0.673100
      7 OAD         5.3000    0.7770   -0.7120 o         1 3JT     -0.623100
      8 N           4.4410    2.7950   -1.3120 n         1 3JT     -0.462800
      9 CD2         3.3690    3.5880   -1.8760 c3        1 3JT      0.051000
     10 CG          4.0070    4.6630   -2.7940 c3        1 3JT      0.130100
     11 OD1         3.6150    4.4760   -4.1410 oh        1 3JT     -0.590800
     12 CB          5.5230    4.4410   -2.7170 c3        1 3JT     -0.088400
     13 CA          5.7490    3.3370   -1.6650 c3        1 3JT      0.032700
     14 C           6.5110    3.8930   -0.4370 c         1 3JT      0.650100
     15 O           6.8880    5.0820   -0.3950 o         1 3JT     -0.625100
     16 NAR         6.7450    3.0180    0.5980 n         1 3JT     -0.549900
     17 CAM         7.5400    3.3830    1.7400 c3        1 3JT      0.132300
     18 CAV         9.0110    3.1030    1.6020 ca        1 3JT     -0.115300
     19 CAH         9.7950    3.9110    0.7710 ca        1 3JT     -0.112000
     20 CAJ        11.1610    3.6800    0.6550 ca        1 3JT     -0.122500
     21 CAG         9.6090    2.0610    2.3140 ca        1 3JT     -0.112000
     22 CAI        10.9780    1.8290    2.2030 ca        1 3JT     -0.122500
     23 CAW        11.7710    2.6350    1.3710 ca        1 3JT     -0.003000
     24 CAX        13.1860    2.3980    1.2510 cc        1 3JT     -0.134400
     25 SAS        14.3140    3.5700    0.7790 ss        1 3JT     -0.088300
     26 CAK        15.5830    2.4440    0.9280 cc        1 3JT      0.362300
     27 NAQ        15.2200    1.2240    1.3150 nd        1 3JT     -0.626000
     28 CAL        13.8500    1.1940    1.5000 cd        1 3JT      0.332200
     29 H1          0.7550   -0.7400   -0.9080 hc        1 3JT      0.040589
     30 H2          1.0520   -1.5850    0.6670 hc        1 3JT      0.040589
     31 H3          0.6970    0.1920    0.6480 hc        1 3JT      0.040589
     32 H4          2.8150    0.6890    1.8970 hc        1 3JT      0.040589
     33 H5          4.3920   -0.0070    1.3200 hc        1 3JT      0.040589
     34 H6          3.1050   -1.0990    1.9850 hc        1 3JT      0.040589
     35 H7          4.4750   -1.3410   -0.8130 hc        1 3JT      0.040589
     36 H8          2.9420   -1.6650   -1.7330 hc        1 3JT      0.040589
     37 H9          3.2200   -2.4570   -0.1260 hc        1 3JT      0.040589
     38 H10         2.4950    0.7460   -1.8730 hc        1 3JT      0.067200
     39 H11         2.2150    1.7250   -0.3660 hc        1 3JT      0.067200
     40 H12         2.7960    4.0770   -1.0410 h1        1 3JT      0.052700
     41 H13         2.6600    2.9490   -2.4730 h1        1 3JT      0.052700
     42 H14         3.7240    5.6910   -2.4450 h1        1 3JT      0.056700
     43 H15         2.6930    4.7510   -4.2070 ho        1 3JT      0.402000
     44 H16         6.0450    5.3880   -2.4290 hc        1 3JT      0.090200
     45 H17         5.9120    4.1060   -3.7120 hc        1 3JT      0.090200
     46 H18         6.3950    2.5140   -2.0970 h1        1 3JT      0.089700
     47 H19         6.5810    2.0450    0.4490 hn        1 3JT      0.337500
     48 H20         7.4060    4.4890    1.9290 h1        1 3JT      0.066700
     49 H21         7.1340    2.8180    2.6280 h1        1 3JT      0.066700
     50 H22         9.3160    4.7310    0.2080 ha        1 3JT      0.146000
     51 H23        11.7710    4.3180   -0.0030 ha        1 3JT      0.135500
     52 H24         9.0010    1.4200    2.9700 ha        1 3JT      0.146000
     53 H25        11.4430    1.0120    2.7750 ha        1 3JT      0.135500
     54 H26        16.6290    2.6910    0.7240 h5        1 3JT      0.054100
     55 H27        13.3800    0.2540    1.8120 h4        1 3JT      0.046100
@<TRIPOS>BOND
     1    1    2 1   
     2    1   29 1   
     3    1   30 1   
     4    1   31 1   
     5    2    3 1   
     6    2    4 1   
     7    2    5 1   
     8    3   32 1   
     9    3   33 1   
    10    3   34 1   
    11    4   35 1   
    12    4   36 1   
    13    4   37 1   
    14    5    6 1   
    15    5   38 1   
    16    5   39 1   
    17    6    7 2   
    18    6    8 1   
    19    8    9 1   
    20    8   13 1   
    21    9   10 1   
    22    9   40 1   
    23    9   41 1   
    24   10   11 1   
    25   10   12 1   
    26   10   42 1   
    27   11   43 1   
    28   12   13 1   
    29   12   44 1   
    30   12   45 1   
    31   13   14 1   
    32   13   46 1   
    33   14   15 2   
    34   14   16 1   
    35   16   17 1   
    36   16   47 1   
    37   17   18 1   
    38   17   48 1   
    39   17   49 1   
    40   18   19 ar  
    41   18   21 ar  
    42   19   20 ar  
    43   19   50 1   
    44   20   23 ar  
    45   20   51 1   
    46   21   22 ar  
    47   21   52 1   
    48   22   23 ar  
    49   22   53 1   
    50   23   24 1   
    51   24   25 1   
    52   24   28 2   
    53   25   26 1   
    54   26   27 2   
    55   26   54 1   
    56   27   28 1   
    57   28   55 1   
@<TRIPOS>SUBSTRUCTURE
     1 3JT         1 TEMP              0 ****  ****    0 ROOT
