@<TRIPOS>MOLECULE
3JT
   56    58     1     0     0
SMALL
bcc


@<TRIPOS>ATOM
      1 CAA         1.5060   -0.9460   -0.5020 c3        1 3JT     -0.096433
      2 CBB         2.9140   -0.4460   -0.1860 c3        1 3JT     -0.041000
      3 CAB         3.0190   -0.1790    1.3060 c3        1 3JT     -0.096433
      4 CAC         3.9170   -1.5120   -0.5980 c3        1 3JT     -0.096433
      5 CAN         3.1250    0.8410   -0.9860 c3        1 3JT     -0.137400
      6 CAT         4.4250    1.5640   -0.7280 c         1 3JT      0.683100
      7 OAD         5.4170    1.0630   -0.1560 o         1 3JT     -0.649100
      8 N           4.5240    2.9150   -1.0990 n         1 3JT     -0.479800
      9 CD2         3.5370    3.5560   -1.9540 c3        1 3JT      0.036000
     10 CG          4.2660    4.6050   -2.8340 c3        1 3JT      0.136100
     11 OD1         4.2790    4.1840   -4.1830 oh        1 3JT     -0.584800
     12 CB          5.7240    4.6200   -2.3510 c3        1 3JT     -0.096400
     13 CA          5.8300    3.5350   -1.2580 c3        1 3JT      0.038700
     14 C           6.3350    4.1600    0.0540 c         1 3JT      0.534100
     15 O           6.6300    5.3290    0.2480 o         1 3JT     -0.419100
     16 NAR         6.5040    3.1930    1.1950 n4        1 3JT     -0.677800
     17 CAM         7.4910    3.6150    2.2430 c3        1 3JT      0.176100
     18 CAV         8.8860    3.2640    1.8610 ca        1 3JT     -0.196300
     19 CAH         9.7850    4.2650    1.4750 ca        1 3JT     -0.089500
     20 CAJ        11.1000    3.9380    1.1630 ca        1 3JT     -0.128000
     21 CAG         9.3170    1.9340    1.9320 ca        1 3JT     -0.089500
     22 CAI        10.6300    1.6060    1.6160 ca        1 3JT     -0.128000
     23 CAW        11.5410    2.6040    1.2240 ca        1 3JT      0.072000
     24 CAX        12.9000    2.2700    0.8950 cc        1 3JT     -0.205400
     25 SAS        14.1900    3.3650    0.8930 ss        1 3JT     -0.045300
     26 CAK        15.2650    2.1370    0.4230 cc        1 3JT      0.389300
     27 NAQ        14.7200    0.9310    0.2610 nd        1 3JT     -0.618000
     28 CAL        13.3700    1.0010    0.5310 cd        1 3JT      0.370200
     29 H1          1.3170   -1.9050    0.0390 hc        1 3JT      0.045478
     30 H2          1.3930   -1.1290   -1.5970 hc        1 3JT      0.045478
     31 H3          0.7420   -0.2000   -0.1790 hc        1 3JT      0.045478
     32 H4          4.0550    0.1430    1.5730 hc        1 3JT      0.045478
     33 H5          2.2980    0.6150    1.6150 hc        1 3JT      0.045478
     34 H6          2.7840   -1.1120    1.8750 hc        1 3JT      0.045478
     35 H7          4.9600   -1.1810   -0.3730 hc        1 3JT      0.045478
     36 H8          3.8330   -1.7240   -1.6910 hc        1 3JT      0.045478
     37 H9          3.7170   -2.4570   -0.0380 hc        1 3JT      0.045478
     38 H10         3.1040    0.5890   -2.0840 hc        1 3JT      0.084200
     39 H11         2.2660    1.5350   -0.7710 hc        1 3JT      0.084200
     40 H12         2.7700    4.0540   -1.2990 h1        1 3JT      0.076700
     41 H13         3.0220    2.8060   -2.6160 h1        1 3JT      0.076700
     42 H14         3.7850    5.6120   -2.7270 h1        1 3JT      0.074700
     43 H15         3.4660    4.5020   -4.5970 ho        1 3JT      0.424000
     44 H16         5.9970    5.6320   -1.9640 hc        1 3JT      0.102700
     45 H17         6.4110    4.3660   -3.2000 hc        1 3JT      0.102700
     46 H18         6.6060    2.7600   -1.5500 h1        1 3JT      0.113700
     47 H19         6.7940    2.2780    0.8010 hn        1 3JT      0.474800
     48 H20         7.2040    3.0800    3.1960 hx        1 3JT      0.110700
     49 H21         7.3810    4.7280    2.4020 hx        1 3JT      0.110700
     50 H22         9.4560    5.3160    1.4240 ha        1 3JT      0.142500
     51 H23        11.8030    4.7330    0.8640 ha        1 3JT      0.157000
     52 H24         8.6230    1.1420    2.2550 ha        1 3JT      0.142500
     53 H25        10.9640    0.5580    1.6850 ha        1 3JT      0.157000
     54 H26        16.3370    2.3030    0.2620 h5        1 3JT      0.070100
     55 H27        12.7670    0.0900    0.4380 h4        1 3JT      0.049100
     56 HAR2        5.5810    3.0600    1.6240 hn        1 3JT      0.474800
@<TRIPOS>BOND
     1    1    2 1   
     2    1   29 1   
     3    1   30 1   
     4    1   31 1   
     5    2    3 1   
     6    2    4 1   
     7    2    5 1   
     8    3   32 1   
     9    3   33 1   
    10    3   34 1   
    11    4   35 1   
    12    4   36 1   
    13    4   37 1   
    14    5    6 1   
    15    5   38 1   
    16    5   39 1   
    17    6    7 2   
    18    6    8 1   
    19    8    9 1   
    20    8   13 1   
    21    9   10 1   
    22    9   40 1   
    23    9   41 1   
    24   10   11 1   
    25   10   12 1   
    26   10   42 1   
    27   11   43 1   
    28   12   13 1   
    29   12   44 1   
    30   12   45 1   
    31   13   14 1   
    32   13   46 1   
    33   14   15 2   
    34   14   16 1   
    35   16   17 1   
    36   16   47 1   
    37   16   56 1   
    38   17   18 1   
    39   17   48 1   
    40   17   49 1   
    41   18   19 ar  
    42   18   21 ar  
    43   19   20 ar  
    44   19   50 1   
    45   20   23 ar  
    46   20   51 1   
    47   21   22 ar  
    48   21   52 1   
    49   22   23 ar  
    50   22   53 1   
    51   23   24 1   
    52   24   25 1   
    53   24   28 2   
    54   25   26 1   
    55   26   27 2   
    56   26   54 1   
    57   27   28 1   
    58   28   55 1   
@<TRIPOS>SUBSTRUCTURE
     1 3JT         1 TEMP              0 ****  ****    0 ROOT
