@<TRIPOS>MOLECULE
3JT
   56    58     1     0     0
SMALL
bcc


@<TRIPOS>ATOM
      1 CAA         1.4940   -0.9240   -0.5350 c3        1 3JT     -0.096433
      2 CBB         2.9050   -0.4350   -0.2170 c3        1 3JT     -0.041000
      3 CAB         3.0200   -0.2020    1.2800 c3        1 3JT     -0.096433
      4 CAC         3.9020   -1.4940   -0.6590 c3        1 3JT     -0.096433
      5 CAN         3.1150    0.8700   -0.9900 c3        1 3JT     -0.137400
      6 CAT         4.4180    1.5820   -0.7240 c         1 3JT      0.683100
      7 OAD         5.4130    1.0660   -0.1680 o         1 3JT     -0.649100
      8 N           4.5200    2.9400   -1.0660 n         1 3JT     -0.479800
      9 CD2         3.5300    3.6030   -1.9010 c3        1 3JT      0.036000
     10 CG          4.2580    4.6690   -2.7620 c3        1 3JT      0.136100
     11 OD1         4.2620    4.2770   -4.1200 oh        1 3JT     -0.584800
     12 CB          5.7180    4.6700   -2.2870 c3        1 3JT     -0.096400
     13 CA          5.8270    3.5600   -1.2190 c3        1 3JT      0.038700
     14 C           6.3410    4.1550    0.1050 c         1 3JT      0.534100
     15 O           6.6380    5.3180    0.3230 o         1 3JT     -0.418100
     16 NAR         6.5150    3.1620    1.2220 ny        1 3JT     -0.677800
     17 CAM         7.5100    3.5580    2.2730 c3        1 3JT      0.176100
     18 CAV         8.9020    3.2150    1.8720 ca        1 3JT     -0.196300
     19 CAH         9.8000    4.2230    1.5030 ca        1 3JT     -0.089500
     20 CAJ        11.1120    3.9030    1.1740 ca        1 3JT     -0.128000
     21 CAG         9.3320    1.8820    1.9080 ca        1 3JT     -0.089500
     22 CAI        10.6430    1.5610    1.5750 ca        1 3JT     -0.128000
     23 CAW        11.5520    2.5670    1.2010 ca        1 3JT      0.072000
     24 CAX        12.9080    2.2390    0.8540 cc        1 3JT     -0.205400
     25 SAS        14.1990    3.3320    0.8690 ss        1 3JT     -0.045300
     26 CAK        15.2700    2.1150    0.3620 cc        1 3JT      0.389300
     27 NAQ        14.7220    0.9140    0.1740 nd        1 3JT     -0.618000
     28 CAL        13.3740    0.9790    0.4560 cd        1 3JT      0.370200
     29 H1          1.3730   -1.0820   -1.6330 hc        1 3JT      0.045478
     30 H2          0.7330   -0.1830   -0.1910 hc        1 3JT      0.045478
     31 H3          1.3050   -1.8930   -0.0150 hc        1 3JT      0.045478
     32 H4          2.3030    0.5880    1.6100 hc        1 3JT      0.045478
     33 H5          2.7850   -1.1450    1.8290 hc        1 3JT      0.045478
     34 H6          4.0580    0.1120    1.5470 hc        1 3JT      0.045478
     35 H7          4.9470   -1.1710   -0.4330 hc        1 3JT      0.045478
     36 H8          3.8110   -1.6820   -1.7550 hc        1 3JT      0.045478
     37 H9          3.7020   -2.4510   -0.1180 hc        1 3JT      0.045478
     38 H10         2.2600    1.5600   -0.7540 hc        1 3JT      0.084200
     39 H11         3.0870    0.6410   -2.0930 hc        1 3JT      0.084200
     40 H12         2.7680    4.0890   -1.2320 h1        1 3JT      0.076700
     41 H13         3.0090    2.8690   -2.5770 h1        1 3JT      0.076700
     42 H14         3.7800    5.6750   -2.6310 h1        1 3JT      0.074700
     43 H15         3.4480    4.6060   -4.5220 ho        1 3JT      0.424000
     44 H16         6.4000    4.4330   -3.1450 hc        1 3JT      0.102700
     45 H17         5.9960    5.6720   -1.8790 hc        1 3JT      0.102700
     46 H18         6.5990    2.7890   -1.5320 h1        1 3JT      0.112700
     47 H19         5.5950    3.0210    1.6540 hn        1 3JT      0.474800
     48 H20         7.2290    3.0010    3.2140 hx        1 3JT      0.110700
     49 H21         7.4030    4.6670    2.4590 hx        1 3JT      0.110700
     50 H22         9.4710    5.2750    1.4800 ha        1 3JT      0.142500
     51 H23        11.8140    4.7030    0.8890 ha        1 3JT      0.157000
     52 H24         8.6400    1.0830    2.2170 ha        1 3JT      0.142500
     53 H25        10.9760    0.5110    1.6170 ha        1 3JT      0.157000
     54 H26        16.3400    2.2830    0.1970 h5        1 3JT      0.070100
     55 H27        12.7690    0.0710    0.3450 h4        1 3JT      0.049100
     56 HAR2        6.8010    2.2550    0.8060 hn        1 3JT      0.474800
@<TRIPOS>BOND
     1    1    2 1   
     2    1   29 1   
     3    1   30 1   
     4    1   31 1   
     5    2    3 1   
     6    2    4 1   
     7    2    5 1   
     8    3   32 1   
     9    3   33 1   
    10    3   34 1   
    11    4   35 1   
    12    4   36 1   
    13    4   37 1   
    14    5    6 1   
    15    5   38 1   
    16    5   39 1   
    17    6    7 2   
    18    6    8 1   
    19    8    9 1   
    20    8   13 1   
    21    9   10 1   
    22    9   40 1   
    23    9   41 1   
    24   10   11 1   
    25   10   12 1   
    26   10   42 1   
    27   11   43 1   
    28   12   13 1   
    29   12   44 1   
    30   12   45 1   
    31   13   14 1   
    32   13   46 1   
    33   14   15 2   
    34   14   16 1   
    35   16   17 1   
    36   16   47 1   
    37   16   56 1   
    38   17   18 1   
    39   17   48 1   
    40   17   49 1   
    41   18   19 ar  
    42   18   21 ar  
    43   19   20 ar  
    44   19   50 1   
    45   20   23 ar  
    46   20   51 1   
    47   21   22 ar  
    48   21   52 1   
    49   22   23 ar  
    50   22   53 1   
    51   23   24 1   
    52   24   25 1   
    53   24   28 2   
    54   25   26 1   
    55   26   27 2   
    56   26   54 1   
    57   27   28 1   
    58   28   55 1   
@<TRIPOS>SUBSTRUCTURE
     1 3JT         1 TEMP              0 ****  ****    0 ROOT
