@<TRIPOS>MOLECULE
3JU
   59    61     1     0     0
SMALL
bcc


@<TRIPOS>ATOM
      1 CAB        -0.1390    0.7910    0.8780 c3        1 3JU     -0.096433
      2 CBC         1.3430    1.0710    1.0680 c3        1 3JU     -0.041000
      3 CAC         1.6020    1.5770    2.4780 c3        1 3JU     -0.096433
      4 CAD         2.1220   -0.2260    0.8600 c3        1 3JU     -0.096433
      5 CAN         1.8470    2.0720    0.0260 c3        1 3JU     -0.137400
      6 CAT         1.1200    3.3940   -0.0120 c         1 3JU      0.683100
      7 OAE         0.3670    3.8200    0.8910 o         1 3JU     -0.649100
      8 N           1.2390    4.1890   -1.1630 n         1 3JU     -0.479800
      9 CD2         2.2370    3.9210   -2.1890 c3        1 3JU      0.037000
     10 CG          2.6990    5.2780   -2.7810 c3        1 3JU      0.136100
     11 OD1         4.0330    5.5460   -2.4020 oh        1 3JU     -0.584800
     12 CB          1.8170    6.3490   -2.1220 c3        1 3JU     -0.096400
     13 CA          0.9180    5.6070   -1.1100 c3        1 3JU      0.038700
     14 C          -0.5640    5.8750   -1.4300 c         1 3JU      0.533100
     15 O          -1.0090    6.5660   -2.3310 o         1 3JU     -0.418100
     16 NAR        -1.5440    5.2230   -0.4920 n4        1 3JU     -0.676800
     17 CAM        -2.8870    5.8870   -0.4160 c3        1 3JU      0.175100
     18 CAV        -2.8860    7.0300    0.5370 ca        1 3JU     -0.193300
     19 CAI        -2.8730    6.7910    1.9170 ca        1 3JU     -0.094000
     20 CAK        -2.9200    7.8540    2.8120 ca        1 3JU     -0.123500
     21 CAH        -2.9460    8.3450    0.0610 ca        1 3JU     -0.094000
     22 CAJ        -2.9990    9.4080    0.9560 ca        1 3JU     -0.123500
     23 CAX        -2.9900    9.1780    2.3430 ca        1 3JU      0.068000
     24 CAY        -3.0410   10.2850    3.2630 cc        1 3JU     -0.209400
     25 SAS        -2.1810   11.7220    3.0120 ss        1 3JU     -0.076300
     26 CAL        -2.7890   12.3640    4.4640 cc        1 3JU      0.399300
     27 NAQ        -3.6130   11.5720    5.1400 nd        1 3JU     -0.620000
     28 CAW        -3.7710   10.3660    4.4590 cd        1 3JU      0.397600
     29 CAA        -4.6600    9.3090    4.9940 c3        1 3JU     -0.139400
     30 H1         -0.7370    1.7130    1.0720 hc        1 3JU      0.045478
     31 H2         -0.3400    0.4350   -0.1610 hc        1 3JU      0.045478
     32 H3         -0.4690   -0.0000    1.5940 hc        1 3JU      0.045478
     33 H4          2.6920    1.7680    2.6290 hc        1 3JU      0.045478
     34 H5          1.2700    0.8130    3.2220 hc        1 3JU      0.045478
     35 H6          1.0400    2.5230    2.6670 hc        1 3JU      0.045478
     36 H7          1.9260   -0.6450   -0.1560 hc        1 3JU      0.045478
     37 H8          1.8080   -0.9810    1.6210 hc        1 3JU      0.045478
     38 H9          3.2180   -0.0460    0.9710 hc        1 3JU      0.045478
     39 H10         1.7890    1.5860   -0.9860 hc        1 3JU      0.084200
     40 H11         2.9290    2.3010    0.2430 hc        1 3JU      0.084200
     41 H12         3.1250    3.3780   -1.7610 h1        1 3JU      0.076700
     42 H13         1.7650    3.2820   -2.9850 h1        1 3JU      0.076700
     43 H14         2.5850    5.2800   -3.8970 h1        1 3JU      0.074700
     44 H15         4.6120    5.1380   -3.0580 ho        1 3JU      0.424000
     45 H16         1.2180    6.8920   -2.8930 hc        1 3JU      0.102700
     46 H17         2.4580    7.0920   -1.5790 hc        1 3JU      0.102700
     47 H18         1.0870    6.0130   -0.0640 h1        1 3JU      0.112700
     48 H19        -1.1190    5.2020    0.4550 hn        1 3JU      0.474800
     49 H20        -3.1720    6.2250   -1.4550 hx        1 3JU      0.110700
     50 H21        -3.6210    5.0990   -0.0750 hx        1 3JU      0.110700
     51 H22        -2.8380    5.7590    2.3020 ha        1 3JU      0.142500
     52 H23        -2.9020    7.6620    3.8970 ha        1 3JU      0.160000
     53 H24        -2.9630    8.5410   -1.0230 ha        1 3JU      0.142500
     54 H25        -3.0600   10.4410    0.5750 ha        1 3JU      0.160000
     55 H26        -2.5310   13.3630    4.8350 h5        1 3JU      0.069100
     56 H27        -4.1030    8.6910    5.7440 hc        1 3JU      0.061700
     57 H28        -5.5530    9.7530    5.5030 hc        1 3JU      0.061700
     58 H29        -5.0130    8.6460    4.1660 hc        1 3JU      0.061700
     59 HAR2       -1.6570    4.2480   -0.7940 hn        1 3JU      0.474800
@<TRIPOS>BOND
     1    1    2 1   
     2    1   30 1   
     3    1   31 1   
     4    1   32 1   
     5    2    3 1   
     6    2    4 1   
     7    2    5 1   
     8    3   33 1   
     9    3   34 1   
    10    3   35 1   
    11    4   36 1   
    12    4   37 1   
    13    4   38 1   
    14    5    6 1   
    15    5   39 1   
    16    5   40 1   
    17    6    7 2   
    18    6    8 1   
    19    8    9 1   
    20    8   13 1   
    21    9   10 1   
    22    9   41 1   
    23    9   42 1   
    24   10   11 1   
    25   10   12 1   
    26   10   43 1   
    27   11   44 1   
    28   12   13 1   
    29   12   45 1   
    30   12   46 1   
    31   13   14 1   
    32   13   47 1   
    33   14   15 2   
    34   14   16 1   
    35   16   17 1   
    36   16   48 1   
    37   16   59 1   
    38   17   18 1   
    39   17   49 1   
    40   17   50 1   
    41   18   19 ar  
    42   18   21 ar  
    43   19   20 ar  
    44   19   51 1   
    45   20   23 ar  
    46   20   52 1   
    47   21   22 ar  
    48   21   53 1   
    49   22   23 ar  
    50   22   54 1   
    51   23   24 1   
    52   24   25 1   
    53   24   28 2   
    54   25   26 1   
    55   26   27 2   
    56   26   55 1   
    57   27   28 1   
    58   28   29 1   
    59   29   56 1   
    60   29   57 1   
    61   29   58 1   
@<TRIPOS>SUBSTRUCTURE
     1 3JU         1 TEMP              0 ****  ****    0 ROOT
