@<TRIPOS>MOLECULE
3JU
   58    60     1     0     0
SMALL
bcc


@<TRIPOS>ATOM
      1 CAB        -0.1810    0.9680    1.1060 c3        1 3JU     -0.094433
      2 CBC         1.3250    0.8740    0.9220 c3        1 3JU     -0.039000
      3 CAC         2.0270    1.1790    2.2360 c3        1 3JU     -0.094433
      4 CAD         1.6840   -0.5440    0.4890 c3        1 3JU     -0.094433
      5 CAN         1.7960    1.8240   -0.1800 c3        1 3JU     -0.137400
      6 CAT         1.4140    3.2780    0.0040 c         1 3JU      0.673100
      7 OAE         1.0390    3.7670    1.0900 o         1 3JU     -0.625100
      8 N           1.4580    4.0990   -1.1190 n         1 3JU     -0.466800
      9 CD2         2.1310    3.7200   -2.3450 c3        1 3JU      0.085000
     10 CG          2.6380    5.0160   -3.0240 c3        1 3JU      0.129100
     11 OD1         4.0500    4.9120   -3.0910 oh        1 3JU     -0.599800
     12 CB          2.1800    6.1750   -2.1280 c3        1 3JU     -0.126400
     13 CA          1.3290    5.5480   -1.0050 c3        1 3JU      0.036700
     14 C          -0.1410    6.0260   -1.0940 c         1 3JU      0.651100
     15 O          -0.4960    6.8610   -1.9510 o         1 3JU     -0.626100
     16 NAR        -1.0260    5.4880   -0.1890 n         1 3JU     -0.548900
     17 CAM        -2.3900    5.9360   -0.0990 c3        1 3JU      0.132300
     18 CAV        -2.6200    7.0740    0.8560 ca        1 3JU     -0.114300
     19 CAI        -3.2640    6.8620    2.0770 ca        1 3JU     -0.115500
     20 CAK        -3.5000    7.9290    2.9410 ca        1 3JU     -0.120000
     21 CAH        -2.2070    8.3650    0.5080 ca        1 3JU     -0.115500
     22 CAJ        -2.4390    9.4320    1.3690 ca        1 3JU     -0.120000
     23 CAX        -3.0910    9.2260    2.5970 ca        1 3JU     -0.005000
     24 CAY        -3.3240   10.3330    3.4920 cc        1 3JU     -0.143400
     25 SAS        -2.1370   11.4890    3.8410 ss        1 3JU     -0.094300
     26 CAL        -3.2060   12.3060    4.8820 cc        1 3JU      0.368300
     27 NAQ        -4.4150   11.7710    4.9950 nd        1 3JU     -0.627000
     28 CAW        -4.4980   10.6290    4.1960 cd        1 3JU      0.356600
     29 CAA        -5.7490    9.8390    4.1270 c3        1 3JU     -0.128400
     30 H1         -0.4650    1.9890    1.4610 hc        1 3JU      0.040700
     31 H2         -0.5200    0.2210    1.8640 hc        1 3JU      0.040700
     32 H3         -0.7060    0.7600    0.1430 hc        1 3JU      0.040700
     33 H4          1.7000    0.4530    3.0190 hc        1 3JU      0.040700
     34 H5          1.7790    2.2130    2.5790 hc        1 3JU      0.040700
     35 H6          3.1340    1.0950    2.1130 hc        1 3JU      0.040700
     36 H7          1.1540   -0.8120   -0.4560 hc        1 3JU      0.040700
     37 H8          2.7840   -0.6340    0.3220 hc        1 3JU      0.040700
     38 H9          1.3840   -1.2700    1.2820 hc        1 3JU      0.040700
     39 H10         1.3850    1.4550   -1.1600 hc        1 3JU      0.068700
     40 H11         2.9190    1.7800   -0.2360 hc        1 3JU      0.068700
     41 H12         2.9990    3.0320   -2.1430 h1        1 3JU      0.064200
     42 H13         1.4010    3.1950   -3.0200 h1        1 3JU      0.064200
     43 H14         2.2170    5.1100   -4.0600 h1        1 3JU      0.057700
     44 H15         4.3740    5.7330   -3.4800 ho        1 3JU      0.408000
     45 H16         1.5840    6.9200   -2.7120 hc        1 3JU      0.081700
     46 H17         3.0630    6.6950   -1.6820 hc        1 3JU      0.081700
     47 H18         1.7110    5.8810    0.0070 h1        1 3JU      0.088700
     48 H19        -0.6660    4.9660    0.5810 hn        1 3JU      0.337500
     49 H20        -3.0160    5.0510    0.2170 h1        1 3JU      0.067700
     50 H21        -2.7280    6.2620   -1.1270 h1        1 3JU      0.067700
     51 H22        -3.5880    5.8500    2.3620 ha        1 3JU      0.145000
     52 H23        -4.0050    7.7570    3.9040 ha        1 3JU      0.138000
     53 H24        -1.6980    8.5260   -0.4570 ha        1 3JU      0.145000
     54 H25        -2.1160   10.4460    1.0870 ha        1 3JU      0.138000
     55 H26        -2.9330   13.2120    5.4300 h5        1 3JU      0.054100
     56 H27        -5.8110    9.1520    5.0090 hc        1 3JU      0.054700
     57 H28        -5.7620    9.2260    3.1920 hc        1 3JU      0.054700
     58 H29        -6.6470   10.5040    4.1370 hc        1 3JU      0.054700
@<TRIPOS>BOND
     1    1    2 1   
     2    1   30 1   
     3    1   31 1   
     4    1   32 1   
     5    2    3 1   
     6    2    4 1   
     7    2    5 1   
     8    3   33 1   
     9    3   34 1   
    10    3   35 1   
    11    4   36 1   
    12    4   37 1   
    13    4   38 1   
    14    5    6 1   
    15    5   39 1   
    16    5   40 1   
    17    6    7 2   
    18    6    8 1   
    19    8    9 1   
    20    8   13 1   
    21    9   10 1   
    22    9   41 1   
    23    9   42 1   
    24   10   11 1   
    25   10   12 1   
    26   10   43 1   
    27   11   44 1   
    28   12   13 1   
    29   12   45 1   
    30   12   46 1   
    31   13   14 1   
    32   13   47 1   
    33   14   15 2   
    34   14   16 1   
    35   16   17 1   
    36   16   48 1   
    37   17   18 1   
    38   17   49 1   
    39   17   50 1   
    40   18   19 ar  
    41   18   21 ar  
    42   19   20 ar  
    43   19   51 1   
    44   20   23 ar  
    45   20   52 1   
    46   21   22 ar  
    47   21   53 1   
    48   22   23 ar  
    49   22   54 1   
    50   23   24 1   
    51   24   25 1   
    52   24   28 2   
    53   25   26 1   
    54   26   27 2   
    55   26   55 1   
    56   27   28 1   
    57   28   29 1   
    58   29   56 1   
    59   29   57 1   
    60   29   58 1   
@<TRIPOS>SUBSTRUCTURE
     1 3JU         1 TEMP              0 ****  ****    0 ROOT
