@<TRIPOS>MOLECULE
3JU
   59    61     1     0     0
SMALL
bcc


@<TRIPOS>ATOM
      1 CAB        -0.1570    0.7910    0.8390 c3        1 3JU     -0.096433
      2 CBC         1.3220    1.0640    1.0540 c3        1 3JU     -0.041000
      3 CAC         1.5610    1.5580    2.4720 c3        1 3JU     -0.096433
      4 CAD         2.1000   -0.2330    0.8460 c3        1 3JU     -0.096433
      5 CAN         1.8450    2.0730    0.0290 c3        1 3JU     -0.137400
      6 CAT         1.1230    3.3980   -0.0090 c         1 3JU      0.683100
      7 OAE         0.3570    3.8180    0.8860 o         1 3JU     -0.649100
      8 N           1.2630    4.2040   -1.1510 n         1 3JU     -0.479800
      9 CD2         2.2770    3.9420   -2.1620 c3        1 3JU      0.036000
     10 CG          2.7540    5.3030   -2.7330 c3        1 3JU      0.136100
     11 OD1         4.0830    5.5610   -2.3290 oh        1 3JU     -0.584800
     12 CB          1.8660    6.3700   -2.0770 c3        1 3JU     -0.096400
     13 CA          0.9470    5.6220   -1.0880 c3        1 3JU      0.038700
     14 C          -0.5280    5.8990   -1.4300 c         1 3JU      0.533100
     15 O          -0.9550    6.6030   -2.3300 o         1 3JU     -0.418100
     16 NAR        -1.5260    5.2410   -0.5160 ny        1 3JU     -0.676800
     17 CAM        -2.8670    5.9100   -0.4540 c3        1 3JU      0.175100
     18 CAV        -2.8780    7.0420    0.5130 ca        1 3JU     -0.193300
     19 CAI        -2.8880    6.7850    1.8900 ca        1 3JU     -0.094000
     20 CAK        -2.9460    7.8380    2.7970 ca        1 3JU     -0.123500
     21 CAH        -2.9240    8.3620    0.0520 ca        1 3JU     -0.094000
     22 CAJ        -2.9870    9.4150    0.9590 ca        1 3JU     -0.123500
     23 CAX        -3.0010    9.1680    2.3440 ca        1 3JU      0.068000
     24 CAY        -3.0620   10.2640    3.2750 cc        1 3JU     -0.209400
     25 SAS        -2.1920   11.6990    3.0570 ss        1 3JU     -0.076300
     26 CAL        -2.8210   12.3270    4.5060 cc        1 3JU      0.399300
     27 NAQ        -3.6600   11.5310    5.1590 nd        1 3JU     -0.620000
     28 CAW        -3.8120   10.3330    4.4600 cd        1 3JU      0.397600
     29 CAA        -4.7140    9.2740    4.9680 c3        1 3JU     -0.139400
     30 H1         -0.3450    0.4450   -0.2060 hc        1 3JU      0.045478
     31 H2         -0.7560    1.7140    1.0320 hc        1 3JU      0.045478
     32 H3         -0.5020   -0.0050    1.5420 hc        1 3JU      0.045478
     33 H4          1.2160    0.7880    3.2040 hc        1 3JU      0.045478
     34 H5          2.6490    1.7440    2.6410 hc        1 3JU      0.045478
     35 H6          0.9990    2.5040    2.6610 hc        1 3JU      0.045478
     36 H7          1.9180   -0.6420   -0.1770 hc        1 3JU      0.045478
     37 H8          1.7720   -0.9930    1.5950 hc        1 3JU      0.045478
     38 H9          3.1950   -0.0570    0.9750 hc        1 3JU      0.045478
     39 H10         2.9240    2.2960    0.2630 hc        1 3JU      0.084200
     40 H11         1.8000    1.5970   -0.9890 hc        1 3JU      0.084200
     41 H12         3.1550    3.3900   -1.7260 h1        1 3JU      0.076700
     42 H13         1.8150    3.3120   -2.9720 h1        1 3JU      0.076700
     43 H14         2.6590    5.3160   -3.8500 h1        1 3JU      0.074700
     44 H15         4.6710    5.1570   -2.9800 ho        1 3JU      0.424000
     45 H16         1.2820    6.9240   -2.8530 hc        1 3JU      0.102700
     46 H17         2.5010    7.1050   -1.5170 hc        1 3JU      0.102700
     47 H18         1.1000    6.0180   -0.0350 h1        1 3JU      0.112700
     48 H19        -1.1170    5.2080    0.4380 hn        1 3JU      0.474800
     49 H20        -3.1330    6.2630   -1.4940 hx        1 3JU      0.110700
     50 H21        -3.6100    5.1220   -0.1350 hx        1 3JU      0.110700
     51 H22        -2.8640    5.7490    2.2620 ha        1 3JU      0.142500
     52 H23        -2.9460    7.6330    3.8800 ha        1 3JU      0.160000
     53 H24        -2.9220    8.5720   -1.0300 ha        1 3JU      0.142500
     54 H25        -3.0370   10.4530    0.5900 ha        1 3JU      0.160000
     55 H26        -2.5640   13.3190    4.8940 h5        1 3JU      0.069100
     56 H27        -5.0560    8.6230    4.1260 hc        1 3JU      0.061700
     57 H28        -4.1730    8.6450    5.7190 hc        1 3JU      0.061700
     58 H29        -5.6140    9.7160    5.4670 hc        1 3JU      0.061700
     59 HAR2       -1.6380    4.2710   -0.8310 hn        1 3JU      0.474800
@<TRIPOS>BOND
     1    1    2 1   
     2    1   30 1   
     3    1   31 1   
     4    1   32 1   
     5    2    3 1   
     6    2    4 1   
     7    2    5 1   
     8    3   33 1   
     9    3   34 1   
    10    3   35 1   
    11    4   36 1   
    12    4   37 1   
    13    4   38 1   
    14    5    6 1   
    15    5   39 1   
    16    5   40 1   
    17    6    7 2   
    18    6    8 1   
    19    8    9 1   
    20    8   13 1   
    21    9   10 1   
    22    9   41 1   
    23    9   42 1   
    24   10   11 1   
    25   10   12 1   
    26   10   43 1   
    27   11   44 1   
    28   12   13 1   
    29   12   45 1   
    30   12   46 1   
    31   13   14 1   
    32   13   47 1   
    33   14   15 2   
    34   14   16 1   
    35   16   17 1   
    36   16   48 1   
    37   16   59 1   
    38   17   18 1   
    39   17   49 1   
    40   17   50 1   
    41   18   19 ar  
    42   18   21 ar  
    43   19   20 ar  
    44   19   51 1   
    45   20   23 ar  
    46   20   52 1   
    47   21   22 ar  
    48   21   53 1   
    49   22   23 ar  
    50   22   54 1   
    51   23   24 1   
    52   24   25 1   
    53   24   28 2   
    54   25   26 1   
    55   26   27 2   
    56   26   55 1   
    57   27   28 1   
    58   28   29 1   
    59   29   56 1   
    60   29   57 1   
    61   29   58 1   
@<TRIPOS>SUBSTRUCTURE
     1 3JU         1 TEMP              0 ****  ****    0 ROOT
