@<TRIPOS>MOLECULE
3JV
   59    61     1     0     0
SMALL
bcc


@<TRIPOS>ATOM
      1 CAB        -0.2580    0.7580    0.5620 c3        1 3JV     -0.096433
      2 CBC         1.1660    0.9660    1.0510 c3        1 3JV     -0.041000
      3 CAC         1.1620    1.3630    2.5180 c3        1 3JV     -0.096433
      4 CAD         1.9380   -0.3430    0.8970 c3        1 3JV     -0.096433
      5 CAN         1.8860    2.0170    0.2020 c3        1 3JV     -0.137400
      6 CAT         1.2120    3.3650    0.1250 c         1 3JV      0.683100
      7 OAE         0.3110    3.7570    0.8980 o         1 3JV     -0.649100
      8 N           1.5700    4.2330   -0.9190 n         1 3JV     -0.479800
      9 CD2         2.7400    3.9970   -1.7530 c3        1 3JV      0.037000
     10 CG          3.3390    5.3730   -2.1460 c3        1 3JV      0.136100
     11 OD1         4.5820    5.5640   -1.5030 oh        1 3JV     -0.584800
     12 CB          2.3730    6.4290   -1.5880 c3        1 3JV     -0.096400
     13 CA          1.2790    5.6540   -0.8230 c3        1 3JV      0.038700
     14 C          -0.1070    5.9970   -1.3990 c         1 3JV      0.534100
     15 O          -0.3530    6.7540   -2.3240 o         1 3JV     -0.419100
     16 NAR        -1.2650    5.3320   -0.7060 n4        1 3JV     -0.677800
     17 CAM        -2.5740    6.0570   -0.8220 c3        1 3JV      0.176100
     18 CAW        -2.7000    7.1340    0.1990 ca        1 3JV     -0.191300
     19 CAL        -2.6490    8.4760   -0.1820 ca        1 3JV     -0.083000
     20 CAV        -2.8120    9.4970    0.7600 ca        1 3JV     -0.076300
     21 CAA        -2.7790   10.9040    0.2990 c3        1 3JV     -0.076800
     22 CAH        -2.9190    6.8030    1.5420 ca        1 3JV     -0.110000
     23 CAI        -3.0720    7.8090    2.4850 ca        1 3JV     -0.117000
     24 CAY        -3.0150    9.1690    2.1200 ca        1 3JV      0.070000
     25 CAX        -3.1690   10.1770    3.1360 cc        1 3JV     -0.199400
     26 SAS        -3.4310   11.8290    2.8640 ss        1 3JV     -0.035300
     27 CAJ        -3.4950   12.1290    4.5290 cc        1 3JV      0.371300
     28 NAQ        -3.3200   11.0620    5.3100 nd        1 3JV     -0.618000
     29 CAK        -3.1350    9.9480    4.5200 cd        1 3JV      0.366200
     30 H1         -0.7400   -0.0680    1.1400 hc        1 3JV      0.045478
     31 H2         -0.8600    1.6870    0.7080 hc        1 3JV      0.045478
     32 H3         -0.2650    0.4840   -0.5200 hc        1 3JV      0.045478
     33 H4          0.6740    0.5630    3.1260 hc        1 3JV      0.045478
     34 H5          0.5980    2.3160    2.6680 hc        1 3JV      0.045478
     35 H6          2.2060    1.5000    2.8880 hc        1 3JV      0.045478
     36 H7          2.9960   -0.2130    1.2280 hc        1 3JV      0.045478
     37 H8          1.9310   -0.6820   -0.1660 hc        1 3JV      0.045478
     38 H9          1.4650   -1.1350    1.5260 hc        1 3JV      0.045478
     39 H10         2.0110    1.6050   -0.8370 hc        1 3JV      0.084200
     40 H11         2.9100    2.1880    0.6370 hc        1 3JV      0.084200
     41 H12         2.4150    3.4310   -2.6690 h1        1 3JV      0.076700
     42 H13         3.5160    3.3930   -1.2060 h1        1 3JV      0.076700
     43 H14         3.4410    5.4550   -3.2600 h1        1 3JV      0.074700
     44 H15         5.2660    5.1760   -2.0640 ho        1 3JV      0.424000
     45 H16         2.9160    7.1080   -0.8810 hc        1 3JV      0.102700
     46 H17         1.9470    7.0460   -2.4170 hc        1 3JV      0.102700
     47 H18         1.2540    5.9820    0.2630 h1        1 3JV      0.112700
     48 H19        -1.0220    5.2260    0.2990 hn        1 3JV      0.474800
     49 H20        -2.6530    6.4760   -1.8670 hx        1 3JV      0.110200
     50 H21        -3.3860    5.2870   -0.6740 hx        1 3JV      0.110200
     51 H22        -2.4880    8.7400   -1.2400 ha        1 3JV      0.146000
     52 H23        -2.0010   11.4870    0.8590 hc        1 3JV      0.065367
     53 H24        -2.5410   10.9730   -0.7910 hc        1 3JV      0.065367
     54 H25        -3.7790   11.3900    0.4610 hc        1 3JV      0.065367
     55 H26        -2.9880    5.7490    1.8530 ha        1 3JV      0.137000
     56 H27        -3.2560    7.5340    3.5370 ha        1 3JV      0.156000
     57 H28        -3.6620   13.1220    4.9630 h5        1 3JV      0.069100
     58 H29        -2.9700    8.9840    5.0160 h4        1 3JV      0.048100
     59 HAR2       -1.3570    4.3880   -1.0960 hn        1 3JV      0.474800
@<TRIPOS>BOND
     1    1    2 1   
     2    1   30 1   
     3    1   31 1   
     4    1   32 1   
     5    2    3 1   
     6    2    4 1   
     7    2    5 1   
     8    3   33 1   
     9    3   34 1   
    10    3   35 1   
    11    4   36 1   
    12    4   37 1   
    13    4   38 1   
    14    5    6 1   
    15    5   39 1   
    16    5   40 1   
    17    6    7 2   
    18    6    8 1   
    19    8    9 1   
    20    8   13 1   
    21    9   10 1   
    22    9   41 1   
    23    9   42 1   
    24   10   11 1   
    25   10   12 1   
    26   10   43 1   
    27   11   44 1   
    28   12   13 1   
    29   12   45 1   
    30   12   46 1   
    31   13   14 1   
    32   13   47 1   
    33   14   15 2   
    34   14   16 1   
    35   16   17 1   
    36   16   48 1   
    37   16   59 1   
    38   17   18 1   
    39   17   49 1   
    40   17   50 1   
    41   18   19 ar  
    42   18   22 ar  
    43   19   20 ar  
    44   19   51 1   
    45   20   21 1   
    46   20   24 ar  
    47   21   52 1   
    48   21   53 1   
    49   21   54 1   
    50   22   23 ar  
    51   22   55 1   
    52   23   24 ar  
    53   23   56 1   
    54   24   25 1   
    55   25   26 1   
    56   25   29 2   
    57   26   27 1   
    58   27   28 2   
    59   27   57 1   
    60   28   29 1   
    61   29   58 1   
@<TRIPOS>SUBSTRUCTURE
     1 3JV         1 TEMP              0 ****  ****    0 ROOT
