@<TRIPOS>MOLECULE
3JV
   59    61     1     0     0
SMALL
bcc


@<TRIPOS>ATOM
      1 CAB        -0.2740    0.7630    0.5360 c3        1 3JV     -0.096433
      2 CBC         1.1510    0.9630    1.0240 c3        1 3JV     -0.041000
      3 CAC         1.1500    1.3540    2.4930 c3        1 3JV     -0.096433
      4 CAD         1.9180   -0.3480    0.8630 c3        1 3JV     -0.096433
      5 CAN         1.8740    2.0140    0.1790 c3        1 3JV     -0.137400
      6 CAT         1.2070    3.3660    0.1090 c         1 3JV      0.683100
      7 OAE         0.3070    3.7570    0.8840 o         1 3JV     -0.649100
      8 N           1.5690    4.2380   -0.9300 n         1 3JV     -0.479800
      9 CD2         2.7380    4.0020   -1.7660 c3        1 3JV      0.037000
     10 CG          3.3450    5.3770   -2.1490 c3        1 3JV      0.136100
     11 OD1         4.5890    5.5570   -1.5040 oh        1 3JV     -0.584800
     12 CB          2.3850    6.4340   -1.5840 c3        1 3JV     -0.096400
     13 CA          1.2860    5.6610   -0.8250 c3        1 3JV      0.038700
     14 C          -0.0980    6.0160   -1.4000 c         1 3JV      0.534100
     15 O          -0.3390    6.7820   -2.3180 o         1 3JV     -0.419100
     16 NAR        -1.2600    5.3490   -0.7150 ny        1 3JV     -0.677800
     17 CAM        -2.5660    6.0790   -0.8290 c3        1 3JV      0.176100
     18 CAW        -2.6930    7.1450    0.2030 ca        1 3JV     -0.191300
     19 CAL        -2.6360    8.4910   -0.1640 ca        1 3JV     -0.083000
     20 CAV        -2.8010    9.5020    0.7890 ca        1 3JV     -0.076300
     21 CAA        -2.7610   10.9140    0.3430 c3        1 3JV     -0.076800
     22 CAH        -2.9180    6.8010    1.5410 ca        1 3JV     -0.110000
     23 CAI        -3.0720    7.7970    2.4950 ca        1 3JV     -0.117000
     24 CAY        -3.0100    9.1610    2.1440 ca        1 3JV      0.070000
     25 CAX        -3.1640   10.1580    3.1700 cc        1 3JV     -0.199400
     26 SAS        -3.4220   11.8140    2.9140 ss        1 3JV     -0.035300
     27 CAJ        -3.4910   12.0970    4.5820 cc        1 3JV      0.371300
     28 NAQ        -3.3220   11.0210    5.3530 nd        1 3JV     -0.618000
     29 CAK        -3.1370    9.9150    4.5520 cd        1 3JV      0.366200
     30 H1         -0.8720    1.6940    0.6860 hc        1 3JV      0.045478
     31 H2         -0.2840    0.4930   -0.5470 hc        1 3JV      0.045478
     32 H3         -0.7590   -0.0630    1.1110 hc        1 3JV      0.045478
     33 H4          0.6600    0.5530    3.0970 hc        1 3JV      0.045478
     34 H5          2.1960    1.4850    2.8620 hc        1 3JV      0.045478
     35 H6          0.5900    2.3080    2.6470 hc        1 3JV      0.045478
     36 H7          1.9070   -0.6830   -0.2020 hc        1 3JV      0.045478
     37 H8          2.9770   -0.2240    1.1930 hc        1 3JV      0.045478
     38 H9          1.4420   -1.1410    1.4890 hc        1 3JV      0.045478
     39 H10         1.9960    1.6070   -0.8630 hc        1 3JV      0.084200
     40 H11         2.9000    2.1790    0.6130 hc        1 3JV      0.084200
     41 H12         2.4100    3.4430   -2.6850 h1        1 3JV      0.076700
     42 H13         3.5110    3.3900   -1.2220 h1        1 3JV      0.076700
     43 H14         3.4470    5.4660   -3.2620 h1        1 3JV      0.074700
     44 H15         5.2700    5.1690   -2.0680 ho        1 3JV      0.424000
     45 H16         2.9320    7.1050   -0.8710 hc        1 3JV      0.102700
     46 H17         1.9630    7.0600   -2.4080 hc        1 3JV      0.102700
     47 H18         1.2610    5.9820    0.2630 h1        1 3JV      0.112700
     48 H19        -1.0200    5.2340    0.2890 hn        1 3JV      0.474800
     49 H20        -2.6400    6.5090   -1.8700 hx        1 3JV      0.110200
     50 H21        -3.3820    5.3100   -0.6920 hx        1 3JV      0.110200
     51 H22        -2.4700    8.7660   -1.2190 ha        1 3JV      0.146000
     52 H23        -1.9840   11.4890    0.9120 hc        1 3JV      0.065367
     53 H24        -3.7600   11.4010    0.5050 hc        1 3JV      0.065367
     54 H25        -2.5180   10.9940   -0.7460 hc        1 3JV      0.065367
     55 H26        -2.9910    5.7440    1.8410 ha        1 3JV      0.137000
     56 H27        -3.2610    7.5120    3.5420 ha        1 3JV      0.156000
     57 H28        -3.6570   13.0850    5.0260 h5        1 3JV      0.069100
     58 H29        -2.9760    8.9450    5.0380 h4        1 3JV      0.048100
     59 HAR2       -1.3540    4.4080   -1.1140 hn        1 3JV      0.474800
@<TRIPOS>BOND
     1    1    2 1   
     2    1   30 1   
     3    1   31 1   
     4    1   32 1   
     5    2    3 1   
     6    2    4 1   
     7    2    5 1   
     8    3   33 1   
     9    3   34 1   
    10    3   35 1   
    11    4   36 1   
    12    4   37 1   
    13    4   38 1   
    14    5    6 1   
    15    5   39 1   
    16    5   40 1   
    17    6    7 2   
    18    6    8 1   
    19    8    9 1   
    20    8   13 1   
    21    9   10 1   
    22    9   41 1   
    23    9   42 1   
    24   10   11 1   
    25   10   12 1   
    26   10   43 1   
    27   11   44 1   
    28   12   13 1   
    29   12   45 1   
    30   12   46 1   
    31   13   14 1   
    32   13   47 1   
    33   14   15 2   
    34   14   16 1   
    35   16   17 1   
    36   16   48 1   
    37   16   59 1   
    38   17   18 1   
    39   17   49 1   
    40   17   50 1   
    41   18   19 ar  
    42   18   22 ar  
    43   19   20 ar  
    44   19   51 1   
    45   20   21 1   
    46   20   24 ar  
    47   21   52 1   
    48   21   53 1   
    49   21   54 1   
    50   22   23 ar  
    51   22   55 1   
    52   23   24 ar  
    53   23   56 1   
    54   24   25 1   
    55   25   26 1   
    56   25   29 2   
    57   26   27 1   
    58   27   28 2   
    59   27   57 1   
    60   28   29 1   
    61   29   58 1   
@<TRIPOS>SUBSTRUCTURE
     1 3JV         1 TEMP              0 ****  ****    0 ROOT
