@<TRIPOS>MOLECULE
3JV
   58    60     1     0     0
SMALL
bcc


@<TRIPOS>ATOM
      1 CAB        -0.3610    0.9710    0.8600 c3        1 3JV     -0.094433
      2 CBC         1.1520    0.8450    0.9320 c3        1 3JV     -0.039000
      3 CAC         1.6240    1.0810    2.3590 c3        1 3JV     -0.094433
      4 CAD         1.5540   -0.5650    0.5070 c3        1 3JV     -0.094433
      5 CAN         1.8250    1.8240   -0.0320 c3        1 3JV     -0.137400
      6 CAT         1.4450    3.2790    0.1460 c         1 3JV      0.673100
      7 OAE         0.8980    3.7360    1.1710 o         1 3JV     -0.625100
      8 N           1.6970    4.1420   -0.9170 n         1 3JV     -0.466800
      9 CD2         2.5650    3.7920   -2.0240 c3        1 3JV      0.085000
     10 CG          3.2060    5.1000   -2.5500 c3        1 3JV      0.129100
     11 OD1         4.6060    4.9600   -2.3780 oh        1 3JV     -0.599800
     12 CB          2.6230    6.2340   -1.6980 c3        1 3JV     -0.126400
     13 CA          1.5800    5.5880   -0.7650 c3        1 3JV      0.036700
     14 C           0.1570    6.1080   -1.0840 c         1 3JV      0.651100
     15 O          -0.0300    6.9840   -1.9540 o         1 3JV     -0.627100
     16 NAR        -0.8820    5.5600   -0.3670 n         1 3JV     -0.548900
     17 CAM        -2.2320    6.0390   -0.4940 c3        1 3JV      0.132300
     18 CAW        -2.5980    7.1550    0.4450 ca        1 3JV     -0.113300
     19 CAL        -2.1140    8.4430    0.2130 ca        1 3JV     -0.110000
     20 CAV        -2.4610    9.5070    1.0520 ca        1 3JV     -0.076300
     21 CAA        -1.9260   10.8550    0.7490 c3        1 3JV     -0.068800
     22 CAH        -3.4410    6.9260    1.5350 ca        1 3JV     -0.119000
     23 CAI        -3.7920    7.9760    2.3760 ca        1 3JV     -0.116000
     24 CAY        -3.3100    9.2790    2.1560 ca        1 3JV      0.004000
     25 CAX        -3.6950   10.3350    3.0590 cc        1 3JV     -0.130400
     26 SAS        -3.3360   11.9820    2.8520 ss        1 3JV     -0.075300
     27 CAJ        -4.1510   12.3760    4.2880 cc        1 3JV      0.341300
     28 NAQ        -4.6850   11.3460    4.9410 nd        1 3JV     -0.627000
     29 CAK        -4.4260   10.1820    4.2420 cd        1 3JV      0.328200
     30 H1         -0.7150    0.8150   -0.1870 hc        1 3JV      0.040589
     31 H2         -0.8390    0.2050    1.5160 hc        1 3JV      0.040589
     32 H3         -0.6810    1.9850    1.2030 hc        1 3JV      0.040589
     33 H4          2.7330    0.9730    2.4240 hc        1 3JV      0.040589
     34 H5          1.1530    0.3340    3.0430 hc        1 3JV      0.040589
     35 H6          1.3400    2.1070    2.6980 hc        1 3JV      0.040589
     36 H7          2.6640   -0.6770    0.5270 hc        1 3JV      0.040589
     37 H8          1.1080   -1.3120    1.2060 hc        1 3JV      0.040589
     38 H9          1.1890   -0.7820   -0.5250 hc        1 3JV      0.040589
     39 H10         2.9390    1.7530    0.1040 hc        1 3JV      0.068700
     40 H11         1.5820    1.5040   -1.0820 hc        1 3JV      0.068700
     41 H12         1.9520    3.3130   -2.8360 h1        1 3JV      0.064200
     42 H13         3.3720    3.0750   -1.7060 h1        1 3JV      0.064200
     43 H14         2.9730    5.2450   -3.6390 h1        1 3JV      0.056700
     44 H15         5.0080    5.7870   -2.6710 ho        1 3JV      0.408000
     45 H16         2.1520    7.0170   -2.3440 hc        1 3JV      0.081200
     46 H17         3.4270    6.7140   -1.0850 hc        1 3JV      0.081200
     47 H18         1.7880    5.8720    0.3110 h1        1 3JV      0.088700
     48 H19        -0.6690    5.0010    0.4320 hn        1 3JV      0.337500
     49 H20        -2.3840    6.4020   -1.5530 h1        1 3JV      0.067200
     50 H21        -2.9190    5.1620   -0.3150 h1        1 3JV      0.067200
     51 H22        -1.4470    8.6150   -0.6500 ha        1 3JV      0.157000
     52 H23        -2.7610   11.5660    0.5150 hc        1 3JV      0.054367
     53 H24        -1.3400   11.2550    1.6180 hc        1 3JV      0.054367
     54 H25        -1.2440   10.8290   -0.1380 hc        1 3JV      0.054367
     55 H26        -3.8310    5.9150    1.7310 ha        1 3JV      0.134000
     56 H27        -4.4630    7.7770    3.2260 ha        1 3JV      0.134000
     57 H28        -4.2400   13.3960    4.6720 h5        1 3JV      0.052100
     58 H29        -4.7980    9.2380    4.6550 h4        1 3JV      0.044100
@<TRIPOS>BOND
     1    1    2 1   
     2    1   30 1   
     3    1   31 1   
     4    1   32 1   
     5    2    3 1   
     6    2    4 1   
     7    2    5 1   
     8    3   33 1   
     9    3   34 1   
    10    3   35 1   
    11    4   36 1   
    12    4   37 1   
    13    4   38 1   
    14    5    6 1   
    15    5   39 1   
    16    5   40 1   
    17    6    7 2   
    18    6    8 1   
    19    8    9 1   
    20    8   13 1   
    21    9   10 1   
    22    9   41 1   
    23    9   42 1   
    24   10   11 1   
    25   10   12 1   
    26   10   43 1   
    27   11   44 1   
    28   12   13 1   
    29   12   45 1   
    30   12   46 1   
    31   13   14 1   
    32   13   47 1   
    33   14   15 2   
    34   14   16 1   
    35   16   17 1   
    36   16   48 1   
    37   17   18 1   
    38   17   49 1   
    39   17   50 1   
    40   18   19 ar  
    41   18   22 ar  
    42   19   20 ar  
    43   19   51 1   
    44   20   21 1   
    45   20   24 ar  
    46   21   52 1   
    47   21   53 1   
    48   21   54 1   
    49   22   23 ar  
    50   22   55 1   
    51   23   24 ar  
    52   23   56 1   
    53   24   25 1   
    54   25   26 1   
    55   25   29 2   
    56   26   27 1   
    57   27   28 2   
    58   27   57 1   
    59   28   29 1   
    60   29   58 1   
@<TRIPOS>SUBSTRUCTURE
     1 3JV         1 TEMP              0 ****  ****    0 ROOT
