@<TRIPOS>MOLECULE
3JW
   43    46     1     0     0
SMALL
bcc


@<TRIPOS>ATOM
      1 C4          0.5380   -0.3080    0.1360 ca        1 3JW      0.586800
      2 C5          1.9400   -0.5000    0.1500 ca        1 3JW     -0.309400
      3 C6          2.5750   -0.5920    1.4670 ca        1 3JW      0.443800
      4 N1          1.8830   -0.5090    2.6440 nb        1 3JW     -0.703000
      5 N3         -0.1530   -0.2400    1.3020 nb        1 3JW     -0.735000
      6 CAA        -6.1880    4.7490   -3.4170 c3        1 3JW     -0.077100
      7 CAB        -5.1860    3.6350   -3.2570 c3        1 3JW     -0.314600
      8 OAY        -6.9250    1.7930   -2.9830 o         1 3JW     -0.646300
      9 OAZ        -6.1080    2.2690   -5.1950 o         1 3JW     -0.646300
     10 NAD        -4.6320    1.1080   -3.5830 n3        1 3JW     -0.867500
     11 CAJ        -4.3450    0.1770   -2.5010 cy        1 3JW      0.247300
     12 CAE        -3.4880    0.7210   -4.4020 cy        1 3JW      0.247300
     13 CAF        -3.0910   -0.3520   -3.3110 cy        1 3JW      0.044700
     14 CAG        -3.3110   -1.7880   -3.7910 c3        1 3JW     -0.022300
     15 CAH        -2.2950   -2.2270   -4.7190 c1        1 3JW      0.203700
     16 NAI        -1.4810   -2.5930   -5.4640 n1        1 3JW     -0.340800
     17 NAK        -1.8160   -0.1480   -2.6580 na        1 3JW      0.081400
     18 CAL        -1.5610   -0.4270   -1.3100 cc        1 3JW     -0.081300
     19 NAO        -0.7000    0.2420   -3.3120 nc        1 3JW     -0.503800
     20 CAN         0.3030    0.2390   -2.4050 cd        1 3JW      0.335200
     21 CAM        -0.1900   -0.1850   -1.1070 cd        1 3JW     -0.328800
     22 C2          0.5540   -0.3430    2.4660 ca        1 3JW      0.646900
     23 CAR         2.9940   -0.6590   -0.8160 cc        1 3JW     -0.160200
     24 CAS         4.1830   -0.8240   -0.1100 cd        1 3JW     -0.106100
     25 NAT         3.9460   -0.7800    1.2680 na        1 3JW     -0.283100
     26 H1         -6.4690    4.8710   -4.4930 hc        1 3JW      0.055033
     27 H2         -7.1120    4.5320   -2.8240 hc        1 3JW      0.055033
     28 H3         -5.7590    5.7140   -3.0550 hc        1 3JW      0.055033
     29 H4         -4.2530    3.9140   -3.8120 h1        1 3JW      0.108700
     30 H5         -4.8880    3.5780   -2.1770 h1        1 3JW      0.108700
     31 H6         -5.1410   -0.5930   -2.3510 h1        1 3JW      0.077700
     32 H7         -4.1060    0.6800   -1.5310 h1        1 3JW      0.077700
     33 H8         -3.7740    0.2710   -5.3840 h1        1 3JW      0.077700
     34 H9         -2.7520    1.5480   -4.5550 h1        1 3JW      0.077700
     35 H10        -3.3270   -2.4850   -2.9060 hc        1 3JW      0.090200
     36 H11        -4.3180   -1.8450   -4.2930 hc        1 3JW      0.090200
     37 H12        -2.3330   -0.7540   -0.6130 h4        1 3JW      0.192000
     38 H13         1.3190    0.5420   -2.6660 h4        1 3JW      0.054100
     39 H14        -0.0500   -0.2770    3.3960 h5        1 3JW      0.052100
     40 H15         2.8810   -0.6690   -1.8970 ha        1 3JW      0.163000
     41 H16         5.1980   -0.9720   -0.4860 h4        1 3JW      0.173000
     42 H17         4.6190   -0.8790    1.9820 hn        1 3JW      0.313700
     43 SAC        -5.8430    2.1470   -3.8170 s6        1 3JW      1.465900
@<TRIPOS>BOND
     1    1    2 ar  
     2    1    5 ar  
     3    1   21 1   
     4    2    3 ar  
     5    2   23 1   
     6    3    4 ar  
     7    3   25 1   
     8    4   22 ar  
     9    5   22 ar  
    10    6    7 1   
    11    6   26 1   
    12    6   27 1   
    13    6   28 1   
    14    7   29 1   
    15    7   30 1   
    16    7   43 1   
    17    8   43 2   
    18    9   43 2   
    19   10   11 1   
    20   10   12 1   
    21   10   43 1   
    22   11   13 1   
    23   11   31 1   
    24   11   32 1   
    25   12   13 1   
    26   12   33 1   
    27   12   34 1   
    28   13   14 1   
    29   13   17 1   
    30   14   15 1   
    31   14   35 1   
    32   14   36 1   
    33   15   16 3   
    34   17   18 1   
    35   17   19 1   
    36   18   21 2   
    37   18   37 1   
    38   19   20 2   
    39   20   21 1   
    40   20   38 1   
    41   22   39 1   
    42   23   24 2   
    43   23   40 1   
    44   24   25 1   
    45   24   41 1   
    46   25   42 1   
@<TRIPOS>SUBSTRUCTURE
     1 3JW         1 TEMP              0 ****  ****    0 ROOT
