@<TRIPOS>MOLECULE
3JW
   43    46     1     0     0
SMALL
bcc


@<TRIPOS>ATOM
      1 C4          0.5630   -0.2640    0.1930 ca        1 3JW      0.586800
      2 C5          1.9600   -0.4880    0.2120 ca        1 3JW     -0.309400
      3 C6          2.5970   -0.5410    1.5300 ca        1 3JW      0.443800
      4 N1          1.9100   -0.3960    2.7040 nb        1 3JW     -0.703000
      5 N3         -0.1230   -0.1330    1.3570 nb        1 3JW     -0.735000
      6 CAA        -6.0490    4.8050   -3.5580 c3        1 3JW     -0.077100
      7 CAB        -5.0740    3.6740   -3.3520 c3        1 3JW     -0.314600
      8 OAY        -6.8560    1.8890   -2.9960 o         1 3JW     -0.646300
      9 OAZ        -6.0360    2.2500   -5.2280 o         1 3JW     -0.646300
     10 NAD        -4.5830    1.1230   -3.5710 n3        1 3JW     -0.867500
     11 CAJ        -4.3150    0.2320   -2.4520 cy        1 3JW      0.247300
     12 CAE        -3.4510    0.6750   -4.3760 cy        1 3JW      0.247300
     13 CAF        -3.0770   -0.3610   -3.2420 cy        1 3JW      0.044700
     14 CAG        -3.3320   -1.8100   -3.6610 c3        1 3JW     -0.022300
     15 CAH        -2.3300   -2.3120   -4.5720 c1        1 3JW      0.203700
     16 NAI        -1.5280   -2.7290   -5.3030 n1        1 3JW     -0.340800
     17 NAK        -1.7950   -0.1620   -2.6010 na        1 3JW      0.081400
     18 CAL        -1.5430   -0.3920   -1.2440 cc        1 3JW     -0.081300
     19 NAO        -0.6730    0.1760   -3.2720 nc        1 3JW     -0.503800
     20 CAN         0.3330    0.1860   -2.3680 cd        1 3JW      0.335200
     21 CAM        -0.1660   -0.1740   -1.0530 cd        1 3JW     -0.328800
     22 C2          0.5850   -0.2060    2.5220 ca        1 3JW      0.646900
     23 CAR         3.0080   -0.7100   -0.7500 cc        1 3JW     -0.160200
     24 CAS         4.1940   -0.8740   -0.0400 cd        1 3JW     -0.106100
     25 NAT         3.9620   -0.7700    1.3360 na        1 3JW     -0.283100
     26 H1         -5.5950    5.7740   -3.2390 hc        1 3JW      0.055033
     27 H2         -6.9760    4.6370   -2.9540 hc        1 3JW      0.055033
     28 H3         -6.3300    4.8880   -4.6370 hc        1 3JW      0.055033
     29 H4         -4.1360    3.9070   -3.9220 h1        1 3JW      0.108700
     30 H5         -4.7740    3.6560   -2.2720 h1        1 3JW      0.108700
     31 H6         -4.0610    0.7690   -1.5050 h1        1 3JW      0.077700
     32 H7         -5.1290   -0.5120   -2.2680 h1        1 3JW      0.077700
     33 H8         -2.6950    1.4760   -4.5650 h1        1 3JW      0.077700
     34 H9         -3.7510    0.1900   -5.3380 h1        1 3JW      0.077700
     35 H10        -4.3420   -1.8630   -4.1580 hc        1 3JW      0.090200
     36 H11        -3.3620   -2.4690   -2.7480 hc        1 3JW      0.090200
     37 H12        -2.3200   -0.6720   -0.5320 h4        1 3JW      0.192000
     38 H13         1.3550    0.4540   -2.6420 h4        1 3JW      0.054100
     39 H14        -0.0150   -0.0890    3.4500 h5        1 3JW      0.052100
     40 H15         2.8910   -0.7610   -1.8290 ha        1 3JW      0.163000
     41 H16         5.2040   -1.0600   -0.4120 h4        1 3JW      0.173000
     42 H17         4.6350   -0.8560    2.0520 hn        1 3JW      0.313700
     43 SAC        -5.7690    2.1800   -3.8470 s6        1 3JW      1.465900
@<TRIPOS>BOND
     1    1    2 ar  
     2    1    5 ar  
     3    1   21 1   
     4    2    3 ar  
     5    2   23 1   
     6    3    4 ar  
     7    3   25 1   
     8    4   22 ar  
     9    5   22 ar  
    10    6    7 1   
    11    6   26 1   
    12    6   27 1   
    13    6   28 1   
    14    7   29 1   
    15    7   30 1   
    16    7   43 1   
    17    8   43 2   
    18    9   43 2   
    19   10   11 1   
    20   10   12 1   
    21   10   43 1   
    22   11   13 1   
    23   11   31 1   
    24   11   32 1   
    25   12   13 1   
    26   12   33 1   
    27   12   34 1   
    28   13   14 1   
    29   13   17 1   
    30   14   15 1   
    31   14   35 1   
    32   14   36 1   
    33   15   16 3   
    34   17   18 1   
    35   17   19 1   
    36   18   21 2   
    37   18   37 1   
    38   19   20 2   
    39   20   21 1   
    40   20   38 1   
    41   22   39 1   
    42   23   24 2   
    43   23   40 1   
    44   24   25 1   
    45   24   41 1   
    46   25   42 1   
@<TRIPOS>SUBSTRUCTURE
     1 3JW         1 TEMP              0 ****  ****    0 ROOT
