@<TRIPOS>MOLECULE
3JW
   43    46     1     0     0
SMALL
bcc


@<TRIPOS>ATOM
      1 C4          0.6060   -0.2850    0.1450 ca        1 3JW      0.586800
      2 C5          2.0100   -0.4580    0.1220 ca        1 3JW     -0.309400
      3 C6          2.6810   -0.5370    1.4220 ca        1 3JW      0.443800
      4 N1          2.0200   -0.4620    2.6170 nb        1 3JW     -0.703000
      5 N3         -0.0550   -0.2240    1.3290 nb        1 3JW     -0.735000
      6 CAA        -6.2810    4.6710   -3.2390 c3        1 3JW     -0.077100
      7 CAB        -5.2600    3.5720   -3.1030 c3        1 3JW     -0.314600
      8 OAY        -6.9660    1.7080   -2.7770 o         1 3JW     -0.646300
      9 OAZ        -6.2160    2.1870   -5.0110 o         1 3JW     -0.646300
     10 NAD        -4.6810    1.0510   -3.4360 n3        1 3JW     -0.867500
     11 CAJ        -4.3530    0.1280   -2.3610 cy        1 3JW      0.247300
     12 CAE        -3.5550    0.6780   -4.2850 cy        1 3JW      0.247300
     13 CAF        -3.1140   -0.3870   -3.2020 cy        1 3JW      0.044700
     14 CAG        -3.3260   -1.8270   -3.6730 c3        1 3JW     -0.022300
     15 CAH        -2.3300   -2.2550   -4.6270 c1        1 3JW      0.203700
     16 NAI        -1.5320   -2.6120   -5.3930 n1        1 3JW     -0.340800
     17 NAK        -1.8250   -0.1640   -2.5850 na        1 3JW      0.081400
     18 CAL        -1.5300   -0.4360   -1.2440 cc        1 3JW     -0.081300
     19 NAO        -0.7320    0.2400   -3.2690 nc        1 3JW     -0.503800
     20 CAN         0.2950    0.2540   -2.3900 cd        1 3JW      0.335200
     21 CAM        -0.1570   -0.1750   -1.0780 cd        1 3JW     -0.328800
     22 C2          0.6850   -0.3150    2.4740 ca        1 3JW      0.646900
     23 CAR         3.0400   -0.6040   -0.8720 cc        1 3JW     -0.160200
     24 CAS         4.2490   -0.7510   -0.1980 cd        1 3JW     -0.106100
     25 NAT         4.0480   -0.7070    1.1860 na        1 3JW     -0.283100
     26 H1         -7.1850    4.4450   -2.6200 hc        1 3JW      0.055033
     27 H2         -6.5920    4.7860   -4.3070 hc        1 3JW      0.055033
     28 H3         -5.8550    5.6430   -2.8920 hc        1 3JW      0.055033
     29 H4         -4.9320    3.5220   -2.0310 h1        1 3JW      0.108700
     30 H5         -4.3460    3.8610   -3.6840 h1        1 3JW      0.108700
     31 H6         -5.1340   -0.6530   -2.1870 h1        1 3JW      0.077700
     32 H7         -4.0950    0.6360   -1.3990 h1        1 3JW      0.077700
     33 H8         -3.8610    0.2200   -5.2580 h1        1 3JW      0.077700
     34 H9         -2.8340    1.5140   -4.4600 h1        1 3JW      0.077700
     35 H10        -3.3090   -2.5220   -2.7860 hc        1 3JW      0.090200
     36 H11        -4.3460   -1.8990   -4.1470 hc        1 3JW      0.090200
     37 H12        -2.2780   -0.7730   -0.5250 h4        1 3JW      0.192000
     38 H13         1.2990    0.5700   -2.6780 h4        1 3JW      0.054100
     39 H14         0.1040   -0.2550    3.4190 h5        1 3JW      0.052100
     40 H15         2.8980   -0.6180   -1.9490 ha        1 3JW      0.163000
     41 H16         5.2560   -0.8850   -0.6010 h4        1 3JW      0.173000
     42 H17         4.7420   -0.7960    1.8820 hn        1 3JW      0.313700
     43 SAC        -5.9130    2.0730   -3.6400 s6        1 3JW      1.465900
@<TRIPOS>BOND
     1    1    2 ar  
     2    1    5 ar  
     3    1   21 1   
     4    2    3 ar  
     5    2   23 1   
     6    3    4 ar  
     7    3   25 1   
     8    4   22 ar  
     9    5   22 ar  
    10    6    7 1   
    11    6   26 1   
    12    6   27 1   
    13    6   28 1   
    14    7   29 1   
    15    7   30 1   
    16    7   43 1   
    17    8   43 2   
    18    9   43 2   
    19   10   11 1   
    20   10   12 1   
    21   10   43 1   
    22   11   13 1   
    23   11   31 1   
    24   11   32 1   
    25   12   13 1   
    26   12   33 1   
    27   12   34 1   
    28   13   14 1   
    29   13   17 1   
    30   14   15 1   
    31   14   35 1   
    32   14   36 1   
    33   15   16 3   
    34   17   18 1   
    35   17   19 1   
    36   18   21 2   
    37   18   37 1   
    38   19   20 2   
    39   20   21 1   
    40   20   38 1   
    41   22   39 1   
    42   23   24 2   
    43   23   40 1   
    44   24   25 1   
    45   24   41 1   
    46   25   42 1   
@<TRIPOS>SUBSTRUCTURE
     1 3JW         1 TEMP              0 ****  ****    0 ROOT
