@<TRIPOS>MOLECULE
3JX
   70    74     1     0     0
SMALL
bcc


@<TRIPOS>ATOM
      1 C01         0.5800   -0.2610    0.8470 ca        1 3JX     -0.224600
      2 C02         1.8790   -0.1500    1.3900 ca        1 3JX     -0.068000
      3 C03         2.0900   -0.2540    2.7520 ca        1 3JX     -0.124000
      4 C04         0.9720   -0.4250    3.5870 ca        1 3JX      0.004800
      5 C05        -0.3380   -0.6750    3.0240 ca        1 3JX     -0.109800
      6 C06        -0.5180   -0.6020    1.6490 ca        1 3JX     -0.011000
      7 N07         0.8720   -0.3950    4.9860 na        1 3JX     -0.059400
      8 C08        -0.4980   -0.6040    5.3100 cc        1 3JX     -0.058300
      9 C09        -1.2410   -0.8290    4.1500 cd        1 3JX     -0.117400
     10 C10        -2.6650   -1.1590    4.0680 c3        1 3JX     -0.027900
     11 C11        -0.9970   -0.6150    6.6980 c3        1 3JX     -0.044900
     12 C12         1.7720    0.3940    5.8050 c3        1 3JX      0.083600
     13 C13         2.4160    1.5310    5.0630 ca        1 3JX     -0.134300
     14 C14         0.3200    0.0730   -0.5570 c         1 3JX      0.583700
     15 O15        -0.4880   -0.4710   -1.3100 o         1 3JX     -0.496100
     16 N16         1.0720    1.2610   -1.0540 ny        1 3JX     -0.710800
     17 C17         0.8840    1.5960   -2.5020 c3        1 3JX      0.187800
     18 C18         1.9330    0.9380   -3.3630 ca        1 3JX     -0.096300
     19 C19         0.9180    3.1110   -2.7110 c3        1 3JX     -0.115100
     20 C20         1.6310    2.4640    4.3760 ca        1 3JX     -0.122000
     21 C21         2.2220    3.3840    3.5140 ca        1 3JX     -0.109000
     22 C22         3.6150    3.4110    3.3630 cp        1 3JX     -0.016000
     23 C23         4.4050    2.5510    4.1380 ca        1 3JX     -0.109000
     24 C24         3.8100    1.6070    4.9720 ca        1 3JX     -0.122000
     25 C25         4.2420    4.3210    2.4010 cp        1 3JX     -0.030000
     26 C26         5.1640    5.2660    2.8760 ca        1 3JX     -0.122000
     27 C27         5.7820    6.1570    2.0040 ca        1 3JX     -0.136000
     28 C28         5.4930    6.1070    0.6400 ca        1 3JX     -0.128000
     29 C29         4.5890    5.1640    0.1580 ca        1 3JX     -0.114000
     30 C30         3.9570    4.2670    1.0270 ca        1 3JX     -0.077600
     31 C31         3.2930    1.1730   -3.1350 ca        1 3JX     -0.122000
     32 C32         4.2530    0.5900   -3.9610 ca        1 3JX     -0.070500
     33 C33         3.8370   -0.2310   -5.0210 ca        1 3JX     -0.163200
     34 C34         2.4740   -0.4760   -5.2530 ca        1 3JX     -0.070500
     35 C35         1.5290    0.1110   -4.4170 ca        1 3JX     -0.122000
     36 N36         4.8540   -0.8540   -5.9120 no        1 3JX      0.311200
     37 O37         4.4820   -1.5570   -6.8140 o         1 3JX     -0.203000
     38 O38         6.0180   -0.6370   -5.7070 o         1 3JX     -0.203000
     39 C39         3.0140    3.2730    0.4230 c         1 3JX      0.922200
     40 O40         1.7600    3.4890    0.4040 o         1 3JX     -0.858800
     41 O41         3.4700    2.2170   -0.1310 o         1 3JX     -0.858800
     42 H1          2.7510    0.0570    0.7440 ha        1 3JX      0.168000
     43 H2          3.1000   -0.1450    3.1750 ha        1 3JX      0.164000
     44 H3         -1.5100   -0.7620    1.1990 ha        1 3JX      0.150000
     45 H4         -2.8650   -2.1550    4.5420 hc        1 3JX      0.044033
     46 H5         -2.9990   -1.2040    3.0020 hc        1 3JX      0.044033
     47 H6         -3.2820   -0.3920    4.6010 hc        1 3JX      0.044033
     48 H7         -2.0330   -1.0370    6.7140 hc        1 3JX      0.056367
     49 H8         -1.0300    0.4240    7.1140 hc        1 3JX      0.056367
     50 H9         -0.3450   -1.2400    7.3590 hc        1 3JX      0.056367
     51 H10         1.1960    0.7950    6.6880 h1        1 3JX      0.065700
     52 H11         2.5680   -0.3050    6.1960 h1        1 3JX      0.065700
     53 H12         0.8190    2.1030   -0.4640 hn        1 3JX      0.513800
     54 H13        -0.1390    1.2120   -2.8060 hx        1 3JX      0.101700
     55 H14         0.9020    3.3230   -3.8060 hc        1 3JX      0.071367
     56 H15         0.0310    3.5910   -2.2320 hc        1 3JX      0.071367
     57 H16         1.8430    3.5550   -2.2610 hc        1 3JX      0.071367
     58 H17         0.5350    2.4450    4.4810 ha        1 3JX      0.133000
     59 H18         1.5980    4.0590    2.9040 ha        1 3JX      0.154500
     60 H19         5.5020    2.6010    4.0580 ha        1 3JX      0.154500
     61 H20         4.4400    0.9060    5.5400 ha        1 3JX      0.133000
     62 H21         5.3920    5.3010    3.9520 ha        1 3JX      0.131000
     63 H22         6.4980    6.8970    2.3900 ha        1 3JX      0.129000
     64 H23         5.9800    6.8080   -0.0530 ha        1 3JX      0.129000
     65 H24         4.3670    5.1150   -0.9190 ha        1 3JX      0.131000
     66 H25         3.6240    1.8200   -2.2960 ha        1 3JX      0.177500
     67 H26         5.3270    0.7730   -3.7800 ha        1 3JX      0.178000
     68 H27         2.1580   -1.1270   -6.0860 ha        1 3JX      0.178000
     69 H28         0.4590   -0.0860   -4.5910 ha        1 3JX      0.177500
     70 H162        2.1020    1.1500   -0.8520 hn        1 3JX      0.513800
@<TRIPOS>BOND
     1    1    2 ar  
     2    1    6 ar  
     3    1   14 1   
     4    2    3 ar  
     5    2   42 1   
     6    3    4 ar  
     7    3   43 1   
     8    4    5 ar  
     9    4    7 1   
    10    5    6 ar  
    11    5    9 1   
    12    6   44 1   
    13    7    8 1   
    14    7   12 1   
    15    8    9 2   
    16    8   11 1   
    17    9   10 1   
    18   10   45 1   
    19   10   46 1   
    20   10   47 1   
    21   11   48 1   
    22   11   49 1   
    23   11   50 1   
    24   12   13 1   
    25   12   51 1   
    26   12   52 1   
    27   13   20 ar  
    28   13   24 ar  
    29   14   15 2   
    30   14   16 1   
    31   16   17 1   
    32   16   53 1   
    33   16   70 1   
    34   17   18 1   
    35   17   19 1   
    36   17   54 1   
    37   18   31 ar  
    38   18   35 ar  
    39   19   55 1   
    40   19   56 1   
    41   19   57 1   
    42   20   21 ar  
    43   20   58 1   
    44   21   22 ar  
    45   21   59 1   
    46   22   23 ar  
    47   22   25 1   
    48   23   24 ar  
    49   23   60 1   
    50   24   61 1   
    51   25   26 ar  
    52   25   30 ar  
    53   26   27 ar  
    54   26   62 1   
    55   27   28 ar  
    56   27   63 1   
    57   28   29 ar  
    58   28   64 1   
    59   29   30 ar  
    60   29   65 1   
    61   30   39 1   
    62   31   32 ar  
    63   31   66 1   
    64   32   33 ar  
    65   32   67 1   
    66   33   34 ar  
    67   33   36 1   
    68   34   35 ar  
    69   34   68 1   
    70   35   69 1   
    71   36   37 1   
    72   36   38 1   
    73   39   40 1   
    74   39   41 1   
@<TRIPOS>SUBSTRUCTURE
     1 3JX         1 TEMP              0 ****  ****    0 ROOT
