@<TRIPOS>MOLECULE
3JX
   70    74     1     0     0
SMALL
bcc


@<TRIPOS>ATOM
      1 C01         0.5120   -0.1980    0.8280 ca        1 3JX     -0.224600
      2 C02         1.8230   -0.1530    1.3510 ca        1 3JX     -0.068000
      3 C03         2.0510   -0.3010    2.7070 ca        1 3JX     -0.124000
      4 C04         0.9400   -0.4500    3.5550 ca        1 3JX      0.004800
      5 C05        -0.3870   -0.6330    3.0080 ca        1 3JX     -0.109800
      6 C06        -0.5860   -0.5160    1.6390 ca        1 3JX     -0.011000
      7 N07         0.8640   -0.4530    4.9560 na        1 3JX     -0.059400
      8 C08        -0.5080   -0.6160    5.2980 cc        1 3JX     -0.058300
      9 C09        -1.2780   -0.7810    4.1450 cd        1 3JX     -0.117400
     10 C10        -2.7140   -1.0520    4.0790 c3        1 3JX     -0.027900
     11 C11        -0.9850   -0.6450    6.6930 c3        1 3JX     -0.044900
     12 C12         1.8080    0.2770    5.7800 c3        1 3JX      0.083600
     13 C13         2.4850    1.4080    5.0560 ca        1 3JX     -0.134300
     14 C14         0.2430    0.1830   -0.5630 c         1 3JX      0.583700
     15 O15        -0.5970   -0.3090   -1.3160 o         1 3JX     -0.496100
     16 N16         1.0340    1.3530   -1.0420 n4        1 3JX     -0.710800
     17 C17         0.8380    1.7330   -2.4770 c3        1 3JX      0.187800
     18 C18         1.8450    1.0570   -3.3720 ca        1 3JX     -0.096300
     19 C19         0.9290    3.2500   -2.6470 c3        1 3JX     -0.115100
     20 C20         1.7260    2.3890    4.4080 ca        1 3JX     -0.122000
     21 C21         2.3400    3.3080    3.5600 ca        1 3JX     -0.109000
     22 C22         3.7300    3.2840    3.3860 cp        1 3JX     -0.016000
     23 C23         4.4980    2.3730    4.1250 ca        1 3JX     -0.109000
     24 C24         3.8790    1.4320    4.9440 ca        1 3JX     -0.122000
     25 C25         4.3770    4.1930    2.4370 cp        1 3JX     -0.030000
     26 C26         5.3440    5.0890    2.9210 ca        1 3JX     -0.122000
     27 C27         5.9830    5.9770    2.0620 ca        1 3JX     -0.136000
     28 C28         5.6700    5.9750    0.7030 ca        1 3JX     -0.128000
     29 C29         4.7230    5.0820    0.2110 ca        1 3JX     -0.114000
     30 C30         4.0690    4.1870    1.0680 ca        1 3JX     -0.077600
     31 C31         3.2170    1.2320   -3.1610 ca        1 3JX     -0.122000
     32 C32         4.1400    0.6320   -4.0170 ca        1 3JX     -0.070500
     33 C33         3.6750   -0.1430   -5.0910 ca        1 3JX     -0.163200
     34 C34         2.3000   -0.3280   -5.3060 ca        1 3JX     -0.070500
     35 C35         1.3920    0.2740   -4.4390 ca        1 3JX     -0.122000
     36 N36         4.6520   -0.7830   -6.0140 no        1 3JX      0.311200
     37 O37         4.2390   -1.4460   -6.9270 o         1 3JX     -0.203000
     38 O38         5.8270   -0.6170   -5.8230 o         1 3JX     -0.203000
     39 C39         3.0780    3.2470    0.4540 c         1 3JX      0.922200
     40 O40         3.4830    2.1890   -0.1350 o         1 3JX     -0.858800
     41 O41         1.8340    3.5130    0.4620 o         1 3JX     -0.858800
     42 H1          2.6920    0.0370    0.6960 ha        1 3JX      0.168000
     43 H2          3.0720   -0.2440    3.1150 ha        1 3JX      0.164000
     44 H3         -1.5910   -0.6250    1.2020 ha        1 3JX      0.150000
     45 H4         -3.0680   -1.0540    3.0180 hc        1 3JX      0.044033
     46 H5         -2.9470   -2.0510    4.5290 hc        1 3JX      0.044033
     47 H6         -3.2920   -0.2760    4.6420 hc        1 3JX      0.044033
     48 H7         -2.0360   -1.0260    6.7150 hc        1 3JX      0.056367
     49 H8         -0.3480   -1.3120    7.3270 hc        1 3JX      0.056367
     50 H9         -0.9700    0.3840    7.1360 hc        1 3JX      0.056367
     51 H10         1.2620    0.6780    6.6830 h1        1 3JX      0.065700
     52 H11         2.5820   -0.4630    6.1390 h1        1 3JX      0.065700
     53 H12         0.8240    2.1890   -0.4260 hn        1 3JX      0.513800
     54 H13        -0.2050    1.3990   -2.7740 hx        1 3JX      0.101700
     55 H14         1.8780    3.6460   -2.2020 hc        1 3JX      0.071367
     56 H15         0.0700    3.7530   -2.1420 hc        1 3JX      0.071367
     57 H16         0.9040    3.4920   -3.7360 hc        1 3JX      0.071367
     58 H17         0.6330    2.4100    4.5300 ha        1 3JX      0.133000
     59 H18         1.7340    4.0230    2.9780 ha        1 3JX      0.154500
     60 H19         5.5940    2.3810    4.0280 ha        1 3JX      0.154500
     61 H20         4.4890    0.6920    5.4830 ha        1 3JX      0.133000
     62 H21         5.5900    5.0870    3.9940 ha        1 3JX      0.131000
     63 H22         6.7340    6.6780    2.4550 ha        1 3JX      0.129000
     64 H23         6.1740    6.6750    0.0200 ha        1 3JX      0.129000
     65 H24         4.4810    5.0700   -0.8620 ha        1 3JX      0.131000
     66 H25         3.5870    1.8430   -2.3110 ha        1 3JX      0.177500
     67 H26         5.2230    0.7680   -3.8500 ha        1 3JX      0.178000
     68 H27         1.9440   -0.9440   -6.1500 ha        1 3JX      0.178000
     69 H28         0.3120    0.1250   -4.6010 ha        1 3JX      0.177500
     70 H162        2.0620    1.1960   -0.8600 hn        1 3JX      0.513800
@<TRIPOS>BOND
     1    1    2 ar  
     2    1    6 ar  
     3    1   14 1   
     4    2    3 ar  
     5    2   42 1   
     6    3    4 ar  
     7    3   43 1   
     8    4    5 ar  
     9    4    7 1   
    10    5    6 ar  
    11    5    9 1   
    12    6   44 1   
    13    7    8 1   
    14    7   12 1   
    15    8    9 2   
    16    8   11 1   
    17    9   10 1   
    18   10   45 1   
    19   10   46 1   
    20   10   47 1   
    21   11   48 1   
    22   11   49 1   
    23   11   50 1   
    24   12   13 1   
    25   12   51 1   
    26   12   52 1   
    27   13   20 ar  
    28   13   24 ar  
    29   14   15 2   
    30   14   16 1   
    31   16   17 1   
    32   16   53 1   
    33   16   70 1   
    34   17   18 1   
    35   17   19 1   
    36   17   54 1   
    37   18   31 ar  
    38   18   35 ar  
    39   19   55 1   
    40   19   56 1   
    41   19   57 1   
    42   20   21 ar  
    43   20   58 1   
    44   21   22 ar  
    45   21   59 1   
    46   22   23 ar  
    47   22   25 1   
    48   23   24 ar  
    49   23   60 1   
    50   24   61 1   
    51   25   26 ar  
    52   25   30 ar  
    53   26   27 ar  
    54   26   62 1   
    55   27   28 ar  
    56   27   63 1   
    57   28   29 ar  
    58   28   64 1   
    59   29   30 ar  
    60   29   65 1   
    61   30   39 1   
    62   31   32 ar  
    63   31   66 1   
    64   32   33 ar  
    65   32   67 1   
    66   33   34 ar  
    67   33   36 1   
    68   34   35 ar  
    69   34   68 1   
    70   35   69 1   
    71   36   37 1   
    72   36   38 1   
    73   39   40 1   
    74   39   41 1   
@<TRIPOS>SUBSTRUCTURE
     1 3JX         1 TEMP              0 ****  ****    0 ROOT
