@<TRIPOS>MOLECULE
3JY
   41    41     1     0     0
SMALL
bcc


@<TRIPOS>ATOM
      1 N21         0.6700    0.6240    0.3350 n         1 3JY     -0.380000
      2 N6         -1.3370    0.7170    1.6950 n         1 3JY     -0.210000
      3 C2          1.5110    0.6720    1.4570 c2        1 3JY      0.359000
      4 C22        -0.7420    0.6270    0.4200 c2        1 3JY      0.378000
      5 C7         -2.7930    0.6080    1.9440 c3        1 3JY     -0.042000
      6 C20        -3.6650    0.8720    0.7310 c3        1 3JY     -0.199000
      7 C10        -3.3160   -0.5070    5.1150 c3        1 3JY      0.342000
      8 C12        -3.0420    1.6730    6.2240 c3        1 3JY     -0.558000
      9 C13        -3.4770    2.8610    5.4640 c2        1 3JY      0.290000
     10 C9         -3.9540   -0.5090    3.8280 c2        1 3JY     -0.739000
     11 C8         -3.2050   -0.7540    2.6240 c3        1 3JY      0.029000
     12 C5         -0.5290    0.7350    2.8130 c2        1 3JY      0.083000
     13 C3          0.8440    0.7320    2.7520 c2        1 3JY     -0.324000
     14 C4          1.6810    0.7840    3.9650 c3        1 3JY     -0.127000
     15 O1          2.7480    0.6570    1.2610 o         1 3JY     -0.427000
     16 O11        -2.4680    0.7070    5.3850 os        1 3JY     -0.406000
     17 O14        -3.8420    3.0790    4.3150 o         1 3JY     -0.321000
     18 O15        -3.3460    4.1080    6.2050 os        1 3JY     -0.176000
     19 O23        -1.3710    0.5690   -0.6650 o         1 3JY     -0.415000
     20 P16        -4.2970    0.8190    7.1140 p5        1 3JY      1.967000
     21 H1          1.0650    0.5710   -0.5750 hn        1 3JY      0.234000
     22 H2         -3.0070    1.4210    2.7120 h1        1 3JY      0.148000
     23 H3         -3.4050    1.8380    0.2350 hc        1 3JY      0.071000
     24 H4         -4.7230    0.9210    1.0900 hc        1 3JY      0.071000
     25 H5         -3.5770    0.0550   -0.0240 hc        1 3JY      0.071000
     26 H6         -2.2400    2.0020    6.9430 h1        1 3JY      0.127000
     27 H7         -5.0020   -0.2290    3.7560 ha        1 3JY      0.105000
     28 H8         -2.5130   -1.3060    5.2160 h2        1 3JY      0.034000
     29 H9         -2.2740   -1.3520    2.8260 hc        1 3JY      0.020500
     30 H10        -3.8040   -1.3200    1.8580 hc        1 3JY      0.020500
     31 H11        -1.0810    0.7490    3.7900 h4        1 3JY      0.239000
     32 H12         2.2430    1.7510    4.0070 hc        1 3JY      0.072000
     33 H13         2.4320   -0.0460    3.9520 hc        1 3JY      0.072000
     34 H14         1.0550    0.6920    4.8860 hc        1 3JY      0.072000
     35 C1         -4.0460    5.1500    5.9400 c1        1 3JY     -0.051000
     36 H17        -2.8030    5.1640    3.7890 ha        1 3JY      0.002000
     37 H18        -4.8220    5.0580    5.1390 ha        1 3JY      0.011000
     38 H19        -2.6600    5.8060    3.9550 ha        1 3JY      0.002000
     39 O18        -5.6030    1.4830    6.9250 o         1 3JY     -0.848500
     40 O19        -4.1600   -0.5570    6.2220 os        1 3JY     -0.747000
     41 O17        -3.7840    0.5300    8.4720 o         1 3JY     -0.848500
@<TRIPOS>BOND
     1    1    3 1   
     2    1    4 1   
     3    1   21 1   
     4    2    4 1   
     5    2    5 1   
     6    2   12 1   
     7    3   13 1   
     8    3   15 1   
     9    4   19 1   
    10    5    6 1   
    11    5   11 1   
    12    5   22 1   
    13    6   23 1   
    14    6   24 1   
    15    6   25 1   
    16    7   10 1   
    17    7   16 1   
    18    7   28 1   
    19    7   40 1   
    20    8    9 1   
    21    8   16 1   
    22    8   20 1   
    23    8   26 1   
    24    9   17 1   
    25    9   18 1   
    26   10   11 1   
    27   10   27 1   
    28   11   29 1   
    29   11   30 1   
    30   12   13 1   
    31   12   31 1   
    32   13   14 1   
    33   14   32 1   
    34   14   33 1   
    35   14   34 1   
    36   18   35 1   
    37   20   39 1   
    38   20   40 1   
    39   20   41 1   
    40   35   37 1   
    41   36   38 1   
@<TRIPOS>SUBSTRUCTURE
     1 3JY         1 TEMP              0 ****  ****    0 ROOT
