@<TRIPOS>MOLECULE
3JY
   41    38     1     0     0
SMALL
bcc


@<TRIPOS>ATOM
      1 N21       615.2050 -181.3750 -527.6090 ns        1 3JY     -0.375000
      2 N6        613.8950 -181.1560 -525.5910 n         1 3JY     -0.176000
      3 C2        616.2190 -182.0890 -526.9250 c2        1 3JY      0.351000
      4 C22       614.0440 -180.8990 -526.9840 c2        1 3JY      0.343000
      5 C7        612.7710 -180.7210 -524.8790 c2        1 3JY      0.032000
      6 C20       611.7030 -180.0360 -525.3180 c2        1 3JY     -0.350000
      7 C10      -648.2180  191.7240  559.7020 c3        1 3JY      0.151000
      8 C12      -648.7440  194.0280  559.7310 c3        1 3JY     -0.584000
      9 C13      -649.6970  194.3410  558.6480 c2        1 3JY      0.275000
     10 C9        -25.2250    8.3120   23.4580 c1        1 3JY     -0.218000
     11 C8        -24.3480    8.1110   22.6710 c1        1 3JY     -0.218000
     12 C5        614.8600 -181.8520 -524.8740 c1        1 3JY     -0.162000
     13 C3        615.9940 -182.3120 -525.5100 c2        1 3JY     -0.401000
     14 C4        617.0270 -183.0540 -524.7660 c3        1 3JY     -0.083000
     15 O1        617.2020 -182.4520 -527.6150 o         1 3JY     -0.456000
     16 O11      -647.8160  193.0410  559.3080 os        1 3JY     -0.294000
     17 O14      -650.1350  193.6840  557.7080 o         1 3JY     -0.324000
     18 O15      -650.1430  195.7070  558.6200 os        1 3JY     -0.155000
     19 O23       613.2090 -180.2750 -527.6930 o         1 3JY     -0.455000
     20 P16      -649.4760  193.3790  561.2140 p5        1 3JY      1.950000
     21 H1        615.3030 -181.1920 -528.5810 hn        1 3JY      0.222000
     22 H2        612.8460 -181.0200 -523.8100 h4        1 3JY      0.144000
     23 H3       -647.2610  191.1450  559.8290 h2        1 3JY      0.071500
     24 H4        610.9040 -179.7740 -524.6160 ha        1 3JY      0.116500
     25 H5        611.5590 -179.7080 -526.3530 ha        1 3JY      0.116500
     26 H6       -648.1310  194.9360  559.9730 h1        1 3JY      0.166000
     27 H7       -648.8630  191.2650  558.9000 h2        1 3JY      0.071500
     28 H8        -26.0020    8.4900   24.1570 ha        1 3JY      0.218000
     29 H9        -23.5700    7.9330   21.9720 ha        1 3JY      0.218000
     30 H10        -5.8680   -6.1470    5.5040 ha        1 3JY      0.001250
     31 H11        -5.4680   -6.6360    5.7470 ha        1 3JY      0.001250
     32 H12       618.0230 -182.5510 -524.8610 hc        1 3JY      0.044333
     33 H13       616.7600 -183.1180 -523.6830 hc        1 3JY      0.044333
     34 H14       617.1370 -184.0930 -525.1680 hc        1 3JY      0.044333
     35 C1       -651.2520  196.0690  558.0790 c1        1 3JY     -0.008000
     36 H17      -650.3600  195.9980  555.7840 ha        1 3JY      0.001250
     37 H18      -651.9200  195.2730  557.6700 ha        1 3JY      0.026000
     38 H19      -650.2230  195.3520  555.9420 ha        1 3JY      0.001250
     39 O18      -650.9370  193.3620  561.0460 o         1 3JY     -0.809000
     40 O19      -648.8870  191.8450  560.8980 os        1 3JY     -0.733000
     41 O17      -648.7530  193.9190  562.3730 o         1 3JY     -0.809000
@<TRIPOS>BOND
     1    1    3 1   
     2    1    4 1   
     3    1   21 1   
     4    2    4 1   
     5    2    5 1   
     6    2   12 1   
     7    3   13 1   
     8    3   15 1   
     9    4   19 1   
    10    5    6 1   
    11    5   22 1   
    12    6   24 1   
    13    6   25 1   
    14    7   16 1   
    15    7   23 1   
    16    7   27 1   
    17    7   40 1   
    18    8    9 1   
    19    8   16 1   
    20    8   20 1   
    21    8   26 1   
    22    9   17 1   
    23    9   18 1   
    24   10   11 1   
    25   10   28 1   
    26   11   29 1   
    27   12   13 1   
    28   13   14 1   
    29   14   32 1   
    30   14   33 1   
    31   14   34 1   
    32   18   35 1   
    33   20   39 1   
    34   20   40 1   
    35   20   41 1   
    36   30   31 1   
    37   35   37 1   
    38   36   38 1   
@<TRIPOS>SUBSTRUCTURE
     1 3JY         1 TEMP              0 ****  ****    0 ROOT
