@<TRIPOS>MOLECULE
3JZ
   56    59     1     0     0
SMALL
bcc


@<TRIPOS>ATOM
      1 C35        -4.4910   -2.8690   -2.1260 c3        1 3JZ      0.206100
      2 C34        -5.9770    0.4900   -2.4320 c3        1 3JZ     -0.369300
      3 N2          2.3300    1.0460    0.2400 nb        1 3JZ     -0.768000
      4 C7          1.4230    2.0260    0.2620 ca        1 3JZ      0.533200
      5 C6          0.0340    1.8150    0.2830 ca        1 3JZ     -0.524900
      6 C13        -3.7280   -1.2530    0.7430 ca        1 3JZ     -0.084300
      7 C20        -4.7800   -1.4680   -0.1770 ca        1 3JZ      0.125600
      8 C21         6.8290   -1.1260    0.9750 ca        1 3JZ      0.056600
      9 C8         -0.9180    2.9830    0.3270 c3        1 3JZ      0.713200
     10 C18        -5.3230   -1.2710    2.5770 ca        1 3JZ     -0.122000
     11 C16         4.6530   -2.0130    1.4340 ca        1 3JZ     -0.125000
     12 C19        -6.3600   -1.5210    1.6780 ca        1 3JZ     -0.118000
     13 O33        -4.1600   -0.5630   -3.8340 o         1 3JZ     -0.653300
     14 S31        -4.4240   -0.1970   -2.4980 s6        1 3JZ      1.464900
     15 O32        -3.5200    0.7090   -1.9070 o         1 3JZ     -0.653300
     16 N30        -4.5550   -1.5430   -1.5750 nh        1 3JZ     -0.704900
     17 C17        -4.0210   -1.1410    2.1080 ca        1 3JZ     -0.103000
     18 C1         -6.0960   -1.6220    0.3180 ca        1 3JZ     -0.140000
     19 N10        -1.7820    0.1890    0.3900 nh        1 3JZ     -0.835900
     20 C5         -0.4240    0.4520    0.2830 ca        1 3JZ      0.769200
     21 F29        -0.3100    4.2170    0.3390 f         1 3JZ     -0.238633
     22 F28        -1.7930    3.0570   -0.7300 f         1 3JZ     -0.238633
     23 F27        -1.7400    3.0140    1.4300 f         1 3JZ     -0.238633
     24 N4          0.4790   -0.5820    0.2630 nb        1 3JZ     -0.831000
     25 C3          1.8210   -0.2530    0.2320 ca        1 3JZ      0.925900
     26 N9          2.7090   -1.3360    0.1190 nh        1 3JZ     -0.707300
     27 C11         4.0870   -1.2120    0.4240 ca        1 3JZ      0.096600
     28 C14         4.9140   -0.3430   -0.3350 ca        1 3JZ     -0.046000
     29 C22         6.2600   -0.3020   -0.0540 ca        1 3JZ     -0.141300
     30 C23         7.3560    0.5100   -0.6730 c3        1 3JZ     -0.101100
     31 C15         6.0220   -1.9840    1.7140 ca        1 3JZ     -0.157000
     32 N25         8.2130   -0.9060    1.0580 n         1 3JZ     -0.482100
     33 C24         8.6020    0.0620    0.1100 c         1 3JZ      0.699500
     34 O26         9.7640    0.4540   -0.0350 o         1 3JZ     -0.600500
     35 H35        -5.4400   -3.4310   -1.9120 h1        1 3JZ      0.052367
     36 H35A       -4.3430   -2.8080   -3.2390 h1        1 3JZ      0.052367
     37 H35B       -3.6330   -3.4360   -1.6750 h1        1 3JZ      0.052367
     38 H34        -6.6710    0.0530   -3.1900 h1        1 3JZ      0.120700
     39 H34A       -6.4860    0.4000   -1.4410 h1        1 3JZ      0.120700
     40 H34B       -5.9250    1.5890   -2.6490 h1        1 3JZ      0.120700
     41 H7          1.8310    3.0570    0.2680 h4        1 3JZ      0.042100
     42 H18        -5.5340   -1.1790    3.6530 ha        1 3JZ      0.142000
     43 H16         4.0170   -2.6910    2.0260 ha        1 3JZ      0.135000
     44 H19        -7.3910   -1.6370    2.0440 ha        1 3JZ      0.140000
     45 H17        -3.1980   -0.9470    2.8150 ha        1 3JZ      0.150000
     46 H1         -6.9240   -1.8270   -0.3800 ha        1 3JZ      0.138000
     47 H12        -1.6840   -1.8050    1.0510 h1        1 3JZ      0.062200
     48 H12A       -2.1310   -1.6040   -0.6970 h1        1 3JZ      0.062200
     49 HN10       -2.3850    0.8870   -0.0110 hn        1 3JZ      0.467800
     50 HN9         2.3180   -2.2330    0.3240 hn        1 3JZ      0.442800
     51 H14         4.4900    0.2900   -1.1290 ha        1 3JZ      0.163000
     52 H23         7.4930    0.2880   -1.7600 hc        1 3JZ      0.097200
     53 H23A        7.2000    1.6090   -0.5390 hc        1 3JZ      0.097200
     54 H15         6.4360   -2.6250    2.5050 ha        1 3JZ      0.143000
     55 HN25        8.8100   -1.3450    1.7070 hn        1 3JZ      0.341500
     56 C12        -2.2810   -1.1680    0.3330 c3        1 3JZ      0.252100
@<TRIPOS>BOND
     1    1   16 1   
     2    1   35 1   
     3    1   36 1   
     4    1   37 1   
     5    2   14 1   
     6    2   38 1   
     7    2   39 1   
     8    2   40 1   
     9    3    4 ar  
    10    3   25 ar  
    11    4    5 ar  
    12    4   41 1   
    13    5    9 1   
    14    5   20 ar  
    15    6    7 ar  
    16    6   17 ar  
    17    6   56 1   
    18    7   16 1   
    19    7   18 ar  
    20    8   29 ar  
    21    8   31 ar  
    22    8   32 1   
    23    9   21 1   
    24    9   22 1   
    25    9   23 1   
    26   10   12 ar  
    27   10   17 ar  
    28   10   42 1   
    29   11   27 ar  
    30   11   31 ar  
    31   11   43 1   
    32   12   18 ar  
    33   12   44 1   
    34   13   14 2   
    35   14   15 2   
    36   14   16 1   
    37   17   45 1   
    38   18   46 1   
    39   19   20 1   
    40   19   49 1   
    41   19   56 1   
    42   20   24 ar  
    43   24   25 ar  
    44   25   26 1   
    45   26   27 1   
    46   26   50 1   
    47   27   28 ar  
    48   28   29 ar  
    49   28   51 1   
    50   29   30 1   
    51   30   33 1   
    52   30   52 1   
    53   30   53 1   
    54   31   54 1   
    55   32   33 1   
    56   32   55 1   
    57   33   34 2   
    58   47   56 1   
    59   48   56 1   
@<TRIPOS>SUBSTRUCTURE
     1 3JZ         1 TEMP              0 ****  ****    0 ROOT
