@<TRIPOS>MOLECULE
3JZ
   56    50     1     0     0
SMALL
bcc


@<TRIPOS>ATOM
      1 C35        -3.0320    4.2340    0.1830 c3        1 3JZ     -0.070000
      2 C34        -2.6060    7.1520   -0.9570 c3        1 3JZ     -0.948000
      3 N2          1.5630   -2.5190   -1.1420 n1        1 3JZ     -0.242000
      4 C7          2.5830   -1.7490   -1.5450 c1        1 3JZ      0.068000
      5 C6          2.5950   -0.4150   -1.2450 c1        1 3JZ     -0.387000
      6 C13         0.1700    3.1130    1.2730 c1        1 3JZ     -0.077000
      7 C20        -0.6660    4.1890    1.0340 c1        1 3JZ      0.044000
      8 C21        -0.1980   -6.9500    0.4330 c1        1 3JZ      0.064000
      9 C8          3.9480    0.1520   -1.8230 c3        1 3JZ      0.492000
     10 C18         1.1560    4.3260    3.1270 c1        1 3JZ     -0.126750
     11 C16        -0.0140   -4.7110    1.2400 c1        1 3JZ     -0.126750
     12 C19         0.3410    5.3790    2.8960 c1        1 3JZ     -0.118000
     13 O33        -1.0590    5.4290   -2.2040 o         1 3JZ     -0.540900
     14 S31        -1.3160    5.9360   -0.9200 s4        1 3JZ      2.036800
     15 O32        -0.0360    6.5320   -0.5900 o         1 3JZ     -0.540900
     16 N30        -1.6980    4.7320    0.1240 n1        1 3JZ     -0.801000
     17 C17         1.0740    3.1640    2.3000 c1        1 3JZ     -0.126750
     18 C1         -0.5870    5.3290    1.8430 c2        1 3JZ     -0.140000
     19 C12         0.0650    1.8540    0.4100 c3        1 3JZ      0.008000
     20 N10         1.3930    1.4180    0.0190 n3        1 3JZ     -0.280000
     21 C5          1.5810    0.1250   -0.5430 c2        1 3JZ      0.248000
     22 F29         3.8240    0.3520   -3.1600 f         1 3JZ     -0.167333
     23 F28         4.2410    1.3300   -1.2140 f         1 3JZ     -0.167333
     24 F27         4.9290   -0.7170   -1.5950 f         1 3JZ     -0.167333
     25 N4          0.5650   -0.6440   -0.1410 n2        1 3JZ     -0.305000
     26 C3          0.5560   -1.9840   -0.4440 c1        1 3JZ      0.207000
     27 N9         -0.5990   -2.8190   -0.0750 n3        1 3JZ     -0.228000
     28 C11        -0.4560   -4.2330    0.0030 c1        1 3JZ      0.015000
     29 C14        -0.7660   -5.1200   -1.0090 c1        1 3JZ     -0.046000
     30 C22        -0.6390   -6.4700   -0.8010 c1        1 3JZ     -0.134000
     31 C23        -0.7020   -7.6370   -1.7620 c3        1 3JZ     -0.137000
     32 C15         0.1130   -6.0610    1.4480 c1        1 3JZ     -0.126750
     33 N25        -0.3610   -8.4250    0.4340 n         1 3JZ     -0.336000
     34 C24        -0.4330   -8.8510   -0.8890 c2        1 3JZ      0.307000
     35 O26        -0.2910  -10.0530   -1.2960 o         1 3JZ     -0.325000
     36 H35        -3.0230    3.3280    0.5320 h1        1 3JZ      0.091667
     37 H35A       -3.4350    4.2360   -0.7520 h1        1 3JZ      0.091667
     38 H35B       -3.5150    4.7440    0.7100 h1        1 3JZ      0.091667
     39 H34        -2.4540    7.7360   -1.6510 h1        1 3JZ      0.160000
     40 H34A       -3.4490    6.7190   -1.0830 h1        1 3JZ      0.160000
     41 H34B       -2.6170    7.6150   -0.1650 h1        1 3JZ      0.160000
     42 H7          3.3060   -2.1360   -2.0440 ha        1 3JZ      0.179000
     43 H18         1.7890    4.3590    3.8440 ha        1 3JZ      0.142500
     44 H16         0.1030   -4.0740    2.0110 ha        1 3JZ      0.142500
     45 H19         0.4000    6.2040    3.4820 ha        1 3JZ      0.140000
     46 H17         1.6440    2.4270    2.4630 ha        1 3JZ      0.142500
     47 H1         -1.1870    6.1010    1.6730 ha        1 3JZ      0.138000
     48 H12        -0.4200    2.0360   -0.3280 h1        1 3JZ      0.101500
     49 H12A       -0.3510    1.1770    0.8970 h1        1 3JZ      0.101500
     50 HN10        2.0500    1.9630    0.0620 hn        1 3JZ      0.263000
     51 HN9        -1.3810   -2.4480    0.0700 hn        1 3JZ      0.238000
     52 H14        -1.0710   -4.7880   -1.8690 ha        1 3JZ      0.163000
     53 H23        -0.0550   -7.4900   -2.5290 hc        1 3JZ      0.136500
     54 H23A       -1.5560   -7.7250   -2.2330 hc        1 3JZ      0.136500
     55 H15         0.4150   -6.3880    2.2960 ha        1 3JZ      0.142500
     56 HN25       -0.4330   -8.9820    1.2030 hn        1 3JZ      0.255000
@<TRIPOS>BOND
     1    1   16 1   
     2    1   36 1   
     3    1   37 1   
     4    1   38 1   
     5    2   14 1   
     6    2   39 1   
     7    2   40 1   
     8    2   41 1   
     9    3    4 1   
    10    4   42 1   
    11    5    9 1   
    12    5   21 1   
    13    6    7 1   
    14    6   19 1   
    15    7   18 1   
    16    8   30 1   
    17    8   33 1   
    18    9   22 1   
    19    9   23 1   
    20    9   24 1   
    21   10   17 1   
    22   10   43 1   
    23   11   32 1   
    24   11   44 1   
    25   12   18 1   
    26   12   45 1   
    27   13   14 1   
    28   14   15 1   
    29   17   46 1   
    30   18   47 1   
    31   19   20 1   
    32   19   48 1   
    33   19   49 1   
    34   20   21 1   
    35   20   50 1   
    36   21   25 1   
    37   25   26 1   
    38   26   27 1   
    39   27   28 1   
    40   27   51 1   
    41   28   29 1   
    42   29   52 1   
    43   30   31 1   
    44   31   34 1   
    45   31   53 1   
    46   31   54 1   
    47   32   55 1   
    48   33   34 1   
    49   33   56 1   
    50   34   35 1   
@<TRIPOS>SUBSTRUCTURE
     1 3JZ         1 TEMP              0 ****  ****    0 ROOT
