@<TRIPOS>MOLECULE
3JZ
   56    57     1     0     0
SMALL
bcc


@<TRIPOS>ATOM
      1 C35         2.1160    2.6640    1.1630 c3        1 3JZ     -0.087000
      2 C34         0.4030    0.8310   -1.1870 c3        1 3JZ     -0.954000
      3 N2          1.8960   -5.4470   -2.5590 n2        1 3JZ     -0.267000
      4 C7          2.3050   -4.2320   -2.3720 c1        1 3JZ     -0.108000
      5 C6          2.2760   -3.5470   -1.0260 c3        1 3JZ     -0.236000
      6 C13         0.5390   -3.6590    3.5140 c1        1 3JZ     -0.216000
      7 C20         3.5200    0.9280    0.2000 c2        1 3JZ      0.027000
      8 C21         0.8090   -9.7120   -5.1860 c3        1 3JZ     -0.031000
      9 C8          3.7180   -3.0890   -0.6710 c3        1 3JZ      0.462000
     10 C18         6.0050    3.3390   -0.9570 c1        1 3JZ      0.003000
     11 C16         0.3580   -9.4740   -2.7940 c2        1 3JZ     -0.319000
     12 C19         5.6400    2.4590    0.0780 c2        1 3JZ     -0.130000
     13 O33        -0.0820    0.7280    1.2900 o         1 3JZ     -0.950500
     14 S31         0.9300    0.4060    0.3660 s6        1 3JZ      2.826000
     15 O32         1.3010   -0.9660    0.3290 o         1 3JZ     -0.950500
     16 N30         2.2410    1.3480    0.6000 n3        1 3JZ     -0.776000
     17 C17         0.3680   -2.9890    4.4900 c1        1 3JZ     -0.145000
     18 C1          4.5890    1.6810    0.1180 c1        1 3JZ     -0.246000
     19 N10         1.3800   -3.8200    1.2600 n3        1 3JZ     -0.244000
     20 C5          1.6330   -4.4020    0.0660 c2        1 3JZ      0.214000
     21 F29         4.2120   -2.1310   -1.5160 f         1 3JZ     -0.164000
     22 F28         3.8430   -2.5060    0.5700 f         1 3JZ     -0.164000
     23 F27         4.6590   -4.0850   -0.6620 f         1 3JZ     -0.164000
     24 N4          1.2770   -5.6930   -0.1600 n2        1 3JZ     -0.375000
     25 C3          1.4540   -6.1960   -1.4490 c2        1 3JZ      0.273000
     26 N9          1.1180   -7.5400   -1.5770 n3        1 3JZ     -0.228000
     27 C11         1.1480   -8.3160   -2.7340 c2        1 3JZ      0.211000
     28 C14         2.0680   -8.0360   -3.8310 c2        1 3JZ     -0.160000
     29 C22         1.9570   -8.7480   -4.9680 c2        1 3JZ     -0.066000
     30 C23         2.9180   -8.9040   -6.0950 c3        1 3JZ     -0.167000
     31 C15         0.2020  -10.2450   -3.9500 c1        1 3JZ     -0.082000
     32 N25         1.2340  -10.6200   -6.2400 n         1 3JZ     -0.333000
     33 C24         2.4880  -10.2350   -6.7350 c2        1 3JZ      0.291000
     34 O26         3.1270  -10.8600   -7.5900 o         1 3JZ     -0.329000
     35 H35         1.1100    2.7720    1.6560 h1        1 3JZ      0.098000
     36 H35A        2.9140    2.8320    1.9350 h1        1 3JZ      0.098000
     37 H35B        2.2270    3.4490    0.3670 h1        1 3JZ      0.098000
     38 H34         0.2100    1.9250   -1.3170 h1        1 3JZ      0.164000
     39 H34A        1.1140    0.5380   -1.9980 h1        1 3JZ      0.164000
     40 H34B       -0.5660    0.3210   -1.4270 h1        1 3JZ      0.164000
     41 H7          1.6580   -2.6060   -1.1570 hc        1 3JZ      0.201000
     42 H18         0.2100   -2.3960    5.3560 ha        1 3JZ      0.232000
     43 H16        -0.1920   -9.8160   -1.9010 ha        1 3JZ      0.149000
     44 H19         6.2880    2.5580    0.9820 ha        1 3JZ      0.182000
     45 H17         6.3440    2.9660   -1.9310 ha        1 3JZ      0.089000
     46 H1          3.5870   -0.1590   -0.0470 h4        1 3JZ      0.183000
     47 H12        -0.2880   -4.8760    2.0070 h1        1 3JZ      0.124500
     48 H12A        1.3400   -5.4060    2.6480 h1        1 3JZ      0.124500
     49 HN10        1.6290   -2.8520    1.3730 hn        1 3JZ      0.290000
     50 HN9         0.7060   -7.9830   -0.7750 hn        1 3JZ      0.261000
     51 H14         2.8820   -7.3060   -3.6930 ha        1 3JZ      0.186000
     52 H23         2.8330   -8.0750   -6.8430 hc        1 3JZ      0.140500
     53 H23A        3.9800   -8.9690   -5.7510 hc        1 3JZ      0.140500
     54 H15        -0.0740   -9.1010   -5.6040 h1        1 3JZ      0.167000
     55 HN25        0.9570  -11.5710   -6.1900 hn        1 3JZ      0.249000
     56 C12         0.7220   -4.5010    2.3590 c3        1 3JZ      0.082000
@<TRIPOS>BOND
     1    1   16 1   
     2    1   35 1   
     3    1   36 1   
     4    1   37 1   
     5    2   14 1   
     6    2   38 1   
     7    2   39 1   
     8    2   40 1   
     9    3    4 1   
    10    3   25 1   
    11    4    5 1   
    12    5    9 1   
    13    5   20 1   
    14    5   41 1   
    15    6   17 1   
    16    6   56 1   
    17    7   16 1   
    18    7   18 1   
    19    7   46 1   
    20    8   29 1   
    21    8   31 1   
    22    8   32 1   
    23    8   54 1   
    24    9   21 1   
    25    9   22 1   
    26    9   23 1   
    27   10   12 1   
    28   10   45 1   
    29   11   27 1   
    30   11   31 1   
    31   11   43 1   
    32   12   18 1   
    33   12   44 1   
    34   13   14 1   
    35   14   15 1   
    36   14   16 1   
    37   17   42 1   
    38   19   20 1   
    39   19   49 1   
    40   19   56 1   
    41   20   24 1   
    42   24   25 1   
    43   25   26 1   
    44   26   27 1   
    45   26   50 1   
    46   27   28 1   
    47   28   29 1   
    48   28   51 1   
    49   29   30 1   
    50   30   33 1   
    51   30   52 1   
    52   30   53 1   
    53   32   33 1   
    54   32   55 1   
    55   33   34 1   
    56   47   56 1   
    57   48   56 1   
@<TRIPOS>SUBSTRUCTURE
     1 3JZ         1 TEMP              0 ****  ****    0 ROOT
