@<TRIPOS>MOLECULE
3JZ
   56    57     1     0     0
SMALL
bcc


@<TRIPOS>ATOM
      1 C35        -0.0380    2.5740   -0.2900 c3        1 3JZ     -0.078000
      2 C34         3.3530    1.5570   -1.4740 c3        1 3JZ     -0.964000
      3 N2          2.0410   -5.5700   -3.0310 n2        1 3JZ     -0.270000
      4 C7          2.5320   -4.3930   -3.2700 c1        1 3JZ     -0.096000
      5 C6          2.8060   -3.3790   -2.1840 c3        1 3JZ     -0.240000
      6 C13         3.0660   -2.6190    2.7030 c1        1 3JZ     -0.080000
      7 C20         1.6250    1.6790    1.1560 c1        1 3JZ     -0.067000
      8 C21        -0.0930  -10.1010   -4.1510 c3        1 3JZ     -0.032000
      9 C8          4.2660   -2.8670   -2.3290 c3        1 3JZ      0.459000
     10 C18         3.4100    2.3860    4.1640 c1        1 3JZ      0.271000
     11 C16         0.0660   -9.2320   -1.8700 c2        1 3JZ     -0.320000
     12 C19         2.5300    1.5860    3.5830 c2        1 3JZ     -0.372000
     13 O33         1.0840    1.0810   -2.4950 o         1 3JZ     -0.937000
     14 S31         1.8180    0.8700   -1.3160 s6        1 3JZ      2.828000
     15 O32         1.9850   -0.4810   -0.9340 o         1 3JZ     -0.937000
     16 N30         1.1250    1.7400   -0.0890 n3        1 3JZ     -0.677000
     17 C17         4.0690   -1.5990    2.5580 c3        1 3JZ     -0.271000
     18 C1          2.0380    1.6530    2.2840 c1        1 3JZ     -0.098000
     19 N10         2.7340   -3.0770    0.2680 n7        1 3JZ     -0.272000
     20 C5          2.5020   -3.9020   -0.7790 c2        1 3JZ      0.217000
     21 F29         4.6190   -2.4970   -3.5960 f         1 3JZ     -0.165333
     22 F28         4.5350   -1.7370   -1.5840 f         1 3JZ     -0.165333
     23 F27         5.2300   -3.7560   -1.9290 f         1 3JZ     -0.165333
     24 N4          1.9970   -5.1450   -0.5790 n2        1 3JZ     -0.376000
     25 C3          1.7940   -5.9520   -1.7000 c2        1 3JZ      0.274000
     26 N9          1.2840   -7.2110   -1.3960 n7        1 3JZ     -0.228000
     27 C11         0.9610   -8.2340   -2.2850 c2        1 3JZ      0.212000
     28 C14         1.6160   -8.3730   -3.5800 c2        1 3JZ     -0.161000
     29 C22         1.1660   -9.3080   -4.4380 c2        1 3JZ     -0.065000
     30 C23         1.8090   -9.8780   -5.6540 c3        1 3JZ     -0.167000
     31 C15        -0.4390  -10.2210   -2.7200 c1        1 3JZ     -0.083000
     32 N25        -0.0250  -11.2890   -4.9860 ns        1 3JZ     -0.333000
     33 C24         1.1070  -11.2380   -5.8110 c2        1 3JZ      0.291000
     34 O26         1.4580  -12.1420   -6.5790 o         1 3JZ     -0.329000
     35 H35        -0.8790    2.2370    0.3730 h1        1 3JZ      0.103000
     36 H35A        0.2020    3.6440   -0.0500 h1        1 3JZ      0.103000
     37 H35B       -0.3620    2.4980   -1.3640 h1        1 3JZ      0.103000
     38 H34         3.7660    2.0480   -0.5580 h1        1 3JZ      0.172333
     39 H34A        4.1080    0.7720   -1.7560 h1        1 3JZ      0.172333
     40 H34B        3.3910    2.3300   -2.2840 h1        1 3JZ      0.172333
     41 H7          2.1220   -2.4990   -2.3900 hc        1 3JZ      0.198000
     42 H18         4.5090   -1.4370    1.5420 hc        1 3JZ      0.116333
     43 H16        -0.2890   -9.2590   -0.8260 ha        1 3JZ      0.148000
     44 H19         2.1070    0.7680    4.2210 ha        1 3JZ      0.208000
     45 H17         4.9060   -1.8330    3.2720 hc        1 3JZ      0.116333
     46 H1          3.6070   -0.6300    2.9050 hc        1 3JZ      0.116333
     47 H12         1.3150   -3.3180    1.8160 h1        1 3JZ      0.165500
     48 H12A        2.7170   -4.4730    1.8730 h1        1 3JZ      0.165500
     49 HN10        2.9800   -2.1270    0.0510 hn        1 3JZ      0.275000
     50 HN9         1.0230   -7.3750   -0.4400 hn        1 3JZ      0.260000
     51 H14         2.5090   -7.7700   -3.8130 ha        1 3JZ      0.186000
     52 H23         1.6310   -9.2490   -6.5630 hc        1 3JZ      0.141000
     53 H23A        2.9100  -10.0260   -5.5310 hc        1 3JZ      0.141000
     54 H15        -0.9830   -9.4750   -4.5280 h1        1 3JZ      0.168000
     55 HN25       -0.3770  -12.1450   -4.6280 hn        1 3JZ      0.249000
     56 C12         2.4390   -3.3900    1.6530 c3        1 3JZ     -0.086000
@<TRIPOS>BOND
     1    1   16 1   
     2    1   35 1   
     3    1   36 1   
     4    1   37 1   
     5    2   14 1   
     6    2   38 1   
     7    2   39 1   
     8    2   40 1   
     9    3    4 1   
    10    3   25 1   
    11    4    5 1   
    12    5    9 1   
    13    5   20 1   
    14    5   41 1   
    15    6   17 1   
    16    6   56 1   
    17    7   16 1   
    18    7   18 1   
    19    8   29 1   
    20    8   31 1   
    21    8   32 1   
    22    8   54 1   
    23    9   21 1   
    24    9   22 1   
    25    9   23 1   
    26   10   12 1   
    27   11   27 1   
    28   11   31 1   
    29   11   43 1   
    30   12   18 1   
    31   12   44 1   
    32   13   14 1   
    33   14   15 1   
    34   14   16 1   
    35   17   42 1   
    36   17   45 1   
    37   17   46 1   
    38   19   20 1   
    39   19   49 1   
    40   19   56 1   
    41   20   24 1   
    42   24   25 1   
    43   25   26 1   
    44   26   27 1   
    45   26   50 1   
    46   27   28 1   
    47   28   29 1   
    48   28   51 1   
    49   29   30 1   
    50   30   33 1   
    51   30   52 1   
    52   30   53 1   
    53   32   33 1   
    54   32   55 1   
    55   33   34 1   
    56   47   56 1   
    57   48   56 1   
@<TRIPOS>SUBSTRUCTURE
     1 3JZ         1 TEMP              0 ****  ****    0 ROOT
