@<TRIPOS>MOLECULE
3JZ
   56    57     1     0     0
SMALL
bcc


@<TRIPOS>ATOM
      1 C35        -0.0200    2.5850   -0.3170 c3        1 3JZ     -0.078000
      2 C34         3.3760    1.5520   -1.4730 c3        1 3JZ     -0.964000
      3 N2          2.0480   -5.5710   -3.0290 n2        1 3JZ     -0.270000
      4 C7          2.5460   -4.3970   -3.2650 c1        1 3JZ     -0.096000
      5 C6          2.8140   -3.3820   -2.1790 c3        1 3JZ     -0.240000
      6 C13         3.0350   -2.6160    2.7090 c1        1 3JZ     -0.080000
      7 C20         1.6290    1.6870    1.1430 c1        1 3JZ     -0.067000
      8 C21        -0.0940  -10.0960   -4.1600 c3        1 3JZ     -0.032000
      9 C8          4.2780   -2.8770   -2.3110 c3        1 3JZ      0.459000
     10 C18         3.3950    2.3900    4.1620 c1        1 3JZ      0.271000
     11 C16         0.0470   -9.2230   -1.8800 c2        1 3JZ     -0.320000
     12 C19         2.5140    1.5940    3.5770 c2        1 3JZ     -0.372000
     13 O33         1.1140    1.0840   -2.5110 o         1 3JZ     -0.937000
     14 S31         1.8370    0.8720   -1.3260 s6        1 3JZ      2.828000
     15 O32         1.9950   -0.4780   -0.9410 o         1 3JZ     -0.937000
     16 N30         1.1380    1.7470   -0.1060 n3        1 3JZ     -0.677000
     17 C17         4.0440   -1.6010    2.5710 c3        1 3JZ     -0.271000
     18 C1          2.0320    1.6610    2.2740 c1        1 3JZ     -0.098000
     19 N10         2.7220   -3.0760    0.2720 n3        1 3JZ     -0.272000
     20 C5          2.4960   -3.9020   -0.7750 c2        1 3JZ      0.217000
     21 F29         4.6440   -2.5100   -3.5760 f         1 3JZ     -0.165000
     22 F28         4.5450   -1.7460   -1.5660 f         1 3JZ     -0.165000
     23 F27         5.2350   -3.7700   -1.9010 f         1 3JZ     -0.165000
     24 N4          1.9840   -5.1420   -0.5780 n2        1 3JZ     -0.376000
     25 C3          1.7870   -5.9500   -1.6990 c2        1 3JZ      0.274000
     26 N9          1.2690   -7.2070   -1.3980 n3        1 3JZ     -0.228000
     27 C11         0.9500   -8.2300   -2.2880 c2        1 3JZ      0.212000
     28 C14         1.6170   -8.3740   -3.5770 c2        1 3JZ     -0.161000
     29 C22         1.1700   -9.3090   -4.4370 c2        1 3JZ     -0.065000
     30 C23         1.8220   -9.8830   -5.6460 c3        1 3JZ     -0.167000
     31 C15        -0.4530  -10.2120   -2.7330 c1        1 3JZ     -0.083000
     32 N25        -0.0240  -11.2860   -4.9930 n         1 3JZ     -0.333000
     33 C24         1.1170  -11.2410   -5.8080 c2        1 3JZ      0.291000
     34 O26         1.4710  -12.1470   -6.5700 o         1 3JZ     -0.329000
     35 H35        -0.8680    2.2530    0.3400 h1        1 3JZ      0.103000
     36 H35A       -0.3360    2.5090   -1.3940 h1        1 3JZ      0.103000
     37 H35B        0.2220    3.6550   -0.0770 h1        1 3JZ      0.103000
     38 H34         3.7840    2.0440   -0.5550 h1        1 3JZ      0.172333
     39 H34A        3.4250    2.3230   -2.2840 h1        1 3JZ      0.172333
     40 H34B        4.1300    0.7630   -1.7470 h1        1 3JZ      0.172333
     41 H7          2.1360   -2.5000   -2.3920 hc        1 3JZ      0.198000
     42 H18         4.4940   -1.4430    1.5590 hc        1 3JZ      0.116333
     43 H16        -0.3180   -9.2470   -0.8390 ha        1 3JZ      0.148000
     44 H19         2.0810    0.7810    4.2140 ha        1 3JZ      0.208000
     45 H17         4.8740   -1.8370    3.2940 hc        1 3JZ      0.116333
     46 H1          3.5830   -0.6290    2.9130 hc        1 3JZ      0.116333
     47 H12         1.2880   -3.3080    1.8080 h1        1 3JZ      0.165500
     48 H12A        2.6850   -4.4690    1.8790 h1        1 3JZ      0.165500
     49 HN10        2.9740   -2.1280    0.0560 hn        1 3JZ      0.275000
     50 HN9         0.9990   -7.3690   -0.4440 hn        1 3JZ      0.260000
     51 H14         2.5140   -7.7750   -3.8030 ha        1 3JZ      0.186000
     52 H23         1.6560   -9.2550   -6.5580 hc        1 3JZ      0.141000
     53 H23A        2.9220  -10.0360   -5.5130 hc        1 3JZ      0.141000
     54 H15        -0.9780   -9.4670   -4.5470 h1        1 3JZ      0.168000
     55 HN25       -0.3820  -12.1390   -4.6360 hn        1 3JZ      0.249000
     56 C12         2.4130   -3.3850    1.6550 c3        1 3JZ     -0.086000
@<TRIPOS>BOND
     1    1   16 1   
     2    1   35 1   
     3    1   36 1   
     4    1   37 1   
     5    2   14 1   
     6    2   38 1   
     7    2   39 1   
     8    2   40 1   
     9    3    4 1   
    10    3   25 1   
    11    4    5 1   
    12    5    9 1   
    13    5   20 1   
    14    5   41 1   
    15    6   17 1   
    16    6   56 1   
    17    7   16 1   
    18    7   18 1   
    19    8   29 1   
    20    8   31 1   
    21    8   32 1   
    22    8   54 1   
    23    9   21 1   
    24    9   22 1   
    25    9   23 1   
    26   10   12 1   
    27   11   27 1   
    28   11   31 1   
    29   11   43 1   
    30   12   18 1   
    31   12   44 1   
    32   13   14 1   
    33   14   15 1   
    34   14   16 1   
    35   17   42 1   
    36   17   45 1   
    37   17   46 1   
    38   19   20 1   
    39   19   49 1   
    40   19   56 1   
    41   20   24 1   
    42   24   25 1   
    43   25   26 1   
    44   26   27 1   
    45   26   50 1   
    46   27   28 1   
    47   28   29 1   
    48   28   51 1   
    49   29   30 1   
    50   30   33 1   
    51   30   52 1   
    52   30   53 1   
    53   32   33 1   
    54   32   55 1   
    55   33   34 1   
    56   47   56 1   
    57   48   56 1   
@<TRIPOS>SUBSTRUCTURE
     1 3JZ         1 TEMP              0 ****  ****    0 ROOT
