@<TRIPOS>MOLECULE
3K1
   27    29     1     0     0
SMALL
bcc


@<TRIPOS>ATOM
      1 O01        -0.0620   -0.0210    0.0710 oh        1 3K1     -0.474100
      2 C02         1.3060   -0.0190    0.0710 cc        1 3K1     -0.026100
      3 C03         2.0060   -0.5660    1.1210 cd        1 3K1      0.065600
      4 N04         3.3850   -0.5830    1.1570 nd        1 3K1     -0.584300
      5 C05         4.0490   -0.0500    0.1360 cc        1 3K1      0.499500
      6 C06         5.5350   -0.0520    0.1390 ca        1 3K1     -0.121900
      7 C07         6.2270    0.3150    1.2970 ca        1 3K1     -0.098500
      8 C08         7.6210    0.3140    1.3070 ca        1 3K1     -0.100500
      9 C09         8.3320   -0.0580    0.1570 ca        1 3K1     -0.118500
     10 C10         7.6340   -0.4400   -0.9980 ca        1 3K1     -0.100500
     11 C11         6.2420   -0.4370   -1.0080 ca        1 3K1     -0.098500
     12 C12         9.7850   -0.0500    0.1860 cc        1 3K1      0.442000
     13 N13        10.6300   -0.0170    1.2680 nd        1 3K1     -0.362000
     14 N14        11.8700   -0.0190    0.7890 nd        1 3K1     -0.043000
     15 N15        11.9070   -0.0490   -0.4940 nc        1 3K1     -0.187800
     16 N16        10.6430   -0.0700   -0.9360 na        1 3K1     -0.179400
     17 N17         3.4250    0.5350   -0.9770 ns        1 3K1     -0.461400
     18 C18         2.0300    0.5800   -1.0670 c         1 3K1      0.658700
     19 O19         1.4690    1.0960   -2.0540 o         1 3K1     -0.638500
     20 H011       -0.3560    0.4100   -0.7520 ho        1 3K1      0.448000
     21 H031        1.5040   -1.0230    1.9910 h4        1 3K1      0.189000
     22 H071        5.6750    0.5980    2.2080 ha        1 3K1      0.155500
     23 H081        8.1610    0.6030    2.2250 ha        1 3K1      0.153000
     24 H101        8.1710   -0.7620   -1.9030 ha        1 3K1      0.153000
     25 H111        5.7080   -0.7590   -1.9150 ha        1 3K1      0.155500
     26 H161       10.4110   -0.0880   -1.9020 hn        1 3K1      0.334700
     27 H1          3.9750    0.9340   -1.7060 hn        1 3K1      0.342500
@<TRIPOS>BOND
     1    1    2 1   
     2    1   20 1   
     3    2    3 2   
     4    2   18 1   
     5    3    4 1   
     6    3   21 1   
     7    4    5 2   
     8    5    6 1   
     9    5   17 1   
    10    6    7 ar  
    11    6   11 ar  
    12    7    8 ar  
    13    7   22 1   
    14    8    9 ar  
    15    8   23 1   
    16    9   10 ar  
    17    9   12 1   
    18   10   11 ar  
    19   10   24 1   
    20   11   25 1   
    21   12   13 2   
    22   12   16 1   
    23   13   14 1   
    24   14   15 2   
    25   15   16 1   
    26   16   26 1   
    27   17   18 1   
    28   17   27 1   
    29   18   19 2   
@<TRIPOS>SUBSTRUCTURE
     1 3K1         1 TEMP              0 ****  ****    0 ROOT
