@<TRIPOS>MOLECULE
3K1
   27    29     1     0     0
SMALL
bcc


@<TRIPOS>ATOM
      1 O01        -0.0620   -0.0080    0.0830 oh        1 3K1     -0.474100
      2 C02         1.3060   -0.0070    0.0810 cc        1 3K1     -0.026100
      3 C03         2.0080   -0.5040    1.1540 cd        1 3K1      0.065600
      4 N04         3.3870   -0.5220    1.1890 nd        1 3K1     -0.584300
      5 C05         4.0490   -0.0380    0.1420 cc        1 3K1      0.499500
      6 C06         5.5360   -0.0430    0.1420 ca        1 3K1     -0.121900
      7 C07         6.2300    0.3780    1.2810 ca        1 3K1     -0.098500
      8 C08         7.6240    0.3760    1.2880 ca        1 3K1     -0.100500
      9 C09         8.3320   -0.0500    0.1550 ca        1 3K1     -0.118500
     10 C10         7.6320   -0.4870   -0.9790 ca        1 3K1     -0.100500
     11 C11         6.2400   -0.4820   -0.9860 ca        1 3K1     -0.098500
     12 C12         9.7860   -0.0430    0.1810 cc        1 3K1      0.442000
     13 N13        10.6330    0.0410    1.2590 nd        1 3K1     -0.362000
     14 N14        11.8720    0.0150    0.7780 nd        1 3K1     -0.043000
     15 N15        11.9060   -0.0770   -0.5020 nc        1 3K1     -0.187800
     16 N16        10.6410   -0.1180   -0.9410 na        1 3K1     -0.179400
     17 N17         3.4240    0.4940   -0.9960 n         1 3K1     -0.461400
     18 C18         2.0290    0.5360   -1.0850 c         1 3K1      0.658700
     19 O19         1.4670    1.0060   -2.0940 o         1 3K1     -0.638500
     20 H011       -0.3570    0.3840   -0.7580 ho        1 3K1      0.448000
     21 H031        1.5070   -0.9190    2.0460 h4        1 3K1      0.189000
     22 H071        5.6800    0.7050    2.1780 ha        1 3K1      0.155500
     23 H081        8.1660    0.7080    2.1900 ha        1 3K1      0.153000
     24 H101        8.1660   -0.8510   -1.8690 ha        1 3K1      0.153000
     25 H111        5.7040   -0.8470   -1.8760 ha        1 3K1      0.155500
     26 H161       10.4070   -0.1820   -1.9030 hn        1 3K1      0.334700
     27 H1          3.9730    0.8570   -1.7440 hn        1 3K1      0.342500
@<TRIPOS>BOND
     1    1    2 1   
     2    1   20 1   
     3    2    3 2   
     4    2   18 1   
     5    3    4 1   
     6    3   21 1   
     7    4    5 2   
     8    5    6 1   
     9    5   17 1   
    10    6    7 ar  
    11    6   11 ar  
    12    7    8 ar  
    13    7   22 1   
    14    8    9 ar  
    15    8   23 1   
    16    9   10 ar  
    17    9   12 1   
    18   10   11 ar  
    19   10   24 1   
    20   11   25 1   
    21   12   13 2   
    22   12   16 1   
    23   13   14 1   
    24   14   15 2   
    25   15   16 1   
    26   16   26 1   
    27   17   18 1   
    28   17   27 1   
    29   18   19 2   
@<TRIPOS>SUBSTRUCTURE
     1 3K1         1 TEMP              0 ****  ****    0 ROOT
