@<TRIPOS>MOLECULE
3K2
   70    74     1     0     0
SMALL
bcc


@<TRIPOS>ATOM
      1 C01         0.0790    0.3230    0.6350 ca        1 3K2     -0.167600
      2 C02         1.4180    0.5740    0.9930 ca        1 3K2     -0.093000
      3 C03         1.7940    0.7050    2.3200 ca        1 3K2     -0.138000
      4 C04         0.8050    0.5540    3.3030 ca        1 3K2     -0.028200
      5 C05        -0.5790    0.3650    2.9380 ca        1 3K2     -0.096800
      6 C06        -0.9300    0.2630    1.5940 ca        1 3K2     -0.038000
      7 N07         0.9080    0.5730    4.7080 na        1 3K2     -0.064400
      8 C08        -0.3950    0.3260    5.2240 cc        1 3K2     -0.069300
      9 C09        -1.3190    0.2500    4.1810 cd        1 3K2     -0.115400
     10 C10        -2.7700    0.0960    4.3010 c3        1 3K2     -0.027900
     11 C11        -0.6810    0.2360    6.6680 c3        1 3K2     -0.042900
     12 C12         2.1230    0.2030    5.3940 c3        1 3K2      0.079600
     13 C13         2.8720   -0.9280    4.7450 ca        1 3K2     -0.109300
     14 C14        -0.2630    0.0760   -0.7950 c         1 3K2      0.679700
     15 O15        -1.1930    0.6660   -1.3800 o         1 3K2     -0.607100
     16 N16         0.4910   -0.8980   -1.4260 ns        1 3K2     -0.574900
     17 C17         0.3670   -1.1910   -2.8340 c3        1 3K2      0.142000
     18 C18         1.6250   -0.8400   -3.6040 ca        1 3K2     -0.058300
     19 C19         0.0400   -2.6660   -3.1000 c3        1 3K2     -0.105100
     20 C20         4.1610   -0.7190    4.2450 ca        1 3K2     -0.116500
     21 C21         4.8000   -1.7170    3.5140 ca        1 3K2     -0.108500
     22 C22         4.1480   -2.9310    3.2580 cp        1 3K2     -0.058000
     23 C23         2.8880   -3.1670    3.8230 ca        1 3K2     -0.108500
     24 C24         2.2590   -2.1730    4.5700 ca        1 3K2     -0.116500
     25 C25         4.7820   -3.9300    2.3950 cp        1 3K2      0.009000
     26 C26         6.0250   -4.4640    2.7660 ca        1 3K2     -0.123000
     27 C27         6.6640   -5.4050    1.9620 ca        1 3K2     -0.105000
     28 C28         6.0740   -5.8200    0.7670 ca        1 3K2     -0.128000
     29 C29         4.8460   -5.2920    0.3790 ca        1 3K2     -0.091000
     30 C30         4.1980   -4.3510    1.1890 ca        1 3K2     -0.105600
     31 C31         2.8630   -1.3750   -3.2280 ca        1 3K2     -0.133000
     32 C32         4.0140   -1.0640   -3.9460 ca        1 3K2     -0.070000
     33 C33         3.9190   -0.2070   -5.0560 ca        1 3K2     -0.179200
     34 C34         2.6840    0.3390   -5.4390 ca        1 3K2     -0.070000
     35 C35         1.5440    0.0190   -4.7050 ca        1 3K2     -0.133000
     36 N36         5.1410    0.1260   -5.8310 no        1 3K2      0.313200
     37 O37         6.1950   -0.3460   -5.4910 o         1 3K2     -0.212500
     38 O38         5.0500    0.8570   -6.7810 o         1 3K2     -0.212500
     39 C39         2.9110   -3.8080    0.7110 c         1 3K2      0.671700
     40 O40         1.8100   -4.3300    1.3190 oh        1 3K2     -0.594100
     41 O41         2.7010   -2.9830   -0.1860 o         1 3K2     -0.572000
     42 H1          2.1830    0.6670    0.2060 ha        1 3K2      0.140000
     43 H2          2.8410    0.8900    2.5980 ha        1 3K2      0.142000
     44 H3         -1.9790    0.1240    1.2920 ha        1 3K2      0.152000
     45 H4         -3.0250   -0.8180    4.8950 hc        1 3K2      0.043033
     46 H5         -3.2410    0.0040    3.2910 hc        1 3K2      0.043033
     47 H6         -3.2180    0.9820    4.8200 hc        1 3K2      0.043033
     48 H7         -0.2640   -0.7110    7.0970 hc        1 3K2      0.053033
     49 H8         -0.2390    1.1010    7.2240 hc        1 3K2      0.053033
     50 H9         -1.7890    0.2390    6.8250 hc        1 3K2      0.053033
     51 H10         2.7820    1.1200    5.4230 h1        1 3K2      0.067200
     52 H11         1.8670   -0.0770    6.4570 h1        1 3K2      0.067200
     53 H12         1.0080   -3.9170    0.9540 ho        1 3K2      0.448000
     54 H13        -0.4900   -0.5650   -3.2360 h1        1 3K2      0.095700
     55 H14         0.8430   -3.3310   -2.7010 hc        1 3K2      0.045700
     56 H15        -0.0470   -2.8260   -4.2010 hc        1 3K2      0.045700
     57 H16        -0.9290   -2.9400   -2.6190 hc        1 3K2      0.045700
     58 H17         4.6670    0.2460    4.4080 ha        1 3K2      0.140500
     59 H18         5.8090   -1.5430    3.1090 ha        1 3K2      0.148000
     60 H19         2.3810   -4.1290    3.6460 ha        1 3K2      0.148000
     61 H20         1.2600   -2.3580    4.9950 ha        1 3K2      0.140500
     62 H21         6.4920   -4.1330    3.7070 ha        1 3K2      0.146000
     63 H22         7.6360   -5.8200    2.2700 ha        1 3K2      0.142000
     64 H23         6.5790   -6.5610    0.1300 ha        1 3K2      0.144000
     65 H24         4.3820   -5.6100   -0.5670 ha        1 3K2      0.145000
     66 H25         2.9360   -2.0480   -2.3560 ha        1 3K2      0.160500
     67 H26         4.9900   -1.4850   -3.6490 ha        1 3K2      0.169500
     68 H27         2.6190    1.0160   -6.3080 ha        1 3K2      0.169500
     69 H28         0.5750    0.4540   -4.9960 ha        1 3K2      0.160500
     70 H162        1.2410   -1.3320   -0.9360 hn        1 3K2      0.329500
@<TRIPOS>BOND
     1    1    2 ar  
     2    1    6 ar  
     3    1   14 1   
     4    2    3 ar  
     5    2   42 1   
     6    3    4 ar  
     7    3   43 1   
     8    4    5 ar  
     9    4    7 1   
    10    5    6 ar  
    11    5    9 1   
    12    6   44 1   
    13    7    8 1   
    14    7   12 1   
    15    8    9 2   
    16    8   11 1   
    17    9   10 1   
    18   10   45 1   
    19   10   46 1   
    20   10   47 1   
    21   11   48 1   
    22   11   49 1   
    23   11   50 1   
    24   12   13 1   
    25   12   51 1   
    26   12   52 1   
    27   13   20 ar  
    28   13   24 ar  
    29   14   15 2   
    30   14   16 1   
    31   16   17 1   
    32   16   70 1   
    33   17   18 1   
    34   17   19 1   
    35   17   54 1   
    36   18   31 ar  
    37   18   35 ar  
    38   19   55 1   
    39   19   56 1   
    40   19   57 1   
    41   20   21 ar  
    42   20   58 1   
    43   21   22 ar  
    44   21   59 1   
    45   22   23 ar  
    46   22   25 1   
    47   23   24 ar  
    48   23   60 1   
    49   24   61 1   
    50   25   26 ar  
    51   25   30 ar  
    52   26   27 ar  
    53   26   62 1   
    54   27   28 ar  
    55   27   63 1   
    56   28   29 ar  
    57   28   64 1   
    58   29   30 ar  
    59   29   65 1   
    60   30   39 1   
    61   31   32 ar  
    62   31   66 1   
    63   32   33 ar  
    64   32   67 1   
    65   33   34 ar  
    66   33   36 1   
    67   34   35 ar  
    68   34   68 1   
    69   35   69 1   
    70   36   37 1   
    71   36   38 1   
    72   39   40 1   
    73   39   41 2   
    74   40   53 1   
@<TRIPOS>SUBSTRUCTURE
     1 3K2         1 TEMP              0 ****  ****    0 ROOT
