@<TRIPOS>MOLECULE
3K2
   70    74     1     0     0
SMALL
bcc


@<TRIPOS>ATOM
      1 C01         0.4100    0.0830    0.7500 ca        1 3K2     -0.224600
      2 C02         1.7460    0.1650    1.2010 ca        1 3K2     -0.068000
      3 C03         2.0310    0.3940    2.5340 ca        1 3K2     -0.124000
      4 C04         0.9580    0.4950    3.4360 ca        1 3K2      0.004800
      5 C05        -0.4060    0.5480    2.9570 ca        1 3K2     -0.109800
      6 C06        -0.6660    0.3520    1.6070 ca        1 3K2     -0.011000
      7 N07         0.9550    0.5590    4.8380 na        1 3K2     -0.059400
      8 C08        -0.4060    0.6300    5.2480 cc        1 3K2     -0.058300
      9 C09        -1.2450    0.6800    4.1340 cd        1 3K2     -0.117400
     10 C10        -2.7010    0.8340    4.1360 c3        1 3K2     -0.027900
     11 C11        -0.8100    0.6870    6.6660 c3        1 3K2     -0.044900
     12 C12         1.9960   -0.0570    5.6380 c3        1 3K2      0.083600
     13 C13         2.7230   -1.1640    4.9280 ca        1 3K2     -0.134300
     14 C14         0.1000   -0.3840   -0.6060 c         1 3K2      0.583700
     15 O15        -0.8150    0.0050   -1.3310 o         1 3K2     -0.496100
     16 N16         0.9570   -1.5090   -1.0770 n4        1 3K2     -0.710800
     17 C17         0.7190   -1.9680   -2.4830 c3        1 3K2      0.187800
     18 C18         1.6210   -1.2550   -3.4580 ca        1 3K2     -0.096300
     19 C19         0.9270   -3.4800   -2.5960 c3        1 3K2     -0.115100
     20 C20         4.1060   -1.0850    4.7390 ca        1 3K2     -0.122000
     21 C21         4.7550   -2.0140    3.9280 ca        1 3K2     -0.109000
     22 C22         4.0250   -3.0150    3.2720 cp        1 3K2     -0.016000
     23 C23         2.6520   -3.1380    3.5250 ca        1 3K2     -0.109000
     24 C24         2.0120   -2.2310    4.3650 ca        1 3K2     -0.122000
     25 C25         4.6920   -3.9160    2.3290 cp        1 3K2     -0.030000
     26 C26         5.7510   -4.7100    2.7970 ca        1 3K2     -0.122000
     27 C27         6.4130   -5.5870    1.9430 ca        1 3K2     -0.136000
     28 C28         6.0310   -5.6730    0.6040 ca        1 3K2     -0.128000
     29 C29         4.9910   -4.8800    0.1280 ca        1 3K2     -0.114000
     30 C30         4.3130   -3.9980    0.9810 ca        1 3K2     -0.077600
     31 C31         3.0120   -1.3110   -3.3160 ca        1 3K2     -0.122000
     32 C32         3.8370   -0.6790   -4.2450 ca        1 3K2     -0.070500
     33 C33         3.2570    0.0090   -5.3220 ca        1 3K2     -0.163200
     34 C34         1.8620    0.0730   -5.4690 ca        1 3K2     -0.070500
     35 C35         1.0510   -0.5590   -4.5300 ca        1 3K2     -0.122000
     36 N36         4.1300    0.6810   -6.3220 no        1 3K2      0.311200
     37 O37         5.3220    0.6190   -6.1890 o         1 3K2     -0.203000
     38 O38         3.6170    1.2690   -7.2370 o         1 3K2     -0.203000
     39 C39         3.2200   -3.1680    0.3830 c         1 3K2      0.922200
     40 O40         2.0030   -3.5280    0.4700 o         1 3K2     -0.858800
     41 O41         3.5090   -2.1100   -0.2720 o         1 3K2     -0.858800
     42 H1          2.5920    0.0130    0.5080 ha        1 3K2      0.168000
     43 H2          3.0730    0.4350    2.8870 ha        1 3K2      0.164000
     44 H3         -1.6980    0.3610    1.2230 ha        1 3K2      0.150000
     45 H4         -3.1840    0.0430    4.7640 hc        1 3K2      0.044033
     46 H5         -2.9900    1.8330    4.5550 hc        1 3K2      0.044033
     47 H6         -3.1080    0.7580    3.0980 hc        1 3K2      0.044033
     48 H7         -0.6890   -0.3150    7.1510 hc        1 3K2      0.056367
     49 H8         -1.8860    0.9850    6.7300 hc        1 3K2      0.056367
     50 H9         -0.1980    1.4310    7.2340 hc        1 3K2      0.056367
     51 H10         2.7260    0.7570    5.9210 h1        1 3K2      0.065700
     52 H11         1.5330   -0.4550    6.5870 h1        1 3K2      0.065700
     53 H12         1.9770   -1.2650   -0.9580 hn        1 3K2      0.513800
     54 H13        -0.3610   -1.7320   -2.7360 hx        1 3K2      0.101700
     55 H14         1.9260   -3.7770   -2.1870 hc        1 3K2      0.071367
     56 H15         0.8660   -3.7720   -3.6710 hc        1 3K2      0.071367
     57 H16         0.1380   -4.0260   -2.0230 hc        1 3K2      0.071367
     58 H17         4.6830   -0.2750    5.2100 ha        1 3K2      0.133000
     59 H18         5.8420   -1.9420    3.7700 ha        1 3K2      0.154500
     60 H19         2.0750   -3.9250    3.0090 ha        1 3K2      0.154500
     61 H20         0.9320   -2.3310    4.5500 ha        1 3K2      0.133000
     62 H21         6.0520   -4.6380    3.8530 ha        1 3K2      0.131000
     63 H22         7.2360   -6.2080    2.3230 ha        1 3K2      0.129000
     64 H23         6.5520   -6.3630   -0.0750 ha        1 3K2      0.129000
     65 H24         4.6930   -4.9370   -0.9300 ha        1 3K2      0.131000
     66 H25         3.4740   -1.8520   -2.4640 ha        1 3K2      0.178000
     67 H26         4.9350   -0.7210   -4.1320 ha        1 3K2      0.178000
     68 H27         1.4140    0.6210   -6.3160 ha        1 3K2      0.178000
     69 H28        -0.0440   -0.5030   -4.6380 ha        1 3K2      0.178000
     70 H162        0.8460   -2.3300   -0.4170 hn        1 3K2      0.513800
@<TRIPOS>BOND
     1    1    2 ar  
     2    1    6 ar  
     3    1   14 1   
     4    2    3 ar  
     5    2   42 1   
     6    3    4 ar  
     7    3   43 1   
     8    4    5 ar  
     9    4    7 1   
    10    5    6 ar  
    11    5    9 1   
    12    6   44 1   
    13    7    8 1   
    14    7   12 1   
    15    8    9 2   
    16    8   11 1   
    17    9   10 1   
    18   10   45 1   
    19   10   46 1   
    20   10   47 1   
    21   11   48 1   
    22   11   49 1   
    23   11   50 1   
    24   12   13 1   
    25   12   51 1   
    26   12   52 1   
    27   13   20 ar  
    28   13   24 ar  
    29   14   15 2   
    30   14   16 1   
    31   16   17 1   
    32   16   53 1   
    33   16   70 1   
    34   17   18 1   
    35   17   19 1   
    36   17   54 1   
    37   18   31 ar  
    38   18   35 ar  
    39   19   55 1   
    40   19   56 1   
    41   19   57 1   
    42   20   21 ar  
    43   20   58 1   
    44   21   22 ar  
    45   21   59 1   
    46   22   23 ar  
    47   22   25 1   
    48   23   24 ar  
    49   23   60 1   
    50   24   61 1   
    51   25   26 ar  
    52   25   30 ar  
    53   26   27 ar  
    54   26   62 1   
    55   27   28 ar  
    56   27   63 1   
    57   28   29 ar  
    58   28   64 1   
    59   29   30 ar  
    60   29   65 1   
    61   30   39 1   
    62   31   32 ar  
    63   31   66 1   
    64   32   33 ar  
    65   32   67 1   
    66   33   34 ar  
    67   33   36 1   
    68   34   35 ar  
    69   34   68 1   
    70   35   69 1   
    71   36   37 1   
    72   36   38 1   
    73   39   40 1   
    74   39   41 1   
@<TRIPOS>SUBSTRUCTURE
     1 3K2         1 TEMP              0 ****  ****    0 ROOT
