@<TRIPOS>MOLECULE
3K6
   56    56     1     0     0
SMALL
bcc


@<TRIPOS>ATOM
      1 C1         -0.2350   -0.5570   -0.5010 c3        1 3K6     -0.057000
      2 C2          2.9540   -0.5060    0.5290 c1        1 3K6     -0.061000
      3 C3          2.9030    0.3980    4.0050 c1        1 3K6     -0.016000
      4 O1         -0.2550    3.9410    7.9180 o         1 3K6     -0.874000
      5 C11        -2.3790    0.7750    7.7800 c3        1 3K6     -0.168000
      6 C12        -2.6220    2.9290    6.7580 c2        1 3K6      0.201000
      7 C13         1.5160   -0.7000    2.4800 c2        1 3K6      0.153000
      8 C14         0.3680   -1.3400    1.7500 c3        1 3K6     -0.004000
      9 C15        -1.5470    0.1550    1.4390 c2        1 3K6      0.063000
     10 C16        -2.5160   -0.6120    1.9720 c2        1 3K6     -0.239000
     11 C17        -2.3820    2.5350    4.5760 c1        1 3K6     -0.014000
     12 C18        -2.8300    2.3290    2.0020 c3        1 3K6      0.193000
     13 C19        -3.3510    4.7000    1.7890 c2        1 3K6     -0.073000
     14 C20        -0.8070    2.3200    0.5640 c1        1 3K6      0.339000
     15 C21        -1.6690    1.6260    1.3130 c2        1 3K6     -0.411000
     16 O          -0.3650    2.0990    9.4660 o         1 3K6     -0.874000
     17 N2         -1.8770    2.0960    7.4500 n3        1 3K6     -0.575000
     18 C8          0.7840    1.7590    7.2440 c2        1 3K6     -0.943000
     19 C7          0.8380    0.2630    7.3820 c3        1 3K6     -0.038000
     20 C6          0.4060   -0.3790    6.1560 c2        1 3K6     -0.203000
     21 C9          1.6840    2.3560    6.4360 c2        1 3K6      0.057000
     22 C10        -0.5190   -1.1470    5.3820 c1        1 3K6      0.053000
     23 C5          0.7000   -0.5920    4.8410 c2        1 3K6     -0.056000
     24 C4          1.6120   -0.3390    3.8180 c2        1 3K6     -0.222000
     25 N1          3.4850    0.3990    2.7970 n7        1 3K6     -0.213000
     26 N           2.7130   -0.2700    1.8000 n3        1 3K6     -0.092000
     27 N3         -0.3040   -0.3490    0.9360 n3        1 3K6     -0.289000
     28 C          -1.0460   -1.7080   -1.0690 c3        1 3K6     -0.247000
     29 N5         -3.1930    3.5410    1.2900 n2        1 3K6     -0.193000
     30 N4         -2.5710    2.4390    3.4250 n2        1 3K6     -0.245000
     31 H1          0.8590   -0.7090   -0.7480 h1        1 3K6      0.114000
     32 H2         -0.5730    0.4060   -0.9840 h1        1 3K6      0.114000
     33 H3          3.9040   -0.1350    0.0950 ha        1 3K6      0.090000
     34 H4          4.3780    0.7590    2.5440 hn        1 3K6      0.280000
     35 H5         -1.9280    0.0120    7.0800 h1        1 3K6      0.141000
     36 H6         -3.4970    0.7180    7.6840 h1        1 3K6      0.141000
     37 H7         -2.1000    0.5310    8.8440 h1        1 3K6      0.141000
     38 H8         -3.5210   -1.3060    6.0360 ha        1 3K6      0.000500
     39 H9         -2.2430    3.9580    6.5580 h4        1 3K6      0.186000
     40 H10        -3.6830    2.6960    6.5230 h4        1 3K6      0.186000
     41 H11         0.7700   -2.1790    1.1080 h1        1 3K6      0.132000
     42 H12        -0.3080   -1.7840    2.5400 h1        1 3K6      0.132000
     43 H13        -2.4350   -1.7060    2.0330 ha        1 3K6      0.131500
     44 H14        -3.4450   -0.2110    2.3900 ha        1 3K6      0.131500
     45 H15        -3.2140    5.0160    2.8410 h4        1 3K6      0.136000
     46 H16        -3.6660    5.5030    1.0910 h4        1 3K6      0.136000
     47 H17         0.1990   -0.0740    8.2480 hc        1 3K6      0.132000
     48 H18         1.8950   -0.0550    7.6190 hc        1 3K6      0.132000
     49 H19         2.4420    1.7760    5.8670 ha        1 3K6      0.172500
     50 H20         1.7100    3.4520    6.3000 ha        1 3K6      0.172500
     51 H21        -0.6800   -2.6890   -0.6830 hc        1 3K6      0.087000
     52 H22        -0.9440   -1.7070   -2.1820 hc        1 3K6      0.087000
     53 H23        -2.1280   -1.6080   -0.8110 hc        1 3K6      0.087000
     54 H24        -3.7560    1.6620    1.9130 h2        1 3K6      0.162000
     55 H211       -2.9730   -1.6020    5.7660 ha        1 3K6      0.000500
     56 S          -0.3050    2.5650    8.1600 s6        1 3K6      2.822000
@<TRIPOS>BOND
     1    1   27 1   
     2    1   28 1   
     3    1   31 1   
     4    1   32 1   
     5    2   26 1   
     6    2   33 1   
     7    3   24 1   
     8    3   25 1   
     9    4   56 1   
    10    5   17 1   
    11    5   35 1   
    12    5   36 1   
    13    5   37 1   
    14    6   17 1   
    15    6   39 1   
    16    6   40 1   
    17    7    8 1   
    18    7   24 1   
    19    7   26 1   
    20    8   27 1   
    21    8   41 1   
    22    8   42 1   
    23    9   10 1   
    24    9   15 1   
    25    9   27 1   
    26   10   43 1   
    27   10   44 1   
    28   11   30 1   
    29   12   15 1   
    30   12   29 1   
    31   12   30 1   
    32   12   54 1   
    33   13   29 1   
    34   13   45 1   
    35   13   46 1   
    36   14   15 1   
    37   16   56 1   
    38   17   56 1   
    39   18   19 1   
    40   18   21 1   
    41   18   56 1   
    42   19   20 1   
    43   19   47 1   
    44   19   48 1   
    45   20   22 1   
    46   20   23 1   
    47   21   49 1   
    48   21   50 1   
    49   22   23 1   
    50   23   24 1   
    51   25   26 1   
    52   25   34 1   
    53   28   51 1   
    54   28   52 1   
    55   28   53 1   
    56   38   55 1   
@<TRIPOS>SUBSTRUCTURE
     1 3K6         1 TEMP              0 ****  ****    0 ROOT
