@<TRIPOS>MOLECULE
3K6
   56    59     1     0     0
SMALL
bcc


@<TRIPOS>ATOM
      1 C1         -0.7680    1.3360    0.1960 c3        1 3K6      0.145900
      2 C2         -0.6780    2.6720    0.9490 c2        1 3K6      0.303200
      3 C3         -0.7200    3.2840    4.4450 c1        1 3K6      0.228100
      4 O1          0.0040    0.6400    9.9000 o         1 3K6     -0.569200
      5 C11         2.1640    3.3910    7.9830 c3        1 3K6      0.148600
      6 C12         3.4090    1.3290    7.8600 c3        1 3K6      0.148600
      7 C13        -0.4260    1.3750    3.0040 c3        1 3K6      0.023200
      8 C14        -1.4210    0.3570    2.4300 c3        1 3K6      0.168800
      9 C15        -2.7360    0.0180    0.4070 c2        1 3K6      0.025800
     10 C16        -3.6580   -0.8060    0.9290 c2        1 3K6     -0.210000
     11 C17        -5.0660   -0.2220   -3.5470 c1        1 3K6      0.516800
     12 C18        -2.8930   -0.2810   -2.1320 c3        1 3K6      0.463000
     13 C19        -0.9930    0.9660   -2.3440 c2        1 3K6      0.408200
     14 C20        -1.6090    1.5670   -1.0920 c3        1 3K6     -0.175000
     15 C21        -2.9010    0.7300   -0.9070 c3        1 3K6     -0.073500
     16 O          -2.3580    0.5440    9.6710 o         1 3K6     -0.612800
     17 N2          2.1190    1.9510    8.0230 n3        1 3K6     -0.850200
     18 C8         -1.0440   -1.6770    9.4010 ce        1 3K6     -0.413300
     19 C7         -0.8910   -1.8210    7.9020 cy        1 3K6      0.015000
     20 C6         -0.9380   -0.3380    7.6480 ce        1 3K6     -0.540900
     21 C9         -1.0890   -2.6540   10.2960 c2        1 3K6      0.030000
     22 C10        -0.7670    1.0290    5.4950 ch        1 3K6     -0.000300
     23 C5         -0.8570    0.3380    6.5500 cg        1 3K6      0.011700
     24 C4         -0.6740    1.8030    4.4460 cf        1 3K6     -0.209000
     25 N1         -0.6080    3.7360    3.1990 n3        1 3K6     -0.220700
     26 N          -0.5070    2.6840    2.2430 nh        1 3K6     -0.093400
     27 N3         -1.4470    0.2780    0.9790 nh        1 3K6     -0.613400
     28 C           0.6780    0.9460   -0.1440 c3        1 3K6     -0.099100
     29 N5         -1.6580    0.0190   -2.9120 n2        1 3K6     -0.513900
     30 N4         -4.0860   -0.2310   -2.8840 n1        1 3K6     -0.871300
     31 H1          0.6350    1.0020    2.8900 h1        1 3K6      0.128700
     32 H2         -1.8260    2.6500   -1.2590 hc        1 3K6      0.088700
     33 H3         -0.7510    3.6170    0.3690 h4        1 3K6      0.071800
     34 H4         -0.5560    4.6800    2.8710 hn        1 3K6      0.351700
     35 H5          2.5350    3.7200    6.9760 h1        1 3K6      0.027867
     36 H6          2.8360    3.8450    8.7630 h1        1 3K6      0.027867
     37 H7          1.1270    3.7890    8.1340 h1        1 3K6      0.027867
     38 H8          1.6950    1.6450    8.8830 hn        1 3K6      0.382800
     39 H9          3.2840    0.2170    7.9210 h1        1 3K6      0.027867
     40 H10         4.1640    1.6430    8.6320 h1        1 3K6      0.027867
     41 H11        -1.0970   -0.6610    2.8020 h1        1 3K6      0.091700
     42 H12        -2.4500    0.5650    2.8480 h1        1 3K6      0.091700
     43 H13        -3.5360   -1.3270    1.8870 ha        1 3K6      0.143500
     44 H14        -4.5940   -1.0100    0.3910 ha        1 3K6      0.143500
     45 H15        -3.8180    1.3670   -0.8980 hc        1 3K6      0.106700
     46 H16        -0.0350    1.3330   -2.7410 h4        1 3K6      0.055800
     47 H17        -1.7320   -2.3780    7.4210 hc        1 3K6      0.098700
     48 H18         0.0750   -2.2920    7.5960 hc        1 3K6      0.098700
     49 H19        -1.0150   -3.7160   10.0140 ha        1 3K6      0.139000
     50 H20        -1.2020   -2.4650   11.3760 ha        1 3K6      0.139000
     51 H21         1.2850    0.7990    0.7800 hc        1 3K6      0.070367
     52 H22         1.1430    1.7500   -0.7640 hc        1 3K6      0.070367
     53 H23         0.6880   -0.0120   -0.7220 hc        1 3K6      0.070367
     54 H24        -2.7760   -1.3420   -1.7380 h2        1 3K6      0.109700
     55 H211        3.8200    1.5910    6.8490 h1        1 3K6      0.027867
     56 S          -1.1170    0.0140    9.3890 sy        1 3K6      1.806100
@<TRIPOS>BOND
     1    1    2 1   
     2    1   14 1   
     3    1   27 1   
     4    1   28 1   
     5    2   26 2   
     6    2   33 1   
     7    3   24 2   
     8    3   25 2   
     9    4   56 1   
    10    5   17 1   
    11    5   35 1   
    12    5   36 1   
    13    5   37 1   
    14    6   17 1   
    15    6   39 1   
    16    6   40 1   
    17    6   55 1   
    18    7    8 1   
    19    7   24 1   
    20    7   26 1   
    21    7   31 1   
    22    8   27 1   
    23    8   41 1   
    24    8   42 1   
    25    9   10 2   
    26    9   15 1   
    27    9   27 1   
    28   10   43 1   
    29   10   44 1   
    30   11   30 3   
    31   12   15 1   
    32   12   29 1   
    33   12   30 1   
    34   12   54 1   
    35   13   14 1   
    36   13   29 2   
    37   13   46 1   
    38   14   15 1   
    39   14   32 1   
    40   15   45 1   
    41   16   56 2   
    42   17   38 1   
    43   18   19 1   
    44   18   21 2   
    45   18   56 1   
    46   19   20 1   
    47   19   47 1   
    48   19   48 1   
    49   20   23 1   
    50   20   56 2   
    51   21   49 1   
    52   21   50 1   
    53   22   23 3   
    54   22   24 1   
    55   25   26 1   
    56   25   34 1   
    57   28   51 1   
    58   28   52 1   
    59   28   53 1   
@<TRIPOS>SUBSTRUCTURE
     1 3K6         1 TEMP              0 ****  ****    0 ROOT
