@<TRIPOS>MOLECULE
3K7
   37    39     1     0     0
SMALL
bcc


@<TRIPOS>ATOM
      1 C1          0.0520   -0.0270   -0.0140 ca        1 3K7     -0.161000
      2 C2          1.4590   -0.0120   -0.0110 ca        1 3K7     -0.026800
      3 C3          2.1500    0.0030    1.2030 ca        1 3K7     -0.090000
      4 C4          1.4550   -0.0010    2.4140 ca        1 3K7     -0.186000
      5 C5          0.0610   -0.0160    2.4220 ca        1 3K7      0.113100
      6 C6         -0.6480   -0.0290    1.1890 ca        1 3K7      0.096100
      7 O1         -0.7250   -0.0230    3.5560 os        1 3K7     -0.302900
      8 O2         -2.0240   -0.0570    1.3000 os        1 3K7     -0.304900
      9 C7          2.1580   -0.0280   -1.2790 cc        1 3K7     -0.052300
     10 C8          1.9040   -0.8190   -2.4430 cd        1 3K7      0.055400
     11 N9          2.8030   -0.5230   -3.4550 nd        1 3K7     -0.267600
     12 C10         3.6230    0.4420   -2.9540 cc        1 3K7     -0.126300
     13 N11         3.2650    0.7800   -1.6030 na        1 3K7      0.210200
     14 C12         4.7470    1.1420   -3.5640 cc        1 3K7      0.294600
     15 C13         5.3960    2.0870   -2.7700 cd        1 3K7     -0.385300
     16 C14         4.9220    2.3150   -1.4390 cd        1 3K7      0.509300
     17 N18         3.8890    1.6880   -0.8580 nc        1 3K7     -0.506800
     18 C9          0.8360   -1.8280   -2.5700 c3        1 3K7     -0.024900
     19 CL          5.7570    3.4890   -0.5170 cl        1 3K7     -0.129000
     20 N12         5.0880    0.8680   -4.8560 nh        1 3K7     -0.851200
     21 C11        -2.7480    0.0790    0.0830 c3        1 3K7      0.110700
     22 C15        -0.0270    0.0160    4.7960 c3        1 3K7      0.109700
     23 H1         -0.4820   -0.0300   -0.9760 ha        1 3K7      0.146000
     24 H2          3.2500    0.0160    1.2180 ha        1 3K7      0.149000
     25 H3          2.0200    0.0120    3.3570 ha        1 3K7      0.142000
     26 H4          6.2530    2.6620   -3.1400 ha        1 3K7      0.162000
     27 H5         -0.0380   -1.3940   -3.1190 hc        1 3K7      0.053033
     28 H6          0.4960   -2.1520   -1.5550 hc        1 3K7      0.053033
     29 H7          1.1950   -2.7250   -3.1350 hc        1 3K7      0.053033
     30 H8          4.6360    0.1330   -5.3420 hn        1 3K7      0.446300
     31 H9          5.9070    1.2690   -5.2360 hn        1 3K7      0.446300
     32 H10        -2.5670   -0.8000   -0.5830 h1        1 3K7      0.043700
     33 H11        -3.8160    0.1040    0.4190 h1        1 3K7      0.043700
     34 H12        -2.4760    1.0280   -0.4400 h1        1 3K7      0.043700
     35 H13         0.5850    0.9470    4.8780 h1        1 3K7      0.044700
     36 H14        -0.8510    0.0160    5.5540 h1        1 3K7      0.044700
     37 H15         0.6180   -0.8890    4.9150 h1        1 3K7      0.044700
@<TRIPOS>BOND
     1    1    2 ar  
     2    1    6 ar  
     3    1   23 1   
     4    2    3 ar  
     5    2    9 1   
     6    3    4 ar  
     7    3   24 1   
     8    4    5 ar  
     9    4   25 1   
    10    5    6 ar  
    11    5    7 1   
    12    6    8 1   
    13    7   22 1   
    14    8   21 1   
    15    9   10 2   
    16    9   13 1   
    17   10   11 1   
    18   10   18 1   
    19   11   12 2   
    20   12   13 1   
    21   12   14 1   
    22   13   17 1   
    23   14   15 2   
    24   14   20 1   
    25   15   16 1   
    26   15   26 1   
    27   16   17 2   
    28   16   19 1   
    29   18   27 1   
    30   18   28 1   
    31   18   29 1   
    32   20   30 1   
    33   20   31 1   
    34   21   32 1   
    35   21   33 1   
    36   21   34 1   
    37   22   35 1   
    38   22   36 1   
    39   22   37 1   
@<TRIPOS>SUBSTRUCTURE
     1 3K7         1 TEMP              0 ****  ****    0 ROOT
