@<TRIPOS>MOLECULE
3K7
   37    39     1     0     0
SMALL
bcc


@<TRIPOS>ATOM
      1 C1          0.0510   -0.0180   -0.0130 ca        1 3K7     -0.161000
      2 C2          1.4580   -0.0130   -0.0120 ca        1 3K7     -0.026800
      3 C3          2.1510   -0.0130    1.2000 ca        1 3K7     -0.090000
      4 C4          1.4590   -0.0200    2.4120 ca        1 3K7     -0.186000
      5 C5          0.0640   -0.0250    2.4230 ca        1 3K7      0.113100
      6 C6         -0.6460   -0.0240    1.1920 ca        1 3K7      0.096100
      7 O1         -0.7190   -0.0330    3.5580 os        1 3K7     -0.302900
      8 O2         -2.0230   -0.0420    1.3040 os        1 3K7     -0.304900
      9 C7          2.1550   -0.0260   -1.2820 cc        1 3K7     -0.052300
     10 C8          1.8930   -0.8070   -2.4510 cd        1 3K7      0.055400
     11 N9          2.7920   -0.5100   -3.4630 nd        1 3K7     -0.267600
     12 C10         3.6200    0.4450   -2.9560 cc        1 3K7     -0.126300
     13 N11         3.2670    0.7760   -1.6020 na        1 3K7      0.210200
     14 C12         4.7490    1.1410   -3.5630 cc        1 3K7      0.294600
     15 C13         5.4060    2.0750   -2.7640 cd        1 3K7     -0.385300
     16 C14         4.9360    2.2970   -1.4290 cd        1 3K7      0.509300
     17 N18         3.8990    1.6740   -0.8510 nc        1 3K7     -0.506800
     18 C9          0.8170   -1.8070   -2.5830 c3        1 3K7     -0.024900
     19 Cl          5.7810    3.4590   -0.5010 cl        1 3K7     -0.129000
     20 N12         5.0850    0.8730   -4.8570 nv        1 3K7     -0.851200
     21 C11        -2.7480    0.1090    0.0890 c3        1 3K7      0.110700
     22 C15        -0.0190   -0.0090    4.7970 c3        1 3K7      0.109700
     23 H1         -0.4840   -0.0100   -0.9740 ha        1 3K7      0.146000
     24 H2          3.2520   -0.0070    1.2140 ha        1 3K7      0.149000
     25 H3          2.0250   -0.0180    3.3540 ha        1 3K7      0.142000
     26 H4          6.2670    2.6470   -3.1300 ha        1 3K7      0.162000
     27 H5          1.1690   -2.7020   -3.1550 hc        1 3K7      0.053033
     28 H6         -0.0540   -1.3630   -3.1270 hc        1 3K7      0.053033
     29 H7          0.4770   -2.1360   -1.5690 hc        1 3K7      0.053033
     30 H8          5.9070    1.2710   -5.2360 hn        1 3K7      0.446300
     31 H9          4.6270    0.1450   -5.3470 hn        1 3K7      0.446300
     32 H10        -2.4690    1.0590   -0.4270 h1        1 3K7      0.043700
     33 H11        -3.8140    0.1400    0.4270 h1        1 3K7      0.043700
     34 H12        -2.5740   -0.7670   -0.5830 h1        1 3K7      0.043700
     35 H13        -0.8420   -0.0080    5.5570 h1        1 3K7      0.044700
     36 H14         0.6190   -0.9190    4.9080 h1        1 3K7      0.044700
     37 H15         0.6000    0.9160    4.8850 h1        1 3K7      0.044700
@<TRIPOS>BOND
     1    1    2 ar  
     2    1    6 ar  
     3    1   23 1   
     4    2    3 ar  
     5    2    9 1   
     6    3    4 ar  
     7    3   24 1   
     8    4    5 ar  
     9    4   25 1   
    10    5    6 ar  
    11    5    7 1   
    12    6    8 1   
    13    7   22 1   
    14    8   21 1   
    15    9   10 2   
    16    9   13 1   
    17   10   11 1   
    18   10   18 1   
    19   11   12 2   
    20   12   13 1   
    21   12   14 1   
    22   13   17 1   
    23   14   15 2   
    24   14   20 1   
    25   15   16 1   
    26   15   26 1   
    27   16   17 2   
    28   16   19 1   
    29   18   27 1   
    30   18   28 1   
    31   18   29 1   
    32   20   30 1   
    33   20   31 1   
    34   21   32 1   
    35   21   33 1   
    36   21   34 1   
    37   22   35 1   
    38   22   36 1   
    39   22   37 1   
@<TRIPOS>SUBSTRUCTURE
     1 3K7         1 TEMP              0 ****  ****    0 ROOT
