@<TRIPOS>MOLECULE
3K9
   49    53     1     0     0
SMALL
bcc


@<TRIPOS>ATOM
      1 C12        -0.4940   -0.7920    0.5440 ca        1 3K9     -0.127000
      2 C11         0.8170   -0.4270    0.2420 ca        1 3K9     -0.126000
      3 C13        -0.9130   -0.8340    1.8730 ca        1 3K9     -0.126000
      4 C10         1.7130   -0.0960    1.2560 ca        1 3K9     -0.116000
      5 C14        -0.0340   -0.5140    2.9040 ca        1 3K9     -0.116000
      6 C26        -4.3800    1.5930    7.6780 ca        1 3K9     -0.164000
      7 C27        -3.4540    1.9150    6.6980 ca        1 3K9     -0.094000
      8 C23        -6.7800    0.2330   10.9810 cc        1 3K9     -0.289300
      9 C5          3.1160    1.1180    5.4940 cc        1 3K9     -0.259300
     10 C19        -2.6080    1.5280    9.3430 ca        1 3K9     -0.163000
     11 C24        -5.8470    0.7850   11.9470 cc        1 3K9      0.311200
     12 C6          4.0020    0.1720    4.8570 cc        1 3K9      0.291200
     13 C22        -6.1570    0.4070    9.7460 cd        1 3K9     -0.127300
     14 C9          1.2870   -0.1310    2.5990 ca        1 3K9      0.019800
     15 C20        -3.9660    1.3840    9.0120 ca        1 3K9      0.071800
     16 C17        -2.0900    2.0680    7.0090 ca        1 3K9      0.090600
     17 C18        -1.6720    1.8750    8.3530 ca        1 3K9      0.168900
     18 C4          1.9660    1.1250    4.6890 cd        1 3K9     -0.115200
     19 C29        -1.4160    3.5670    5.2100 cc        1 3K9     -0.042000
     20 C3          0.7720    1.9560    4.8320 cd        1 3K9      0.314900
     21 C30        -0.5530    3.9330    4.2140 cd        1 3K9     -0.031100
     22 C2          0.6540    3.1300    3.9200 c         1 3K9      0.481000
     23 C32        -1.8020    5.8870    3.7080 c3        1 3K9      0.101700
     24 N25        -4.7420    1.2530   11.3270 nd        1 3K9     -0.497800
     25 N7          3.4180   -0.3540    3.7510 nd        1 3K9     -0.491800
     26 N15        -0.0970    1.6440    5.7850 nc        1 3K9     -0.328400
     27 N21        -4.9180    1.0350   10.0030 na        1 3K9      0.135300
     28 N8          2.1980    0.2000    3.6470 na        1 3K9      0.170300
     29 N16        -1.1590    2.4150    5.9760 na        1 3K9     -0.193900
     30 O1          1.4650    3.3980    3.0330 o         1 3K9     -0.490100
     31 O31        -0.7030    5.0330    3.4050 os        1 3K9     -0.279900
     32 F28        -0.3780    2.0190    8.7110 f         1 3K9     -0.110900
     33 H1         -1.1940   -1.0500   -0.2640 ha        1 3K9      0.134000
     34 H2          1.1530   -0.3960   -0.8060 ha        1 3K9      0.135500
     35 H3         -1.9450   -1.1310    2.1150 ha        1 3K9      0.135500
     36 H4          2.7470    0.1900    1.0050 ha        1 3K9      0.152500
     37 H5         -0.3730   -0.5670    3.9500 ha        1 3K9      0.152500
     38 H7         -3.8000    2.0570    5.6610 ha        1 3K9      0.154000
     39 H8         -7.7440   -0.2140   11.1920 ha        1 3K9      0.172000
     40 H9          3.3050    1.6970    6.3900 ha        1 3K9      0.171000
     41 H10        -2.2460    1.3820   10.3750 ha        1 3K9      0.185000
     42 H11        -5.9690    0.8410   13.0300 h4        1 3K9      0.050100
     43 H12         5.0050   -0.1180    5.1710 h4        1 3K9      0.045100
     44 H13        -6.4690    0.1330    8.7390 h4        1 3K9      0.180000
     45 H14        -2.3240    4.1290    5.4820 h4        1 3K9      0.170000
     46 H15        -1.6960    6.7160    2.9630 h1        1 3K9      0.047367
     47 H16        -1.7230    6.2790    4.7510 h1        1 3K9      0.047367
     48 H17        -2.7700    5.3480    3.5650 h1        1 3K9      0.047367
     49 H6         -5.4410    1.5040    7.3960 ha        1 3K9      0.151000
@<TRIPOS>BOND
     1    1    2 ar  
     2    1    3 ar  
     3    1   33 1   
     4    2    4 ar  
     5    2   34 1   
     6    3    5 ar  
     7    3   35 1   
     8    4   14 ar  
     9    4   36 1   
    10    5   14 ar  
    11    5   37 1   
    12    6    7 ar  
    13    6   15 ar  
    14    6   49 1   
    15    7   16 ar  
    16    7   38 1   
    17    8   11 1   
    18    8   13 2   
    19    8   39 1   
    20    9   12 1   
    21    9   18 2   
    22    9   40 1   
    23   10   15 ar  
    24   10   17 ar  
    25   10   41 1   
    26   11   24 2   
    27   11   42 1   
    28   12   25 2   
    29   12   43 1   
    30   13   27 1   
    31   13   44 1   
    32   14   28 1   
    33   15   27 1   
    34   16   17 ar  
    35   16   29 1   
    36   17   32 1   
    37   18   20 1   
    38   18   28 1   
    39   19   21 2   
    40   19   29 1   
    41   19   45 1   
    42   20   22 1   
    43   20   26 2   
    44   21   22 1   
    45   21   31 1   
    46   22   30 2   
    47   23   31 1   
    48   23   46 1   
    49   23   47 1   
    50   23   48 1   
    51   24   27 1   
    52   25   28 1   
    53   26   29 1   
@<TRIPOS>SUBSTRUCTURE
     1 3K9         1 TEMP              0 ****  ****    0 ROOT
