@<TRIPOS>MOLECULE
3K9
   49    53     1     0     0
SMALL
bcc


@<TRIPOS>ATOM
      1 C12        -0.5140   -0.8120    0.5470 ca        1 3K9     -0.127000
      2 C11         0.7970   -0.4540    0.2420 ca        1 3K9     -0.126000
      3 C13        -0.9310   -0.8480    1.8770 ca        1 3K9     -0.126000
      4 C10         1.6970   -0.1230    1.2530 ca        1 3K9     -0.116000
      5 C14        -0.0490   -0.5280    2.9050 ca        1 3K9     -0.116000
      6 C26        -4.3750    1.6120    7.6870 ca        1 3K9     -0.164000
      7 C27        -3.4500    1.9270    6.7030 ca        1 3K9     -0.094000
      8 C23        -6.7700    0.2750   11.0020 cc        1 3K9     -0.289300
      9 C5          3.1140    1.0990    5.4840 cc        1 3K9     -0.259300
     10 C19        -2.5980    1.5470    9.3470 ca        1 3K9     -0.163000
     11 C24        -5.8320    0.8260   11.9630 cc        1 3K9      0.311200
     12 C6          3.9940    0.1480    4.8480 cc        1 3K9      0.291200
     13 C22        -6.1500    0.4420    9.7640 cd        1 3K9     -0.127300
     14 C9          1.2730   -0.1510    2.5960 ca        1 3K9      0.019800
     15 C20        -3.9580    1.4070    9.0210 ca        1 3K9      0.071800
     16 C17        -2.0840    2.0760    7.0090 ca        1 3K9      0.090600
     17 C18        -1.6630    1.8860    8.3520 ca        1 3K9      0.168900
     18 C4          1.9620    1.1080    4.6820 cd        1 3K9     -0.115200
     19 C29        -1.4100    3.5660    5.2030 cc        1 3K9     -0.042000
     20 C3          0.7710    1.9440    4.8240 cd        1 3K9      0.314900
     21 C30        -0.5480    3.9240    4.2030 cd        1 3K9     -0.031100
     22 C2          0.6550    3.1160    3.9090 c         1 3K9      0.481000
     23 C32        -1.7900    5.8810    3.6950 c3        1 3K9      0.101700
     24 N25        -4.7270    1.2870   11.3380 nd        1 3K9     -0.497800
     25 N7          3.4050   -0.3790    3.7450 nd        1 3K9     -0.491800
     26 N15        -0.0970    1.6390    5.7810 nc        1 3K9     -0.328400
     27 N21        -4.9080    1.0660   10.0150 na        1 3K9      0.135300
     28 N8          2.1870    0.1800    3.6420 na        1 3K9      0.170300
     29 N16        -1.1550    2.4150    5.9720 na        1 3K9     -0.193900
     30 O1          1.4650    3.3780    3.0190 o         1 3K9     -0.490100
     31 O31        -0.6960    5.0220    3.3900 os        1 3K9     -0.279900
     32 F28        -0.3670    2.0260    8.7070 f         1 3K9     -0.110900
     33 H1         -1.2180   -1.0700   -0.2580 ha        1 3K9      0.134000
     34 H2          1.1310   -0.4270   -0.8070 ha        1 3K9      0.135500
     35 H3         -1.9640   -1.1390    2.1220 ha        1 3K9      0.135500
     36 H4          2.7310    0.1590    0.9980 ha        1 3K9      0.152500
     37 H5         -0.3870   -0.5760    3.9520 ha        1 3K9      0.152500
     38 H7         -3.7980    2.0660    5.6660 ha        1 3K9      0.154000
     39 H8         -7.7360   -0.1670   11.2170 ha        1 3K9      0.172000
     40 H9          3.3060    1.6800    6.3780 ha        1 3K9      0.171000
     41 H10        -2.2340    1.4030   10.3780 ha        1 3K9      0.185000
     42 H11        -5.9510    0.8860   13.0460 h4        1 3K9      0.050100
     43 H12         4.9960   -0.1450    5.1610 h4        1 3K9      0.045100
     44 H13        -6.4670    0.1660    8.7590 h4        1 3K9      0.180000
     45 H14        -2.3150    4.1320    5.4750 h4        1 3K9      0.170000
     46 H15        -1.7060    6.2770    4.7360 h1        1 3K9      0.047367
     47 H16        -2.7610    5.3460    3.5560 h1        1 3K9      0.047367
     48 H17        -1.6840    6.7080    2.9460 h1        1 3K9      0.047367
     49 H6         -5.4370    1.5270    7.4090 ha        1 3K9      0.151000
@<TRIPOS>BOND
     1    1    2 ar  
     2    1    3 ar  
     3    1   33 1   
     4    2    4 ar  
     5    2   34 1   
     6    3    5 ar  
     7    3   35 1   
     8    4   14 ar  
     9    4   36 1   
    10    5   14 ar  
    11    5   37 1   
    12    6    7 ar  
    13    6   15 ar  
    14    6   49 1   
    15    7   16 ar  
    16    7   38 1   
    17    8   11 1   
    18    8   13 2   
    19    8   39 1   
    20    9   12 1   
    21    9   18 2   
    22    9   40 1   
    23   10   15 ar  
    24   10   17 ar  
    25   10   41 1   
    26   11   24 2   
    27   11   42 1   
    28   12   25 2   
    29   12   43 1   
    30   13   27 1   
    31   13   44 1   
    32   14   28 1   
    33   15   27 1   
    34   16   17 ar  
    35   16   29 1   
    36   17   32 1   
    37   18   20 1   
    38   18   28 1   
    39   19   21 2   
    40   19   29 1   
    41   19   45 1   
    42   20   22 1   
    43   20   26 2   
    44   21   22 1   
    45   21   31 1   
    46   22   30 2   
    47   23   31 1   
    48   23   46 1   
    49   23   47 1   
    50   23   48 1   
    51   24   27 1   
    52   25   28 1   
    53   26   29 1   
@<TRIPOS>SUBSTRUCTURE
     1 3K9         1 TEMP              0 ****  ****    0 ROOT
