@<TRIPOS>MOLECULE
3KA
   31    32     1     0     0
SMALL
bcc


@<TRIPOS>ATOM
      1 O4          0.3280   -0.0820   -0.8910 o         1 3KA     -0.685500
      2 C4          1.5630   -0.0520   -0.6990 c         1 3KA      0.718700
      3 N3          2.0100   -0.0370    0.6400 ns        1 3KA     -0.597500
      4 C2          3.3720   -0.0160    0.9830 c         1 3KA      0.792500
      5 O2          3.6930   -0.0370    2.1990 o         1 3KA     -0.703500
      6 C5          2.6010   -0.0370   -1.7150 cc        1 3KA     -0.381200
      7 C6          3.9250   -0.0030   -1.3760 cd        1 3KA      0.094600
      8 N1          4.3300    0.0240   -0.0520 n         1 3KA     -0.375000
      9 C1'         5.7520   -0.0140    0.3470 c3        1 3KA      0.308500
     10 O4'         6.5810   -0.3450   -0.7520 os        1 3KA     -0.389600
     11 C2'         6.2890    1.3070    0.9510 c3        1 3KA     -0.138400
     12 C3'         7.4940    1.6820    0.0710 c3        1 3KA      0.111100
     13 O3'         8.7030    1.4420    0.7740 oh        1 3KA     -0.624800
     14 C4'         7.3280    0.8160   -1.1900 c3        1 3KA      0.032100
     15 C5'         6.6090    1.6060   -2.3090 c3        1 3KA      0.227400
     16 O5'         6.1790    0.7990   -3.3200 os        1 3KA     -0.554200
     17 P           7.3120    0.7980   -4.6870 p5        1 3KA      1.311900
     18 OP1         7.2370    2.2380   -5.1030 o         1 3KA     -0.922167
     19 OP2         8.5460    0.4250   -3.9050 o         1 3KA     -0.922167
     20 O1          6.7180   -0.2290   -5.6000 o         1 3KA     -0.922167
     21 H1          1.3550   -0.0520    1.3860 hn        1 3KA      0.323500
     22 H2          2.2850   -0.0460   -2.7650 ha        1 3KA      0.183000
     23 H3          4.7480    0.0060   -2.1560 h4        1 3KA      0.293000
     24 H4          5.8410   -0.8660    1.0850 h2        1 3KA      0.065700
     25 H5          6.5970    1.1350    2.0090 hc        1 3KA      0.057700
     26 H6          5.5270    2.1210    0.9310 hc        1 3KA      0.057700
     27 H7          7.5090    2.7760   -0.1720 h1        1 3KA      0.080700
     28 H8          8.9970    0.5530    0.5410 ho        1 3KA      0.405000
     29 H9          8.2820    0.3850   -1.6170 h1        1 3KA      0.165700
     30 H10         5.7230    2.1270   -1.8300 h1        1 3KA     -0.005300
     31 H11         7.3370    2.3810   -2.6870 h1        1 3KA     -0.005300
@<TRIPOS>BOND
     1    1    2 2   
     2    2    3 1   
     3    2    6 1   
     4    3    4 1   
     5    3   21 1   
     6    4    5 2   
     7    4    8 1   
     8    6    7 2   
     9    6   22 1   
    10    7    8 1   
    11    7   23 1   
    12    8    9 1   
    13    9   10 1   
    14    9   11 1   
    15    9   24 1   
    16   10   14 1   
    17   11   12 1   
    18   11   25 1   
    19   11   26 1   
    20   12   13 1   
    21   12   14 1   
    22   12   27 1   
    23   13   28 1   
    24   14   15 1   
    25   14   29 1   
    26   15   16 1   
    27   15   30 1   
    28   15   31 1   
    29   16   17 1   
    30   17   18 1   
    31   17   19 1   
    32   17   20 1   
@<TRIPOS>SUBSTRUCTURE
     1 3KA         1 TEMP              0 ****  ****    0 ROOT
