@<TRIPOS>MOLECULE
3KB
   45    46     1     0     0
SMALL
bcc


@<TRIPOS>ATOM
      1 C26        -2.8450    0.4050   -0.7760 c3        1 3KB     -0.109000
      2 C25         4.2490   -1.3480    2.1010 c1        1 3KB      0.279000
      3 C27        -2.0100   -0.1330    0.2480 c1        1 3KB     -0.190000
      4 C14        -1.0890    4.3480    0.2520 c3        1 3KB     -0.211000
      5 C13        -1.9710    5.4900    0.4400 c1        1 3KB     -0.053000
      6 C24         4.8300   -0.3670    2.7610 c2        1 3KB     -0.539000
      7 C28        -1.3140   -0.5910    1.1080 c1        1 3KB     -0.213000
      8 C15        -0.5160    3.6980    1.4500 c2        1 3KB     -0.081000
      9 C19         2.5120    1.1760    6.5490 c2        1 3KB     -0.209000
     10 C7         -1.6960    5.3010    2.8690 c2        1 3KB      0.074000
     11 C20         1.1360   -0.9150    3.4500 c1        1 3KB      0.167000
     12 C8         -2.2340    5.9100    1.7680 c2        1 3KB     -0.267000
     13 C23         4.3010    0.5740    3.7190 c1        1 3KB      0.028000
     14 C6         -0.8050    4.1660    2.6990 c2        1 3KB      0.001000
     15 C18         2.7190    1.6600    5.1290 c3        1 3KB      0.106000
     16 C4         -1.0710    3.5970    4.9920 c1        1 3KB     -0.107000
     17 C17         1.3990    2.4000    4.8890 c2        1 3KB     -0.053000
     18 C3         -0.6370    2.9760    6.3110 c3        1 3KB      0.090000
     19 C29         0.6960    2.3620    6.1610 c2        1 3KB     -0.272000
     20 C1         -2.8570    2.4770    6.9950 c3        1 3KB     -0.076000
     21 N21         2.0340   -0.2130    3.7850 n2        1 3KB     -0.320000
     22 N16         0.9530    2.9580    3.7920 n2        1 3KB     -0.074000
     23 N22         3.0380    0.6030    4.1500 n3        1 3KB     -0.023000
     24 N5         -0.2880    3.5550    3.9070 n3        1 3KB     -0.068000
     25 O30         1.3650    1.6190    7.0700 os        1 3KB      0.150000
     26 O2         -1.5630    1.9640    6.7080 os        1 3KB     -0.258000
     27 F10        -3.3770    7.4970    3.2320 f         1 3KB     -0.166000
     28 F11        -2.7380    8.2510    1.3100 f         1 3KB     -0.166000
     29 F12        -4.4370    6.9010    1.4440 f         1 3KB     -0.166000
     30 H1         -2.6800    1.5090   -0.8810 hc        1 3KB      0.090667
     31 H2         -3.9260    0.2320   -0.5340 hc        1 3KB      0.090667
     32 H3         -2.6220   -0.0810   -1.7620 hc        1 3KB      0.090667
     33 H4         -1.6710    3.5780   -0.3440 hc        1 3KB      0.178500
     34 H5         -0.2500    4.6870   -0.4310 hc        1 3KB      0.178500
     35 H6          5.9180   -0.1820    2.5850 ha        1 3KB      0.227000
     36 H7         -0.6980   -0.9990    1.8750 ha        1 3KB      0.237000
     37 H8          0.1410    2.8300    1.2750 ha        1 3KB      0.162000
     38 H9          3.5810    2.3970    5.1060 h1        1 3KB      0.197000
     39 H10        -1.9310    5.6390    3.8980 ha        1 3KB      0.185000
     40 H11         3.1470    0.5630    7.1820 h4        1 3KB      0.224000
     41 H12        -0.6220    3.7970    7.0870 h1        1 3KB      0.122000
     42 H13        -3.2790    3.0080    6.1070 h1        1 3KB      0.084333
     43 H14        -2.8140    3.1670    7.8730 h1        1 3KB      0.084333
     44 H15        -3.4570    1.5650    7.2390 h1        1 3KB      0.084333
     45 C9         -3.1700    7.1040    1.9280 c3        1 3KB      0.486000
@<TRIPOS>BOND
     1    1    3 1   
     2    1   30 1   
     3    1   31 1   
     4    1   32 1   
     5    2    6 1   
     6    3    7 1   
     7    4    5 1   
     8    4    8 1   
     9    4   33 1   
    10    4   34 1   
    11    5   12 1   
    12    6   13 1   
    13    6   35 1   
    14    7   36 1   
    15    8   14 1   
    16    8   37 1   
    17    9   15 1   
    18    9   25 1   
    19    9   40 1   
    20   10   12 1   
    21   10   14 1   
    22   10   39 1   
    23   11   21 1   
    24   12   45 1   
    25   13   23 1   
    26   14   24 1   
    27   15   17 1   
    28   15   23 1   
    29   15   38 1   
    30   16   18 1   
    31   16   24 1   
    32   17   19 1   
    33   17   22 1   
    34   18   19 1   
    35   18   26 1   
    36   18   41 1   
    37   19   25 1   
    38   20   26 1   
    39   20   42 1   
    40   20   43 1   
    41   20   44 1   
    42   21   23 1   
    43   22   24 1   
    44   27   45 1   
    45   28   45 1   
    46   29   45 1   
@<TRIPOS>SUBSTRUCTURE
     1 3KB         1 TEMP              0 ****  ****    0 ROOT
