@<TRIPOS>MOLECULE
3KC
   37    48     1     0     0
SMALL
bcc


@<TRIPOS>ATOM
      1 C4          0.0000    0.0000    0.0000 c2        1 3KC      0.097000
      2 C5          1.3980    0.0000    0.0000 c2        1 3KC     -0.218000
      3 C6          2.0930    0.0000    1.2140 c3        1 3KC     -0.003000
      4 C8          1.3970    0.0020    2.4040 c2        1 3KC     -0.264000
      5 C13         2.4730   -3.2570   -4.8080 ca        1 3KC      0.317000
      6 C15         3.7910   -1.3140   -5.2990 ca        1 3KC     -0.252000
      7 C17         3.9640    0.6020   -3.8880 c2        1 3KC      0.134000
      8 C21         4.3320    2.6860   -2.6680 c2        1 3KC     -0.031000
      9 C24         3.0730    2.3190   -0.8260 c2        1 3KC     -0.038000
     10 C26         3.7460    1.4270   -2.7780 c3        1 3KC     -0.330000
     11 C2          0.0080    0.0020    2.3980 DU        1 3KC     -0.087000
     12 C3         -0.6870    0.0070    1.1930 c2        1 3KC     -0.037000
     13 Cl7         3.8290   -0.0010    1.2210 cl        1 3KC      0.133000
     14 C9          2.1380   -0.0020   -1.2770 c2        1 3KC      0.259000
     15 N10         2.0130   -1.0810   -2.0230 n2        1 3KC     -0.101000
     16 C11         2.5260   -1.4410   -3.2280 ca        1 3KC     -0.083000
     17 C12         2.0700   -2.7070   -3.6100 ca        1 3KC      0.031000
     18 C14         3.3310   -2.5690   -5.6500 ca        1 3KC      0.176000
     19 C16         3.3930   -0.7420   -4.1000 ca        1 3KC     -0.101000
     20 C18         4.7930    1.0810   -4.8900 c3        1 3KC     -0.505000
     21 C19         5.3490    2.3450   -4.7230 c2        1 3KC     -0.145000
     22 N20         5.1190    3.0930   -3.6600 n2        1 3KC     -0.050000
     23 N22         3.9020    3.2040   -1.4700 n7        1 3KC     -0.247000
     24 C25         2.9330    1.2040   -1.5750 c3        1 3KC     -0.340000
     25 H4         -0.2070   -0.1220    1.0560 ha        1 3KC     -0.063000
     26 H8          0.8530    0.0020    1.4670 DU        1 3KC      0.131000
     27 H13         2.4070   -2.8560   -3.8040 ha        1 3KC     -0.032000
     28 H15         3.2550   -2.2520   -5.2330 ha        1 3KC      0.055000
     29 H24         3.3180    1.7740   -1.7300 DU        1 3KC      0.362000
     30 HO1        -0.0970    0.4410    2.9680 DU        1 3KC      0.306000
     31 H3         -0.7000   -0.5170    2.1410 DU        1 3KC      0.329000
     32 H12         1.4500   -2.2700   -2.8360 ha        1 3KC      0.258000
     33 H14         2.7120   -2.7900   -4.7890 ha        1 3KC     -0.367000
     34 H18         4.5210    0.1130   -5.2930 hc        1 3KC      0.354000
     35 H19         5.1750    1.4150   -5.2510 DU        1 3KC      0.373000
     36 HN22        4.3620    3.1010   -2.3530 hn        1 3KC      0.324000
     37 O1         -0.6740    0.0040    3.5720 oh        1 3KC     -0.343000
@<TRIPOS>BOND
     1    1    2 1   
     2    1   12 1   
     3    1   25 1   
     4    2    3 1   
     5    2   14 1   
     6    3    4 1   
     7    3   13 1   
     8    3   26 1   
     9    4   11 1   
    10    4   26 1   
    11    5   17 1   
    12    5   18 1   
    13    5   27 1   
    14    6   18 1   
    15    6   19 1   
    16    6   28 1   
    17    7   10 1   
    18    7   19 1   
    19    7   20 1   
    20    8   10 1   
    21    8   22 1   
    22    8   23 1   
    23    9   23 1   
    24    9   24 1   
    25    9   29 1   
    26   10   24 1   
    27   10   29 1   
    28   11   12 1   
    29   11   26 1   
    30   11   30 1   
    31   11   31 1   
    32   11   37 1   
    33   12   31 1   
    34   14   15 1   
    35   14   24 1   
    36   15   16 1   
    37   16   17 1   
    38   16   19 1   
    39   17   32 1   
    40   18   33 1   
    41   20   21 1   
    42   20   34 1   
    43   20   35 1   
    44   21   22 1   
    45   21   35 1   
    46   23   36 1   
    47   24   29 1   
    48   30   37 1   
@<TRIPOS>SUBSTRUCTURE
     1 3KC         1 TEMP              0 ****  ****    0 ROOT
