@<TRIPOS>MOLECULE
3KC
   37    40     1     0     0
SMALL
bcc


@<TRIPOS>ATOM
      1 C4          0.7740    1.5890   -0.4370 c2        1 3KC     -0.423000
      2 C5          1.5610    0.4070   -0.1430 c2        1 3KC     -0.015000
      3 C6          1.4780   -0.1740    1.0800 c2        1 3KC     -0.013000
      4 C8          0.6760    0.4300    2.1270 c2        1 3KC     -0.319000
      5 C13         3.4840   -3.2850   -4.5770 c3        1 3KC     -0.330000
      6 C15         3.9380   -1.8770   -4.9950 c3        1 3KC     -0.285000
      7 C17         3.5980    0.4730   -4.0080 c2        1 3KC      0.030000
      8 C21         3.7570    2.6640   -2.9810 c2        1 3KC     -0.054000
      9 C24         4.0540    1.5190   -0.4190 c1        1 3KC     -0.135000
     10 C26         3.6770    1.2600   -2.8380 c2        1 3KC     -0.129000
     11 C2         -0.2720   -0.2410    2.8130 c2        1 3KC      0.079000
     12 C3         -0.0550    2.1600    0.4260 c1        1 3KC      0.205000
     13 CL7         2.3260   -1.5950    1.4640 cl        1 3KC     -0.000000
     14 C9          2.4030   -0.1250   -1.2370 c2        1 3KC      0.063000
     15 N10         2.0090   -1.1660   -1.9030 n2        1 3KC     -0.105000
     16 C11         2.7320   -1.6570   -2.9850 c2        1 3KC     -0.041000
     17 C12         2.6950   -3.1460   -3.2910 c3        1 3KC     -0.071000
     18 C14         4.9280   -2.9170   -4.5610 c1        1 3KC      0.230000
     19 C16         3.4340   -0.9590   -3.9430 c2        1 3KC     -0.076000
     20 C18         3.6430    1.1340   -5.2490 c2        1 3KC     -0.163000
     21 C19         3.7400    2.5310   -5.2760 c2        1 3KC     -0.065000
     22 N20         3.7890    3.2950   -4.1650 n2        1 3KC     -0.128000
     23 N22         4.3520    2.2210    0.4580 n1        1 3KC     -0.021000
     24 C25         3.7190    0.6060   -1.4950 c3        1 3KC      0.029000
     25 H4          0.8700    2.0160   -1.4560 ha        1 3KC      0.195000
     26 H8          0.9080    1.4890    2.3600 ha        1 3KC      0.164000
     27 H13         3.1590   -3.7390   -2.4620 hc        1 3KC      0.122000
     28 H15         3.9350   -1.5090   -6.0340 hc        1 3KC      0.164000
     29 H24         4.5430   -0.1810   -1.5220 hc        1 3KC      0.150000
     30 HO1        -0.8280    1.2430    3.8960 ho        1 3KC      0.228000
     31 H3         -0.5390   -1.3040    2.6670 h4        1 3KC      0.179000
     32 H12         1.6400   -3.4930   -3.4270 hc        1 3KC      0.122000
     33 H14         3.1090   -4.0400   -5.2870 hc        1 3KC      0.166000
     34 H18         3.5890    0.5670   -6.1880 ha        1 3KC      0.149000
     35 H19         3.7770    3.0790   -6.2360 h4        1 3KC      0.167000
     36 HN22        3.8040    3.3230   -2.0930 h4        1 3KC      0.173000
     37 O1         -1.0470    0.3040    3.7890 oh        1 3KC     -0.243000
@<TRIPOS>BOND
     1    1    2 1   
     2    1   12 1   
     3    1   25 1   
     4    2    3 1   
     5    2   14 1   
     6    3    4 1   
     7    3   13 1   
     8    4   11 1   
     9    4   26 1   
    10    5    6 1   
    11    5   17 1   
    12    5   18 1   
    13    5   33 1   
    14    6   18 1   
    15    6   19 1   
    16    6   28 1   
    17    7   10 1   
    18    7   19 1   
    19    7   20 1   
    20    8   10 1   
    21    8   22 1   
    22    8   36 1   
    23    9   23 1   
    24    9   24 1   
    25   10   24 1   
    26   11   31 1   
    27   11   37 1   
    28   14   15 1   
    29   14   24 1   
    30   15   16 1   
    31   16   17 1   
    32   16   19 1   
    33   17   27 1   
    34   17   32 1   
    35   20   21 1   
    36   20   34 1   
    37   21   22 1   
    38   21   35 1   
    39   24   29 1   
    40   30   37 1   
@<TRIPOS>SUBSTRUCTURE
     1 3KC         1 TEMP              0 ****  ****    0 ROOT
