@<TRIPOS>MOLECULE
3KE
   53    45     1     0     0
SMALL
bcc


@<TRIPOS>ATOM
      1 C3         -2.2020    0.1210   -0.6360 c1        1 3KE     -0.081000
      2 C22        -0.8200    0.1400   -0.6110 c1        1 3KE     -0.028000
      3 C7         -0.1400   -0.0400    3.1020 c1        1 3KE      0.333000
      4 N2         -0.8860   -0.0670    4.3400 n2        1 3KE     -0.355000
      5 C11        -0.1870   -0.1670    5.6020 c3        1 3KE      0.018000
      6 C9         -2.8750   -0.8150    8.9500 c1        1 3KE      0.001500
      7 C12        -2.4750   -1.8910    8.1650 c2        1 3KE     -0.159500
      8 C14        -1.6400   -1.6790    7.0620 c1        1 3KE     -0.099500
      9 C20        -1.2110   -0.3920    6.7520 c1        1 3KE     -0.151000
     10 C16        -1.6130    0.6840    7.5400 c1        1 3KE     -0.155000
     11 C18        -2.4440    0.4730    8.6380 c1        1 3KE     -0.138000
     12 C2         -2.9150    0.0740    0.5510 c1        1 3KE     -0.148000
     13 C23        -0.1510    0.1120    0.5990 c1        1 3KE     -0.053000
     14 C8         -0.8680    0.0660    1.7840 c2        1 3KE     -0.121000
     15 C6         -2.2490    0.0470    1.7560 c2        1 3KE     -0.086000
     16 O3          1.0730   -0.0850    3.1230 o         1 3KE     -0.382000
     17 C24        -3.8630   -1.0300   10.0920 c1        1 3KE      0.355000
     18 O4         -3.4460   -1.1460   11.2700 o         1 3KE     -0.562000
     19 O5         -5.0970   -1.0920    9.8540 o         1 3KE     -0.562000
     20 N1          0.4450   -0.8440   -2.5240 n2        1 3KE     -0.082500
     21 N5          0.8190   -0.3840   -3.7370 n2        1 3KE     -0.072500
     22 N3          0.5200    0.9250   -3.7930 n2        1 3KE     -0.072500
     23 N4         -0.0390    1.2770   -2.6160 n2        1 3KE     -0.082500
     24 C5         -0.0850    0.1840   -1.8330 c1        1 3KE     -0.083000
     25 C1          1.4010   -1.1540   -4.7850 c2        1 3KE      0.059000
     26 C21         2.9190    1.2670   -7.9950 c1        1 3KE      0.001500
     27 C15         3.5280    1.3090   -6.7520 c2        1 3KE     -0.159500
     28 C10         3.0100    0.5640   -5.6990 c1        1 3KE     -0.099500
     29 C4          1.8800   -0.2220   -5.8940 c1        1 3KE     -0.159000
     30 C19         1.2720   -0.2630   -7.1400 c1        1 3KE     -0.074000
     31 C17         1.7920    0.4820   -8.1910 c1        1 3KE     -0.138000
     32 O1          3.4330    2.0510   -9.0650 o         1 3KE     -0.211000
     33 C13         4.4260    1.3910   -9.8390 c3        1 3KE     -0.077000
     34 H3         -2.6630    0.2240   -1.4620 ha        1 3KE      0.151000
     35 HN2        -1.8020    0.0230    4.3270 hn        1 3KE      0.227000
     36 H11         0.3100    0.6600    5.7650 h1        1 3KE      0.092500
     37 H11A        0.4400   -0.9230    5.5680 h1        1 3KE      0.092500
     38 H12        -2.8520   -2.7870    8.3310 ha        1 3KE      0.149500
     39 H14        -1.3000   -2.4340    6.5630 ha        1 3KE      0.132000
     40 H16        -1.3100    1.5930    7.3220 ha        1 3KE      0.106000
     41 H18        -2.7290    1.2340    9.1930 ha        1 3KE      0.152000
     42 H2         -3.8930    0.0530    0.5330 ha        1 3KE      0.140000
     43 H23         0.8110    0.0720    0.6160 ha        1 3KE      0.166000
     44 H6         -2.7470    0.0010    2.5820 ha        1 3KE      0.149000
     45 H1          0.7310   -1.7760   -5.1460 ha        1 3KE      0.119500
     46 H1A         2.1550   -1.6580   -4.4370 ha        1 3KE      0.119500
     47 H15         4.3080    1.8760   -6.6110 ha        1 3KE      0.149500
     48 H10         3.4390    0.5940   -4.8220 ha        1 3KE      0.132000
     49 H19         0.4730   -0.8180   -7.2790 ha        1 3KE      0.137000
     50 H17         1.3650    0.4530   -9.0640 ha        1 3KE      0.152000
     51 H13         5.2060    1.2270   -9.2900 h1        1 3KE      0.086000
     52 H13A        4.6730    1.9490  -10.5940 h1        1 3KE      0.086000
     53 H13B        4.0730    0.5430  -10.1640 h1        1 3KE      0.086000
@<TRIPOS>BOND
     1    1    2 1   
     2    1   34 1   
     3    3   14 1   
     4    3   16 1   
     5    4    5 1   
     6    4   35 1   
     7    5    9 1   
     8    5   36 1   
     9    5   37 1   
    10    6    7 1   
    11    6   11 1   
    12    7    8 1   
    13    7   38 1   
    14    8   39 1   
    15    9   10 1   
    16   10   40 1   
    17   11   41 1   
    18   12   15 1   
    19   12   42 1   
    20   13   14 1   
    21   13   43 1   
    22   14   15 1   
    23   15   44 1   
    24   17   18 1   
    25   17   19 1   
    26   20   21 1   
    27   20   24 1   
    28   21   22 1   
    29   22   23 1   
    30   23   24 1   
    31   25   29 1   
    32   25   45 1   
    33   25   46 1   
    34   26   27 1   
    35   26   31 1   
    36   27   28 1   
    37   27   47 1   
    38   28   48 1   
    39   29   30 1   
    40   30   49 1   
    41   31   50 1   
    42   32   33 1   
    43   33   51 1   
    44   33   52 1   
    45   33   53 1   
@<TRIPOS>SUBSTRUCTURE
     1 3KE         1 TEMP              0 ****  ****    0 ROOT
