@<TRIPOS>MOLECULE
3KE
   54    52     1     0     0
SMALL
bcc


@<TRIPOS>ATOM
      1 C3          2.2350   -0.7340    1.0990 cu        1 3KE     -0.144000
      2 C22         1.8410    0.4100    0.3310 cu        1 3KE      0.111000
      3 C7          2.2980    1.5640    3.8110 c2        1 3KE      0.218000
      4 N2          3.5090    1.9580    8.0350 n3        1 3KE     -0.340000
      5 C11         2.8810    1.1810    8.9830 c2        1 3KE     -0.016000
      6 C9         -1.0510   -1.4700    9.2420 c1        1 3KE     -0.148000
      7 C12        -0.0500   -0.9360    9.6390 c1        1 3KE     -0.179000
      8 C14         1.1670   -0.2680   10.0040 c3        1 3KE     -0.004000
      9 C20         1.8020    0.3710    8.8030 c2        1 3KE     -0.170000
     10 C16         1.2000    0.0860    7.5210 c2        1 3KE     -0.344000
     11 C18         0.0860   -0.5750    7.2670 c1        1 3KE      0.043000
     12 C2          2.5180   -1.6120    2.0520 c2        1 3KE     -0.164000
     13 C23         1.6730    0.5470    1.6430 cu        1 3KE     -0.133000
     14 C8          1.5680    0.4630    3.0990 c3        1 3KE     -0.088000
     15 C6          2.1470   -0.9790    3.3910 c3        1 3KE     -0.121000
     16 O3          2.8210    1.4170    4.9180 o         1 3KE     -0.319000
     17 O4         -0.9380   -0.9240    4.8220 o         1 3KE     -0.249500
     18 O5         -2.3410   -1.8880    6.4860 o         1 3KE     -0.249500
     19 N1          2.0500    0.3450   -2.1590 n2        1 3KE     -0.022000
     20 N5          1.7720    1.2880   -3.0550 na        1 3KE     -0.168000
     21 N3          1.3160    2.4340   -2.5100 n2        1 3KE      0.008000
     22 N4          1.2750    2.2920   -1.2500 n2        1 3KE     -0.088000
     23 C5          1.7380    0.9610   -0.9670 c2        1 3KE     -0.084000
     24 C21         1.7020    1.0960   -6.7730 c2        1 3KE      0.016000
     25 C15         1.8410   -0.1270   -6.3250 c1        1 3KE     -0.260000
     26 C10         1.9940   -1.3530   -5.9360 c2        1 3KE     -0.107000
     27 C4          0.3930    4.8620   -8.9530 c1        1 3KE     -0.082000
     28 C19         0.3840    4.9900   -7.6920 c1        1 3KE     -0.110000
     29 C17         0.3700    5.1320   -6.4310 c1        1 3KE     -0.082000
     30 C13         0.3590    5.2690   -5.1380 c2        1 3KE     -0.151000
     31 H3          2.9320   -2.6150    1.9940 ha        1 3KE      0.161000
     32 HN2         2.3200    2.5420    3.2810 h4        1 3KE      0.111000
     33 H11         3.2830    1.3140   10.0090 h4        1 3KE      0.133000
     34 H11A        3.2810    1.7870    7.0800 hn        1 3KE      0.201500
     35 H12         1.8830   -1.0090   10.4610 hc        1 3KE      0.103000
     36 H14         0.9510    0.5150   10.7850 hc        1 3KE      0.103000
     37 H16         1.7330    0.4570    6.6140 ha        1 3KE      0.197000
     38 H18        -1.9370   -1.9450    8.8930 ha        1 3KE      0.243000
     39 H2          3.0430   -0.9020    4.0540 hc        1 3KE      0.107000
     40 H23         0.4870    0.4950    3.4280 hc        1 3KE      0.169000
     41 H6          1.3630   -1.5870    3.9050 hc        1 3KE      0.107000
     42 H1         -0.4500    4.3070  -10.7980 ha        1 3KE      0.145000
     43 H1A         1.9010    1.1510   -4.0490 hn        1 3KE      0.333000
     44 H15         1.1490   -1.9750   -5.6020 ha        1 3KE      0.131500
     45 H10         2.9780   -1.8470   -5.9150 ha        1 3KE      0.131500
     46 H19         1.2540    5.0580  -10.8620 ha        1 3KE      0.145000
     47 H17         1.5040    1.3440   -7.8280 h4        1 3KE      0.150000
     48 H13        -0.0240    6.1790   -4.6510 ha        1 3KE      0.145000
     49 H13A        1.4520    2.9390   -6.3250 ho        1 3KE      0.238000
     50 H13B        0.7320    4.4840   -4.4600 ha        1 3KE      0.145000
     51 C24        -1.5840   -1.3800    5.7190 c1        1 3KE      0.473000
     52 H22         4.4750    2.1290    8.1970 hn        1 3KE      0.201500
     53 C1          0.4000    4.7370  -10.2480 c2        1 3KE     -0.151000
     54 O1          1.8330    2.1570   -5.8950 oh        1 3KE     -0.296000
@<TRIPOS>BOND
     1    1    2 1   
     2    1   12 1   
     3    1   13 1   
     4    2   13 1   
     5    2   23 1   
     6    3   14 1   
     7    3   16 1   
     8    3   32 1   
     9    4    5 1   
    10    4   34 1   
    11    4   52 1   
    12    5    9 1   
    13    5   33 1   
    14    6    7 1   
    15    6   38 1   
    16    7    8 1   
    17    8    9 1   
    18    8   35 1   
    19    8   36 1   
    20    9   10 1   
    21   10   11 1   
    22   10   37 1   
    23   12   15 1   
    24   12   31 1   
    25   13   14 1   
    26   14   15 1   
    27   14   40 1   
    28   15   39 1   
    29   15   41 1   
    30   17   51 1   
    31   18   51 1   
    32   19   20 1   
    33   19   23 1   
    34   20   21 1   
    35   20   43 1   
    36   21   22 1   
    37   22   23 1   
    38   24   25 1   
    39   24   47 1   
    40   24   54 1   
    41   25   26 1   
    42   26   44 1   
    43   26   45 1   
    44   27   28 1   
    45   27   53 1   
    46   28   29 1   
    47   29   30 1   
    48   30   48 1   
    49   30   50 1   
    50   42   53 1   
    51   46   53 1   
    52   49   54 1   
@<TRIPOS>SUBSTRUCTURE
     1 3KE         1 TEMP              0 ****  ****    0 ROOT
