@<TRIPOS>MOLECULE
3KE
   53    56     1     0     0
SMALL
bcc


@<TRIPOS>ATOM
      1 C3          0.7270   -0.4280   -2.1330 ca        1 3KE     -0.089000
      2 C22         1.1040   -0.9460   -0.8850 ca        1 3KE     -0.137500
      3 C7         -2.0950   -0.5650    1.0950 c         1 3KE      0.658700
      4 N2         -3.3600   -1.0390    0.8260 n         1 3KE     -0.540900
      5 C11        -4.4570   -0.8720    1.7540 c3        1 3KE      0.135300
      6 C9         -7.9370    0.8330   -0.1190 ca        1 3KE     -0.112600
      7 C12        -7.5090   -0.4560   -0.4550 ca        1 3KE     -0.112000
      8 C14        -6.3850   -1.0080    0.1550 ca        1 3KE     -0.147500
      9 C20        -5.6730   -0.2750    1.1120 ca        1 3KE     -0.160300
     10 C16        -6.1000    1.0110    1.4540 ca        1 3KE     -0.147500
     11 C18        -7.2270    1.5580    0.8430 ca        1 3KE     -0.112000
     12 C2         -0.5700    0.0420   -2.3280 ca        1 3KE     -0.147000
     13 C23         0.1730   -0.9920    0.1620 ca        1 3KE     -0.043000
     14 C8         -1.1290   -0.5270   -0.0480 ca        1 3KE     -0.141600
     15 C6         -1.5010   -0.0060   -1.2900 ca        1 3KE     -0.086000
     16 O3         -1.7340   -0.2410    2.2460 o         1 3KE     -0.612100
     17 O4         -9.5110    2.6000   -0.4520 o         1 3KE     -0.827300
     18 O5         -9.7420    0.7490   -1.6810 o         1 3KE     -0.827300
     19 N1          3.5710   -1.1070   -1.4110 nc        1 3KE     -0.498800
     20 N5          4.5500   -1.8290   -0.8300 na        1 3KE      0.193900
     21 N3          4.0960   -2.5450    0.2380 nc        1 3KE     -0.150800
     22 N4          2.8550   -2.3470    0.3580 nd        1 3KE     -0.360000
     23 C5          2.4620   -1.4260   -0.6780 cd        1 3KE      0.552500
     24 C21         7.9670    1.6320    0.5920 ca        1 3KE      0.139100
     25 C15         8.2550    0.3270    1.0340 ca        1 3KE     -0.185000
     26 C10         7.5920   -0.7480    0.4570 ca        1 3KE     -0.068000
     27 C4          6.6540   -0.5400   -0.5620 ca        1 3KE     -0.164300
     28 C19         6.3720    0.7600   -0.9910 ca        1 3KE     -0.068000
     29 C17         7.0240    1.8510   -0.4210 ca        1 3KE     -0.185000
     30 C13         8.3310    3.9660    0.8790 c3        1 3KE      0.112700
     31 H3          1.4500   -0.3900   -2.9610 ha        1 3KE      0.142000
     32 HN2        -3.6200   -1.1640   -0.1270 hn        1 3KE      0.307500
     33 H11        -4.7160   -1.8950    2.1570 h1        1 3KE      0.056700
     34 H11A       -4.1150   -0.2370    2.6220 h1        1 3KE      0.056700
     35 H12        -8.0830   -1.0150   -1.2110 ha        1 3KE      0.154000
     36 H14        -6.0580   -2.0240   -0.1060 ha        1 3KE      0.109500
     37 H16        -5.5450    1.5910    2.2060 ha        1 3KE      0.109500
     38 H18        -7.5820    2.5690    1.1010 ha        1 3KE      0.154000
     39 H2         -0.8620    0.4540   -3.3050 ha        1 3KE      0.139000
     40 H23         0.4510   -1.3780    1.1570 ha        1 3KE      0.171000
     41 H6         -2.5190    0.3830   -1.4540 ha        1 3KE      0.152000
     42 H1          6.4750   -2.6690   -0.9010 h1        1 3KE      0.079200
     43 H1A         6.0170   -1.6070   -2.3220 h1        1 3KE      0.079200
     44 H15         8.9950    0.1780    1.8340 ha        1 3KE      0.146500
     45 H10         7.8040   -1.7690    0.8090 ha        1 3KE      0.143000
     46 H19         5.6230    0.9260   -1.7820 ha        1 3KE      0.143000
     47 H17         6.7870    2.8670   -0.7650 ha        1 3KE      0.146500
     48 H13         8.5590    4.1680   -0.1960 h1        1 3KE      0.046033
     49 H13A        7.2530    4.1610    1.0960 h1        1 3KE      0.046033
     50 H13B        8.9870    4.5850    1.5440 h1        1 3KE      0.046033
     51 C1          5.9690   -1.7070   -1.2000 c3        1 3KE      0.125600
     52 C24        -9.1560    1.4400   -0.8010 c         1 3KE      0.906200
     53 O1          8.6830    2.6300    1.2210 os        1 3KE     -0.326900
@<TRIPOS>BOND
     1    1    2 ar  
     2    1   12 ar  
     3    1   31 1   
     4    2   13 ar  
     5    2   23 1   
     6    3    4 1   
     7    3   14 1   
     8    3   16 2   
     9    4    5 1   
    10    4   32 1   
    11    5    9 1   
    12    5   33 1   
    13    5   34 1   
    14    6    7 ar  
    15    6   11 ar  
    16    6   52 1   
    17    7    8 ar  
    18    7   35 1   
    19    8    9 ar  
    20    8   36 1   
    21    9   10 ar  
    22   10   11 ar  
    23   10   37 1   
    24   11   38 1   
    25   12   15 ar  
    26   12   39 1   
    27   13   14 ar  
    28   13   40 1   
    29   14   15 ar  
    30   15   41 1   
    31   17   52 1   
    32   18   52 1   
    33   19   20 1   
    34   19   23 2   
    35   20   21 1   
    36   20   51 1   
    37   21   22 2   
    38   22   23 1   
    39   24   25 ar  
    40   24   29 ar  
    41   24   53 1   
    42   25   26 ar  
    43   25   44 1   
    44   26   27 ar  
    45   26   45 1   
    46   27   28 ar  
    47   27   51 1   
    48   28   29 ar  
    49   28   46 1   
    50   29   47 1   
    51   30   48 1   
    52   30   49 1   
    53   30   50 1   
    54   30   53 1   
    55   42   51 1   
    56   43   51 1   
@<TRIPOS>SUBSTRUCTURE
     1 3KE         1 TEMP              0 ****  ****    0 ROOT
