@<TRIPOS>MOLECULE
3KF
   35    35     1     0     0
SMALL
bcc


@<TRIPOS>ATOM
      1 C1          0.1040   -0.4410    0.2640 c2        1 3KF     -0.381000
      2 C2          1.4560    0.0600    0.1810 c2        1 3KF     -0.077000
      3 C3          2.2060    0.5560    1.2040 c2        1 3KF      0.137000
      4 C4          1.7320    0.7160    2.5690 c2        1 3KF     -0.266000
      5 C5          0.3340    1.0630    2.7660 c2        1 3KF     -0.098000
      6 C6         -0.7930   -0.4190    1.2460 c1        1 3KF      0.159000
      7 C7         -0.5330    0.4710    3.6140 c2        1 3KF     -0.059000
      8 C8         -1.9350    0.9580    3.7410 c3        1 3KF     -0.136000
      9 C9         -2.4980    0.7030    5.1370 c3        1 3KF      0.010000
     10 O1          2.0730   -0.0610   -1.0610 oh        1 3KF     -0.286000
     11 C10        -1.3620    0.6870    6.1740 c3        1 3KF     -0.037000
     12 C11        -0.4230   -0.5100    5.9340 c3        1 3KF      0.039000
     13 C12        -0.1930   -0.7170    4.4400 c2        1 3KF     -0.036000
     14 C13         2.5910    0.6430    3.5880 c1        1 3KF      0.343000
     15 O3         -0.9390   -1.6480    6.5990 oh        1 3KF     -0.308000
     16 O4         -1.9060    0.6770    7.4780 oh        1 3KF     -0.322000
     17 O5         -3.4210    1.7440    5.4070 oh        1 3KF     -0.323000
     18 O6          3.5170    0.9340    1.0310 oh        1 3KF     -0.260000
     19 C           0.2630   -1.9350   -1.6080 c1        1 3KF     -0.022000
     20 N           0.2300   -1.8430    3.9910 n2        1 3KF     -0.186000
     21 O          -0.3580   -1.0400   -0.9940 os        1 3KF      0.041000
     22 H1          0.0030    1.9340    2.1670 ha        1 3KF      0.155000
     23 H2         -2.5660    0.4260    2.9740 hc        1 3KF      0.128500
     24 H3         -1.9960    2.0570    3.5160 hc        1 3KF      0.128500
     25 H4         -3.0440   -0.2820    5.1730 h1        1 3KF      0.077000
     26 H5         -0.7850    1.6530    6.1150 h1        1 3KF      0.131000
     27 H6          0.5660   -0.3190    6.4430 h1        1 3KF      0.142000
     28 H7         -1.5640   -2.0890    6.0100 ho        1 3KF      0.215000
     29 H8         -2.1130   -0.2390    7.7130 ho        1 3KF      0.222000
     30 H9         -3.5490    1.7660    6.3670 ho        1 3KF      0.222000
     31 H10         3.7630    0.7790    0.1030 ho        1 3KF      0.246000
     32 H11         1.6040    0.5440   -1.6570 ho        1 3KF      0.225000
     33 H12         1.2100   -2.4140   -1.3190 ha        1 3KF      0.106000
     34 H13         0.3450   -1.8970    2.9980 hn        1 3KF      0.162000
     35 O2          3.3430    0.5780    4.4970 o         1 3KF     -0.093000
@<TRIPOS>BOND
     1    1    2 1   
     2    1    6 1   
     3    1   21 1   
     4    2    3 1   
     5    2   10 1   
     6    3    4 1   
     7    3   18 1   
     8    4    5 1   
     9    4   14 1   
    10    5    7 1   
    11    5   22 1   
    12    7    8 1   
    13    7   13 1   
    14    8    9 1   
    15    8   23 1   
    16    8   24 1   
    17    9   11 1   
    18    9   17 1   
    19    9   25 1   
    20   10   32 1   
    21   11   12 1   
    22   11   16 1   
    23   11   26 1   
    24   12   13 1   
    25   12   15 1   
    26   12   27 1   
    27   13   20 1   
    28   14   35 1   
    29   15   28 1   
    30   16   29 1   
    31   17   30 1   
    32   18   31 1   
    33   19   21 1   
    34   19   33 1   
    35   20   34 1   
@<TRIPOS>SUBSTRUCTURE
     1 3KF         1 TEMP              0 ****  ****    0 ROOT
