@<TRIPOS>MOLECULE
3KF
   35    36     1     0     0
SMALL
bcc


@<TRIPOS>ATOM
      1 C1          0.0600   -0.0810   -0.3580 c2        1 3KF     -0.204000
      2 C2          1.4600    0.2910   -0.2140 c2        1 3KF      0.089000
      3 C3          2.0790    0.5180    0.9830 c2        1 3KF     -0.039000
      4 C4          1.4340    0.3930    2.2760 c2        1 3KF     -0.129000
      5 C5          0.2160    0.9490    2.5590 c2        1 3KF     -0.038000
      6 C6         -0.8920    0.0550    0.5800 c1        1 3KF      0.214000
      7 C7         -0.4330    0.7060    3.8140 c2        1 3KF     -0.144000
      8 C8         -1.7720    1.3070    4.0250 c3        1 3KF     -0.115000
      9 C9         -2.5290    0.6450    5.1700 c3        1 3KF      0.008000
     10 O1          2.1140    0.4100   -1.4150 oh        1 3KF     -0.237000
     11 C10        -1.6170    0.5210    6.4010 c3        1 3KF     -0.035000
     12 C11        -0.4130   -0.3840    6.1070 c3        1 3KF      0.028000
     13 C12         0.2080   -0.0670    4.7610 c2        1 3KF      0.015000
     14 C13         2.1340   -0.3980    3.3040 c2        1 3KF      0.333000
     15 O3         -0.7790   -1.7510    6.1890 oh        1 3KF     -0.316000
     16 O4         -2.3600    0.0450    7.5060 oh        1 3KF     -0.318000
     17 O5         -3.6520    1.4610    5.4530 oh        1 3KF     -0.318000
     18 O6          3.4140    0.8780    0.9220 oh        1 3KF     -0.277000
     19 C          -0.1890   -1.8570   -1.8390 c1        1 3KF     -0.023000
     20 N           1.4570   -0.6050    4.5130 n         1 3KF     -0.262000
     21 O          -0.2930   -0.5560   -1.6520 os        1 3KF     -0.090000
     22 H1         -0.2690    1.6660    1.8660 ha        1 3KF      0.170000
     23 H2         -2.3830    1.2150    3.0870 hc        1 3KF      0.120000
     24 H3         -1.6630    2.4050    4.2440 hc        1 3KF      0.120000
     25 H4         -2.8900   -0.3790    4.8680 h1        1 3KF      0.074000
     26 H5         -1.2660    1.5450    6.7150 h1        1 3KF      0.142000
     27 H6          0.3420   -0.2600    6.9410 h1        1 3KF      0.145000
     28 H7         -1.3370   -1.9560    5.4270 ho        1 3KF      0.213000
     29 H8         -2.4410   -0.9160    7.4210 ho        1 3KF      0.217000
     30 H9         -3.9730    1.2030    6.3300 ho        1 3KF      0.221000
     31 H10         3.8980    0.3070    1.5450 ho        1 3KF      0.252000
     32 H11         3.0550    0.5780   -1.2300 ho        1 3KF      0.246000
     33 H12        -0.4770   -2.0350   -2.9100 ha        1 3KF      0.052000
     34 H13         1.8820   -1.1870    5.2050 hn        1 3KF      0.260000
     35 O2          3.2790   -0.8790    3.1780 o         1 3KF     -0.373000
@<TRIPOS>BOND
     1    1    2 1   
     2    1    6 1   
     3    1   21 1   
     4    2    3 1   
     5    2   10 1   
     6    3    4 1   
     7    3   18 1   
     8    4    5 1   
     9    4   14 1   
    10    5    7 1   
    11    5   22 1   
    12    7    8 1   
    13    7   13 1   
    14    8    9 1   
    15    8   23 1   
    16    8   24 1   
    17    9   11 1   
    18    9   17 1   
    19    9   25 1   
    20   10   32 1   
    21   11   12 1   
    22   11   16 1   
    23   11   26 1   
    24   12   13 1   
    25   12   15 1   
    26   12   27 1   
    27   13   20 1   
    28   14   20 1   
    29   14   35 1   
    30   15   28 1   
    31   16   29 1   
    32   17   30 1   
    33   18   31 1   
    34   19   21 1   
    35   19   33 1   
    36   20   34 1   
@<TRIPOS>SUBSTRUCTURE
     1 3KF         1 TEMP              0 ****  ****    0 ROOT
