@<TRIPOS>MOLECULE
3KF
   35    35     1     0     0
SMALL
bcc


@<TRIPOS>ATOM
      1 C1          0.0750   -0.4270    0.2410 c2        1 3KF     -0.384000
      2 C2          1.4380    0.0410    0.1700 c2        1 3KF     -0.075000
      3 C3          2.1900    0.5310    1.1940 c2        1 3KF      0.135000
      4 C4          1.7140    0.7090    2.5570 c2        1 3KF     -0.264000
      5 C5          0.3150    1.0540    2.7530 c2        1 3KF     -0.105000
      6 C6         -0.8340   -0.3770    1.2130 c1        1 3KF      0.167000
      7 C7         -0.5500    0.4540    3.6000 c2        1 3KF     -0.049000
      8 C8         -1.9520    0.9390    3.7290 c3        1 3KF     -0.133000
      9 C9         -2.5040    0.7430    5.1390 c3        1 3KF      0.008000
     10 O1          2.0650   -0.1020   -1.0650 oh        1 3KF     -0.286000
     11 C10        -1.3630    0.6630    6.1670 c3        1 3KF      0.001000
     12 C11        -0.4960   -0.5810    5.9070 c3        1 3KF      0.042000
     13 C12        -0.1960   -0.7350    4.4170 c2        1 3KF     -0.025000
     14 C13         2.5730    0.6590    3.5760 c1        1 3KF      0.340000
     15 O3         -1.2310   -1.6800    6.4190 oh        1 3KF     -0.331000
     16 O4         -1.8890    0.6640    7.4790 oh        1 3KF     -0.322000
     17 O5         -3.3440    1.8550    5.4090 oh        1 3KF     -0.326000
     18 O6          3.5100    0.8830    1.0270 oh        1 3KF     -0.262000
     19 C           0.2150   -1.9380   -1.6180 c1        1 3KF     -0.023000
     20 N           0.3050   -1.8310    3.9720 n2        1 3KF     -0.210000
     21 O          -0.3880   -1.0200   -1.0190 os        1 3KF      0.040000
     22 H1         -0.0160    1.9310    2.1620 ha        1 3KF      0.156000
     23 H2         -2.5880    0.3720    2.9930 hc        1 3KF      0.128500
     24 H3         -2.0210    2.0270    3.4570 hc        1 3KF      0.128500
     25 H4         -3.1150   -0.2020    5.2000 h1        1 3KF      0.098000
     26 H5         -0.7280    1.5910    6.1170 h1        1 3KF      0.130000
     27 H6          0.4780   -0.4850    6.4670 h1        1 3KF      0.105000
     28 H7         -0.6910   -2.4730    6.3070 ho        1 3KF      0.233000
     29 H8         -2.3130   -0.1930    7.6290 ho        1 3KF      0.224000
     30 H9         -3.4890    1.8710    6.3650 ho        1 3KF      0.219000
     31 H10         3.7560    0.7210    0.1000 ho        1 3KF      0.245000
     32 H11         1.6090    0.5020   -1.6720 ho        1 3KF      0.225000
     33 H12         1.1420   -2.4420   -1.3070 ha        1 3KF      0.104000
     34 H13         0.4630   -1.8690    2.9850 hn        1 3KF      0.162000
     35 O2          3.3250    0.6100    4.4870 o         1 3KF     -0.097000
@<TRIPOS>BOND
     1    1    2 1   
     2    1    6 1   
     3    1   21 1   
     4    2    3 1   
     5    2   10 1   
     6    3    4 1   
     7    3   18 1   
     8    4    5 1   
     9    4   14 1   
    10    5    7 1   
    11    5   22 1   
    12    7    8 1   
    13    7   13 1   
    14    8    9 1   
    15    8   23 1   
    16    8   24 1   
    17    9   11 1   
    18    9   17 1   
    19    9   25 1   
    20   10   32 1   
    21   11   12 1   
    22   11   16 1   
    23   11   26 1   
    24   12   13 1   
    25   12   15 1   
    26   12   27 1   
    27   13   20 1   
    28   14   35 1   
    29   15   28 1   
    30   16   29 1   
    31   17   30 1   
    32   18   31 1   
    33   19   21 1   
    34   19   33 1   
    35   20   34 1   
@<TRIPOS>SUBSTRUCTURE
     1 3KF         1 TEMP              0 ****  ****    0 ROOT
