@<TRIPOS>MOLECULE
3KG
   41    42     1     0     0
SMALL
bcc


@<TRIPOS>ATOM
      1 C12        -2.0060   -0.3170   -0.0580 c2        1 3KG      0.131000
      2 C11         4.4320   -2.5460    2.5960 c2        1 3KG     -0.122000
      3 C13        -2.1810    0.9540   -0.3500 c1        1 3KG     -0.550000
      4 C19        -1.8190    5.1670    0.4640 c3        1 3KG     -0.224000
      5 C20        -2.6900    6.1940    1.0020 c1        1 3KG     -0.060000
      6 C10         4.1550   -1.2920    2.7700 c1        1 3KG     -0.190000
      7 C14        -2.3440    2.1900   -0.6190 c1        1 3KG      0.152000
      8 C18        -1.1050    4.2850    1.4080 c2        1 3KG     -0.065000
      9 C5          2.4050    0.6790    5.4340 c2        1 3KG     -0.281000
     10 C26        -2.1800    5.4310    3.2780 c2        1 3KG      0.068000
     11 C6          0.6610   -0.6520    2.0410 c1        1 3KG      0.107000
     12 C21        -2.8370    6.2610    2.4120 c2        1 3KG     -0.266000
     13 C9          3.9160   -0.0140    2.9170 c2        1 3KG     -0.074000
     14 C17        -1.2860    4.4130    2.7560 c2        1 3KG     -0.015000
     15 C4          2.4420    1.4400    4.1320 c3        1 3KG      0.042000
     16 C28        -0.7440    2.4130    5.9300 c3        1 3KG     -0.118000
     17 C27        -1.2940    3.3300    4.8780 c1        1 3KG     -0.079000
     18 C3          1.1130    2.1940    4.2080 c2        1 3KG     -0.051000
     19 C2          0.5390    1.8470    5.5050 c2        1 3KG     -0.255000
     20 N7          1.5900   -0.0840    2.5080 n2        1 3KG     -0.261000
     21 N15         0.5620    2.9970    3.3350 n2        1 3KG     -0.052000
     22 N8          2.6380    0.6640    2.8750 n3        1 3KG      0.010000
     23 N16        -0.6460    3.5440    3.7220 n3        1 3KG     -0.085000
     24 O1          1.3130    0.9640    6.1610 os        1 3KG      0.130000
     25 F23        -3.8700    7.3920    4.3170 f         1 3KG     -0.168000
     26 F24        -3.4340    8.6190    2.5940 f         1 3KG     -0.168000
     27 F25        -5.0830    7.2040    2.5380 f         1 3KG     -0.168000
     28 H1         -1.1870   -0.6640    0.6050 ha        1 3KG      0.134500
     29 H2         -2.6670   -1.1070   -0.4550 ha        1 3KG      0.134500
     30 H3          4.5580   -2.9860    1.5940 ha        1 3KG      0.140500
     31 H4         -2.4580    4.5020   -0.2160 hc        1 3KG      0.199500
     32 H5         -1.0820    5.6650   -0.2350 hc        1 3KG      0.199500
     33 H6          4.5630   -3.2430    3.4380 ha        1 3KG      0.140500
     34 H7          4.7370    0.7260    3.0110 h4        1 3KG      0.174000
     35 H8         -0.4520    3.5170    0.9600 ha        1 3KG      0.162000
     36 H9          3.2940    2.1850    4.1440 h1        1 3KG      0.165000
     37 H10        -2.3180    5.5020    4.3750 ha        1 3KG      0.183000
     38 H11         3.1000   -0.0400    5.8540 h4        1 3KG      0.214000
     39 H12        -0.6410    3.0030    6.8830 hc        1 3KG      0.140000
     40 H13        -1.5140    1.6120    6.1200 hc        1 3KG      0.140000
     41 C22        -3.7790    7.3370    2.9430 c3        1 3KG      0.485000
@<TRIPOS>BOND
     1    1    3 1   
     2    1   28 1   
     3    1   29 1   
     4    2    6 1   
     5    2   30 1   
     6    2   33 1   
     7    3    7 1   
     8    4    5 1   
     9    4    8 1   
    10    4   31 1   
    11    4   32 1   
    12    5   12 1   
    13    6   13 1   
    14    8   14 1   
    15    8   35 1   
    16    9   15 1   
    17    9   24 1   
    18    9   38 1   
    19   10   12 1   
    20   10   14 1   
    21   10   37 1   
    22   11   20 1   
    23   12   41 1   
    24   13   22 1   
    25   13   34 1   
    26   14   23 1   
    27   15   18 1   
    28   15   22 1   
    29   15   36 1   
    30   16   17 1   
    31   16   19 1   
    32   16   39 1   
    33   16   40 1   
    34   17   23 1   
    35   18   19 1   
    36   18   21 1   
    37   19   24 1   
    38   20   22 1   
    39   21   23 1   
    40   25   41 1   
    41   26   41 1   
    42   27   41 1   
@<TRIPOS>SUBSTRUCTURE
     1 3KG         1 TEMP              0 ****  ****    0 ROOT
