@<TRIPOS>MOLECULE
3KH
   21    23     1     0     0
SMALL
bcc


@<TRIPOS>ATOM
      1 CAA        -0.0480   -0.0240    0.0790 ca        1 3KH     -0.090000
      2 CAF         1.3480   -0.0320    0.0010 ca        1 3KH     -0.073200
      3 NAH         2.3910   -0.0810    0.9390 na        1 3KH     -0.059100
      4 NAI         3.5780   -0.0640    0.2950 nc        1 3KH     -0.131400
      5 NAG         3.4370   -0.0120   -0.9610 nd        1 3KH     -0.214400
      6 CAE         2.0450    0.0140   -1.2700 ca        1 3KH      0.015400
      7 CAD         1.3170    0.0700   -2.4620 ca        1 3KH     -0.042000
      8 CAC        -0.0650    0.0800   -2.3720 ca        1 3KH     -0.155000
      9 CAB        -0.7460    0.0320   -1.1280 ca        1 3KH     -0.084500
     10 CAJ        -2.1970    0.0420   -1.1350 cc        1 3KH      0.378900
     11 S          -3.1090   -0.0210   -2.6020 ss        1 3KH     -0.197800
     12 NAM        -2.9880    0.0950   -0.0340 nd        1 3KH     -0.285000
     13 NAL        -4.2570    0.0690   -0.2820 nd        1 3KH     -0.380000
     14 CAK        -4.5530    0.0120   -1.6280 cc        1 3KH      0.584300
     15 NAO        -5.8170    0.0990   -2.1780 nv        1 3KH     -0.890500
     16 H1         -0.5660   -0.0590    1.0480 ha        1 3KH      0.168000
     17 H2          2.3240   -0.1110    1.9270 hn        1 3KH      0.333700
     18 H3          1.8300    0.1070   -3.4340 ha        1 3KH      0.157000
     19 H4         -0.6600    0.1280   -3.3000 ha        1 3KH      0.137000
     20 H5         -5.9700   -0.5100   -2.9530 hn        1 3KH      0.414300
     21 H6         -6.5710    0.1140   -1.5230 hn        1 3KH      0.414300
@<TRIPOS>BOND
     1    1    2 ar  
     2    1    9 ar  
     3    1   16 1   
     4    2    3 1   
     5    2    6 ar  
     6    3    4 1   
     7    3   17 1   
     8    4    5 2   
     9    5    6 1   
    10    6    7 ar  
    11    7    8 ar  
    12    7   18 1   
    13    8    9 ar  
    14    8   19 1   
    15    9   10 1   
    16   10   11 1   
    17   10   12 2   
    18   11   14 1   
    19   12   13 1   
    20   13   14 2   
    21   14   15 1   
    22   15   20 1   
    23   15   21 1   
@<TRIPOS>SUBSTRUCTURE
     1 3KH         1 TEMP              0 ****  ****    0 ROOT
