@<TRIPOS>MOLECULE
3KH
   21    23     1     0     0
SMALL
bcc


@<TRIPOS>ATOM
      1 CAA        -0.0510    0.0350    0.0800 ca        1 3KH     -0.090000
      2 CAF         1.3450   -0.0030    0.0070 ca        1 3KH     -0.073200
      3 NAH         2.3850   -0.0120    0.9500 na        1 3KH     -0.059100
      4 NAI         3.5730   -0.0550    0.3100 nc        1 3KH     -0.131400
      5 NAG         3.4360   -0.0770   -0.9470 nd        1 3KH     -0.214400
      6 CAE         2.0450   -0.0470   -1.2620 ca        1 3KH      0.015400
      7 CAD         1.3210   -0.0510   -2.4570 ca        1 3KH     -0.042000
      8 CAC        -0.0600   -0.0120   -2.3730 ca        1 3KH     -0.155000
      9 CAB        -0.7450    0.0290   -1.1310 ca        1 3KH     -0.084500
     10 CAJ        -2.1960    0.0620   -1.1430 cc        1 3KH      0.378900
     11 S          -3.1060   -0.0850   -2.6050 ss        1 3KH     -0.197800
     12 NAM        -2.9880    0.2040   -0.0510 nd        1 3KH     -0.285000
     13 NAL        -4.2560    0.1830   -0.3010 nd        1 3KH     -0.380000
     14 CAK        -4.5510    0.0390   -1.6400 cc        1 3KH      0.584300
     15 NAO        -5.8120    0.1100   -2.2000 nh        1 3KH     -0.890500
     16 H1         -0.5720    0.0680    1.0470 ha        1 3KH      0.168000
     17 H2          2.3150    0.0200    1.9380 hn        1 3KH      0.333700
     18 H3          1.8370   -0.0820   -3.4280 ha        1 3KH      0.157000
     19 H4         -0.6520   -0.0090   -3.3040 ha        1 3KH      0.137000
     20 H5         -6.5670    0.1820   -1.5490 hn        1 3KH      0.414300
     21 H6         -5.9740   -0.5490   -2.9300 hn        1 3KH      0.414300
@<TRIPOS>BOND
     1    1    2 ar  
     2    1    9 ar  
     3    1   16 1   
     4    2    3 1   
     5    2    6 ar  
     6    3    4 1   
     7    3   17 1   
     8    4    5 2   
     9    5    6 1   
    10    6    7 ar  
    11    7    8 ar  
    12    7   18 1   
    13    8    9 ar  
    14    8   19 1   
    15    9   10 1   
    16   10   11 1   
    17   10   12 2   
    18   11   14 1   
    19   12   13 1   
    20   13   14 2   
    21   14   15 1   
    22   15   20 1   
    23   15   21 1   
@<TRIPOS>SUBSTRUCTURE
     1 3KH         1 TEMP              0 ****  ****    0 ROOT
