@<TRIPOS>MOLECULE
3KJ
   29    25     1     0     0
SMALL
bcc


@<TRIPOS>ATOM
      1 OA1        -2.7350   -3.7380    2.3500 o         1 3KJ     -0.578000
      2 C          -1.6850   -3.1440    2.7220 c1        1 3KJ      0.305000
      3 OA2        -1.5980   -2.6990    3.8970 o         1 3KJ     -0.578000
      4 CA         -0.5000   -3.0460    1.7860 c2        1 3KJ     -0.128000
      5 N          -0.2150   -4.3280    1.2470 n3        1 3KJ     -0.321000
      6 CB         -0.8250   -2.0810    0.6550 c3        1 3KJ     -0.128000
      7 CG          0.1290   -0.8710    0.7210 c3        1 3KJ     -0.187000
      8 CD         -0.0310   -0.0160   -0.5670 c3        1 3KJ     -0.055000
      9 NE          0.6620    1.2450   -0.3970 n3        1 3KJ     -0.319000
     10 CZ          0.7980    2.1550   -1.5180 c1        1 3KJ      0.112000
     11 NH1         1.1830    1.7010   -2.6910 n1        1 3KJ     -0.327000
     12 NH2         0.5140    3.5550   -1.3460 n2        1 3KJ     -0.079000
     13 C1          0.7060    4.4640   -2.4360 c3        1 3KJ     -0.133000
     14 OH          0.1280    4.0280   -0.1220 oh        1 3KJ     -0.266000
     15 H2          0.2780   -2.7200    2.2800 h4        1 3KJ      0.082000
     16 H3         -0.5580   -4.9760    1.8000 hn        1 3KJ      0.126500
     17 H4          0.6900   -4.4350    1.1770 hn        1 3KJ      0.126500
     18 H6         -0.7160   -2.5360   -0.2030 hc        1 3KJ      0.066000
     19 H7         -1.7480   -1.7730    0.7460 hc        1 3KJ      0.066000
     20 H8         -0.0900   -0.3250    1.5050 hc        1 3KJ      0.113500
     21 H9          1.0550   -1.1880    0.7910 hc        1 3KJ      0.113500
     22 H10         0.3500   -0.4980   -1.3280 h1        1 3KJ      0.071000
     23 H11        -0.9810    0.1540   -0.7300 h1        1 3KJ      0.071000
     24 H12         0.9640    1.4890    0.4260 hn        1 3KJ      0.210000
     25 H13         1.3660    0.8040   -2.8010 DU        1 3KJ      0.149000
     26 H15         0.2510    4.1210   -3.2300 h1        1 3KJ      0.088333
     27 H16         0.3330    5.3440   -2.1990 h1        1 3KJ      0.088333
     28 H17         1.6630    4.5550   -2.6220 h1        1 3KJ      0.088333
     29 H18         0.6140    4.7590    0.0850 ho        1 3KJ      0.222000
@<TRIPOS>BOND
     1    1    2 1   
     2    2    3 1   
     3    4    5 1   
     4    4    6 1   
     5    4   15 1   
     6    5   16 1   
     7    5   17 1   
     8    6    7 1   
     9    6   18 1   
    10    6   19 1   
    11    7    8 1   
    12    7   20 1   
    13    7   21 1   
    14    8    9 1   
    15    8   22 1   
    16    8   23 1   
    17    9   10 1   
    18    9   24 1   
    19   10   11 1   
    20   12   13 1   
    21   12   14 1   
    22   13   26 1   
    23   13   27 1   
    24   13   28 1   
    25   14   29 1   
@<TRIPOS>SUBSTRUCTURE
     1 3KJ         1 TEMP              0 ****  ****    0 ROOT
