@<TRIPOS>MOLECULE
3KJ
   32    30     1     0     0
SMALL
bcc


@<TRIPOS>ATOM
      1 OA1         1.1700    1.5100    4.2040 o         1 3KJ     -0.224500
      2 C           1.4250    1.2200    3.0880 c1        1 3KJ      0.450000
      3 OA2         1.6850    0.9230    1.9560 o         1 3KJ     -0.224500
      4 CA          1.6600   -0.0900   -2.0330 c2        1 3KJ     -0.594000
      5 N           2.0920    0.3710   -0.7580 nz        1 3KJ      0.078000
      6 CB          1.8320   -1.4400   -2.4950 c3        1 3KJ     -0.021000
      7 CG          3.0060   -1.4960   -3.5270 c3        1 3KJ     -0.218000
      8 CD          3.0090   -2.8430   -4.2020 c3        1 3KJ     -0.136000
      9 NE          4.0490   -2.9230   -5.3040 ny        1 3KJ     -0.057000
     10 CZ          4.0350   -4.2040   -6.1020 c2        1 3KJ     -0.001000
     11 NH1         3.3950   -5.2780   -5.8810 n2        1 3KJ     -0.130000
     12 NH2         4.9260   -4.1590   -7.3850 nx        1 3KJ      0.119000
     13 C1          4.7980   -5.3570   -8.2790 c3        1 3KJ     -0.207000
     14 OH          4.6890   -2.9860   -8.0210 oh        1 3KJ     -0.241000
     15 H2          1.1620    0.6630   -2.6520 hx        1 3KJ      0.179000
     16 H3          1.4200    1.0580   -0.3940 hn        1 3KJ      0.223000
     17 H4          2.1550   -0.3950   -0.0800 hn        1 3KJ      0.223000
     18 H6          0.9050   -1.7710   -3.0420 hc        1 3KJ      0.089500
     19 H7          2.0510   -2.1830   -1.6840 hc        1 3KJ      0.089500
     20 H8          2.8400   -0.6690   -4.2660 hc        1 3KJ      0.108500
     21 H9          3.9670   -1.3070   -2.9870 hc        1 3KJ      0.108500
     22 H10         2.0070   -3.0420   -4.6780 hx        1 3KJ      0.137500
     23 H11         3.2400   -3.6570   -3.4580 hx        1 3KJ      0.137500
     24 H12         4.9820   -2.8030   -4.8850 hn        1 3KJ      0.252000
     25 H13         2.8050   -5.4170   -5.0840 hn        1 3KJ      0.270000
     26 H15         3.7320   -5.4870   -8.6060 hx        1 3KJ      0.174667
     27 H16         5.1350   -6.2710   -7.7160 hx        1 3KJ      0.174667
     28 H17         5.4630   -5.1910   -9.1730 hx        1 3KJ      0.174667
     29 H18         4.1010   -3.1380   -8.8000 ho        1 3KJ      0.299000
     30 HN3         3.0100    0.8280   -0.8060 hn        1 3KJ      0.223000
     31 HE3         3.8940   -2.1290   -5.9470 hn        1 3KJ      0.252000
     32 HH21        5.9180   -4.0990   -7.0570 hn        1 3KJ      0.287000
@<TRIPOS>BOND
     1    1    2 1   
     2    2    3 1   
     3    4    5 1   
     4    4    6 1   
     5    4   15 1   
     6    5   16 1   
     7    5   17 1   
     8    5   30 1   
     9    6    7 1   
    10    6   18 1   
    11    6   19 1   
    12    7    8 1   
    13    7   20 1   
    14    7   21 1   
    15    8    9 1   
    16    8   22 1   
    17    8   23 1   
    18    9   10 1   
    19    9   24 1   
    20    9   31 1   
    21   10   11 1   
    22   10   12 1   
    23   11   25 1   
    24   12   13 1   
    25   12   14 1   
    26   12   32 1   
    27   13   26 1   
    28   13   27 1   
    29   13   28 1   
    30   14   29 1   
@<TRIPOS>SUBSTRUCTURE
     1 3KJ         1 TEMP              0 ****  ****    0 ROOT
