@<TRIPOS>MOLECULE
3KJ
   29    28     1     0     0
SMALL
bcc


@<TRIPOS>ATOM
      1 OA1        -4.3740   -1.2330   -0.4700 o         1 3KJ     -0.841800
      2 C          -4.2510   -0.1440    0.1550 c         1 3KJ      0.888600
      3 OA2        -5.1190    0.3360    0.9390 o         1 3KJ     -0.841800
      4 CA         -2.9380    0.6780   -0.0790 c3        1 3KJ      0.016500
      5 N          -2.8440    1.8990    0.7120 n3        1 3KJ     -0.893800
      6 CB         -1.7480   -0.2610    0.1170 c3        1 3KJ     -0.063400
      7 CG         -0.4550    0.3450   -0.3830 c3        1 3KJ     -0.087400
      8 CD          0.6870   -0.6590   -0.2310 c3        1 3KJ      0.173800
      9 NE          1.9690   -0.1460   -0.6740 nh        1 3KJ     -0.838200
     10 CZ          3.1350   -0.6750   -0.0450 c2        1 3KJ      0.721100
     11 NH1         3.3250   -1.9390    0.2350 n2        1 3KJ     -0.867100
     12 NH2         4.2050    0.2900    0.3330 nh        1 3KJ     -0.450100
     13 C1          5.5440   -0.3070    0.3560 c3        1 3KJ      0.151100
     14 OH          4.2270    1.3530   -0.4900 oh        1 3KJ     -0.419300
     15 H2         -2.9580    1.0000   -1.1620 h1        1 3KJ      0.041700
     16 H3         -3.7450    2.3490    0.6680 hn        1 3KJ      0.331300
     17 H4         -2.7080    1.6430    1.6740 hn        1 3KJ      0.331300
     18 H6         -1.6460   -0.5320    1.2000 hc        1 3KJ      0.050200
     19 H7         -1.9780   -1.2060   -0.4470 hc        1 3KJ      0.050200
     20 H8         -0.5690    0.6340   -1.4610 hc        1 3KJ      0.044700
     21 H9         -0.2250    1.2790    0.1930 hc        1 3KJ      0.044700
     22 H10         0.7290   -0.9900    0.8480 h1        1 3KJ      0.041200
     23 H11         0.4590   -1.5710   -0.8540 h1        1 3KJ      0.041200
     24 H12         1.9760    0.8430   -0.8110 hn        1 3KJ      0.400800
     25 H13         2.5390   -2.5320    0.0770 hn        1 3KJ      0.400400
     26 H15         5.5800   -1.0070    1.2300 h1        1 3KJ      0.051700
     27 H16         5.8010   -0.8650   -0.5810 h1        1 3KJ      0.051700
     28 H17         6.2870    0.5190    0.5010 h1        1 3KJ      0.051700
     29 H18         3.8550    2.0820    0.0430 ho        1 3KJ      0.419000
@<TRIPOS>BOND
     1    1    2 1   
     2    2    3 1   
     3    2    4 1   
     4    4    5 1   
     5    4    6 1   
     6    4   15 1   
     7    5   16 1   
     8    5   17 1   
     9    6    7 1   
    10    6   18 1   
    11    6   19 1   
    12    7    8 1   
    13    7   20 1   
    14    7   21 1   
    15    8    9 1   
    16    8   22 1   
    17    8   23 1   
    18    9   10 1   
    19    9   24 1   
    20   10   11 2   
    21   10   12 1   
    22   11   25 1   
    23   12   13 1   
    24   12   14 1   
    25   13   26 1   
    26   13   27 1   
    27   13   28 1   
    28   14   29 1   
@<TRIPOS>SUBSTRUCTURE
     1 3KJ         1 TEMP              0 ****  ****    0 ROOT
