@<TRIPOS>MOLECULE
3KJ
   32    30     1     0     0
SMALL
bcc


@<TRIPOS>ATOM
      1 OA1         1.1460    1.4200    4.2400 o         1 3KJ     -0.224500
      2 C           1.4150    1.1450    3.1250 c1        1 3KJ      0.450000
      3 OA2         1.6900    0.8630    1.9920 o         1 3KJ     -0.224500
      4 CA          1.7120   -0.0660   -2.0150 c2        1 3KJ     -0.594000
      5 N           2.1390    0.3520   -0.7240 n4        1 3KJ      0.078000
      6 CB          1.8390   -1.4130   -2.5010 c3        1 3KJ     -0.021000
      7 CG          3.0280   -1.4960   -3.5140 c3        1 3KJ     -0.218000
      8 CD          2.9910   -2.8300   -4.2130 c3        1 3KJ     -0.136000
      9 NE          4.0460   -2.9300   -5.3000 n4        1 3KJ     -0.057000
     10 CZ          3.9960   -4.1940   -6.1220 c2        1 3KJ     -0.001000
     11 NH1         3.3110   -5.2470   -5.9330 n2        1 3KJ     -0.130000
     12 NH2         4.9090   -4.1600   -7.3890 n4        1 3KJ      0.119000
     13 C1          4.7510   -5.3350   -8.3080 c3        1 3KJ     -0.207000
     14 OH          4.7290   -2.9670   -8.0070 oh        1 3KJ     -0.240000
     15 H2          1.2560    0.7180   -2.6290 hx        1 3KJ      0.179000
     16 H3          2.1570   -0.4270   -0.0600 hn        1 3KJ      0.223000
     17 H4          3.0750    0.7730   -0.7470 hn        1 3KJ      0.223000
     18 H6          2.0140   -2.1790   -1.7010 hc        1 3KJ      0.089500
     19 H7          0.9100   -1.6960   -3.0700 hc        1 3KJ      0.089500
     20 H8          3.9860   -1.3550   -2.9530 hc        1 3KJ      0.108500
     21 H9          2.9090   -0.6500   -4.2390 hc        1 3KJ      0.108500
     22 H10         3.1770   -3.6650   -3.4820 hx        1 3KJ      0.137500
     23 H11         1.9900   -2.9800   -4.7100 hx        1 3KJ      0.137500
     24 H12         3.9340   -2.1180   -5.9300 hn        1 3KJ      0.252000
     25 H13         2.7030   -5.3770   -5.1490 hn        1 3KJ      0.270000
     26 H15         5.4370   -5.1780   -9.1890 hx        1 3KJ      0.174667
     27 H16         3.6850   -5.4170   -8.6560 hx        1 3KJ      0.174667
     28 H17         5.0420   -6.2720   -7.7580 hx        1 3KJ      0.174667
     29 H18         4.1480   -3.0820   -8.7980 ho        1 3KJ      0.299000
     30 HN3         1.4870    1.0590   -0.3590 hn        1 3KJ      0.223000
     31 HE3         4.9760   -2.8550   -4.8630 hn        1 3KJ      0.252000
     32 HH21        5.8970   -4.1450   -7.0440 hn        1 3KJ      0.287000
@<TRIPOS>BOND
     1    1    2 1   
     2    2    3 1   
     3    4    5 1   
     4    4    6 1   
     5    4   15 1   
     6    5   16 1   
     7    5   17 1   
     8    5   30 1   
     9    6    7 1   
    10    6   18 1   
    11    6   19 1   
    12    7    8 1   
    13    7   20 1   
    14    7   21 1   
    15    8    9 1   
    16    8   22 1   
    17    8   23 1   
    18    9   10 1   
    19    9   24 1   
    20    9   31 1   
    21   10   11 1   
    22   10   12 1   
    23   11   25 1   
    24   12   13 1   
    25   12   14 1   
    26   12   32 1   
    27   13   26 1   
    28   13   27 1   
    29   13   28 1   
    30   14   29 1   
@<TRIPOS>SUBSTRUCTURE
     1 3KJ         1 TEMP              0 ****  ****    0 ROOT
