@<TRIPOS>MOLECULE
3KJ
   32    30     1     0     0
SMALL
bcc


@<TRIPOS>ATOM
      1 OA1         1.0240    1.4700    4.1890 o         1 3KJ     -0.224500
      2 C           1.3040    1.1850    3.0790 c1        1 3KJ      0.450000
      3 OA2         1.5910    0.8940    1.9510 o         1 3KJ     -0.224500
      4 CA          1.6640   -0.0670   -2.0510 c2        1 3KJ     -0.594000
      5 N           2.0680    0.3610   -0.7550 n4        1 3KJ      0.078000
      6 CB          1.8070   -1.4160   -2.5270 c3        1 3KJ     -0.021000
      7 CG          3.0130   -1.4970   -3.5200 c3        1 3KJ     -0.218000
      8 CD          2.9950   -2.8340   -4.2130 c3        1 3KJ     -0.136000
      9 NE          4.0700   -2.9330   -5.2810 n4        1 3KJ     -0.057000
     10 CZ          4.0400   -4.2020   -6.0980 c2        1 3KJ     -0.001000
     11 NH1         3.3570   -5.2570   -5.9160 n2        1 3KJ     -0.130000
     12 NH2         4.9760   -4.1690   -7.3480 n4        1 3KJ      0.119000
     13 C1          4.8400   -5.3490   -8.2640 c3        1 3KJ     -0.207000
     14 OH          4.8010   -2.9800   -7.9750 oh        1 3KJ     -0.241000
     15 H2          1.2120    0.7100   -2.6750 hx        1 3KJ      0.179000
     16 H3          3.0010    0.7890   -0.7660 hn        1 3KJ      0.223000
     17 H4          1.4060    1.0660   -0.4040 hn        1 3KJ      0.223000
     18 H6          0.8890   -1.7080   -3.1090 hc        1 3KJ      0.089500
     19 H7          1.9740   -2.1760   -1.7200 hc        1 3KJ      0.089500
     20 H8          2.9000   -0.6550   -4.2510 hc        1 3KJ      0.108500
     21 H9          3.9610   -1.3470   -2.9450 hc        1 3KJ      0.108500
     22 H10         3.1730   -3.6650   -3.4740 hx        1 3KJ      0.137500
     23 H11         2.0040   -2.9920   -4.7260 hx        1 3KJ      0.137500
     24 H12         4.9910   -2.8500   -4.8290 hn        1 3KJ      0.252000
     25 H13         2.7360   -5.3870   -5.1420 hn        1 3KJ      0.270000
     26 H15         5.5410   -5.1930   -9.1330 hx        1 3KJ      0.174667
     27 H16         3.7820   -5.4380   -8.6300 hx        1 3KJ      0.174667
     28 H17         5.1260   -6.2820   -7.7040 hx        1 3KJ      0.174667
     29 H18         4.2360   -3.1010   -8.7760 ho        1 3KJ      0.299000
     30 HN3         2.0820   -0.4140   -0.0870 hn        1 3KJ      0.223000
     31 HE3         3.9630   -2.1250   -5.9170 hn        1 3KJ      0.252000
     32 HH21        5.9580   -4.1470   -6.9860 hn        1 3KJ      0.287000
@<TRIPOS>BOND
     1    1    2 1   
     2    2    3 1   
     3    4    5 1   
     4    4    6 1   
     5    4   15 1   
     6    5   16 1   
     7    5   17 1   
     8    5   30 1   
     9    6    7 1   
    10    6   18 1   
    11    6   19 1   
    12    7    8 1   
    13    7   20 1   
    14    7   21 1   
    15    8    9 1   
    16    8   22 1   
    17    8   23 1   
    18    9   10 1   
    19    9   24 1   
    20    9   31 1   
    21   10   11 1   
    22   10   12 1   
    23   11   25 1   
    24   12   13 1   
    25   12   14 1   
    26   12   32 1   
    27   13   26 1   
    28   13   27 1   
    29   13   28 1   
    30   14   29 1   
@<TRIPOS>SUBSTRUCTURE
     1 3KJ         1 TEMP              0 ****  ****    0 ROOT
