@<TRIPOS>MOLECULE
3KL
   64    67     1     0     0
SMALL
bcc


@<TRIPOS>ATOM
      1 C2          0.1820    0.0450   -0.1520 c3        1 3KL     -0.182400
      2 C3          1.6820    0.1070   -0.1670 c         1 3KL      0.574100
      3 O3          2.3320    0.1810   -1.2150 o         1 3KL     -0.546100
      4 C4          2.3320    0.1100    1.1840 c3        1 3KL     -0.181400
      5 C5          1.7920   -0.9750    2.1050 c3        1 3KL     -0.044700
      6 C6          2.4180   -0.8320    3.4850 c3        1 3KL     -0.073400
      7 C1         -0.3010   -1.0680    0.7490 c3        1 3KL     -0.068400
      8 C7          1.8870    0.3610    4.2480 c3        1 3KL     -0.075400
      9 C8          0.3710    0.3370    4.3350 c3        1 3KL     -0.047700
     10 C9         -0.2540    0.2420    2.9320 c3        1 3KL     -0.045700
     11 C10         0.2510   -1.0010    2.1790 c3        1 3KL     -0.039000
     12 C11        -1.7750    0.3240    2.9930 c3        1 3KL     -0.072400
     13 C12        -2.2960    1.5150    3.7840 c3        1 3KL     -0.065400
     14 C13        -1.6930    1.5580    5.1790 c3        1 3KL     -0.047000
     15 C14        -0.1540    1.5970    4.9910 c3        1 3KL     -0.067700
     16 C15         0.3760    1.9980    6.3600 c3        1 3KL     -0.073400
     17 C16        -0.7010    2.9280    6.9250 c3        1 3KL     -0.080400
     18 C17        -1.9200    2.8650    5.9810 c3        1 3KL     -0.047700
     19 C18        -2.1550    0.3640    5.9970 c3        1 3KL     -0.080100
     20 C19        -0.1880   -2.2910    2.8680 c3        1 3KL     -0.087100
     21 C20        -3.2340    3.0020    6.7410 c3        1 3KL     -0.061700
     22 C21        -4.4300    2.9150    5.8130 c3        1 3KL     -0.086100
     23 C22        -3.2680    4.3300    7.4980 c3        1 3KL     -0.068400
     24 C23        -4.3270    4.3690    8.5730 c3        1 3KL     -0.196400
     25 C24        -4.1050    5.5550    9.5300 c         1 3KL      0.907600
     26 OT1        -5.1200    6.2250    9.8770 o         1 3KL     -0.851800
     27 OT2        -2.9310    5.7910    9.9380 o         1 3KL     -0.851800
     28 H1         -0.2060   -0.1130   -1.1920 hc        1 3KL      0.069200
     29 H2         -0.2070    1.0350    0.2080 hc        1 3KL      0.069200
     30 H3          2.1620    1.1240    1.6380 hc        1 3KL      0.070700
     31 H4          3.4410   -0.0240    1.0700 hc        1 3KL      0.070700
     32 H5          2.1190   -1.9680    1.6800 hc        1 3KL      0.043700
     33 H6          2.2170   -1.7680    4.0720 hc        1 3KL      0.038700
     34 H7          3.5310   -0.7400    3.3760 hc        1 3KL      0.038700
     35 H8          0.0070   -2.0510    0.3010 hc        1 3KL      0.045700
     36 H9         -1.4210   -1.0590    0.7780 hc        1 3KL      0.045700
     37 H10         2.2220    1.3120    3.7560 hc        1 3KL      0.042200
     38 H11         2.3120    0.3620    5.2870 hc        1 3KL      0.042200
     39 H12         0.0670   -0.5560    4.9460 hc        1 3KL      0.055700
     40 H13         0.1020    1.1440    2.3530 hc        1 3KL      0.041700
     41 H14        -2.1770    0.4040    1.9480 hc        1 3KL      0.034200
     42 H15        -2.1850   -0.6200    3.4390 hc        1 3KL      0.034200
     43 H16        -2.0480    2.4650    3.2420 hc        1 3KL      0.042700
     44 H17        -3.4130    1.4470    3.8460 hc        1 3KL      0.042700
     45 H18         0.0740    2.4540    4.2900 hc        1 3KL      0.041700
     46 H19         0.5150    1.1020    7.0130 hc        1 3KL      0.033700
     47 H20         1.3630    2.5150    6.2770 hc        1 3KL      0.033700
     48 H21        -0.9900    2.6070    7.9570 hc        1 3KL      0.057200
     49 H22        -0.3230    3.9780    6.9920 hc        1 3KL      0.057200
     50 H23        -1.8580    3.7220    5.2550 hc        1 3KL      0.041700
     51 H24        -1.8690   -0.6020    5.5170 hc        1 3KL      0.033367
     52 H25        -1.7030    0.4000    7.0180 hc        1 3KL      0.033367
     53 H26        -3.2670    0.3800    6.1010 hc        1 3KL      0.033367
     54 H27         0.1060   -2.2970    3.9440 hc        1 3KL      0.036367
     55 H28        -1.2970   -2.4050    2.8040 hc        1 3KL      0.036367
     56 H29         0.2840   -3.1730    2.3710 hc        1 3KL      0.036367
     57 H30        -3.3020    2.1680    7.4960 hc        1 3KL      0.043700
     58 H31        -4.2710    3.5460    4.9050 hc        1 3KL      0.025367
     59 H32        -5.3460    3.2780    6.3390 hc        1 3KL      0.025367
     60 H33        -4.6120    1.8630    5.4860 hc        1 3KL      0.025367
     61 H34        -2.2770    4.5220    7.9920 hc        1 3KL      0.048200
     62 H35        -3.4400    5.1630    6.7680 hc        1 3KL      0.048200
     63 H36        -5.3490    4.4470    8.1250 hc        1 3KL      0.019700
     64 H37        -4.2910    3.4310    9.1840 hc        1 3KL      0.019700
@<TRIPOS>BOND
     1    1    2 1   
     2    1    7 1   
     3    1   28 1   
     4    1   29 1   
     5    2    3 2   
     6    2    4 1   
     7    4    5 1   
     8    4   30 1   
     9    4   31 1   
    10    5    6 1   
    11    5   11 1   
    12    5   32 1   
    13    6    8 1   
    14    6   33 1   
    15    6   34 1   
    16    7   11 1   
    17    7   35 1   
    18    7   36 1   
    19    8    9 1   
    20    8   37 1   
    21    8   38 1   
    22    9   10 1   
    23    9   15 1   
    24    9   39 1   
    25   10   11 1   
    26   10   12 1   
    27   10   40 1   
    28   11   20 1   
    29   12   13 1   
    30   12   41 1   
    31   12   42 1   
    32   13   14 1   
    33   13   43 1   
    34   13   44 1   
    35   14   15 1   
    36   14   18 1   
    37   14   19 1   
    38   15   16 1   
    39   15   45 1   
    40   16   17 1   
    41   16   46 1   
    42   16   47 1   
    43   17   18 1   
    44   17   48 1   
    45   17   49 1   
    46   18   21 1   
    47   18   50 1   
    48   19   51 1   
    49   19   52 1   
    50   19   53 1   
    51   20   54 1   
    52   20   55 1   
    53   20   56 1   
    54   21   22 1   
    55   21   23 1   
    56   21   57 1   
    57   22   58 1   
    58   22   59 1   
    59   22   60 1   
    60   23   24 1   
    61   23   61 1   
    62   23   62 1   
    63   24   25 1   
    64   24   63 1   
    65   24   64 1   
    66   25   26 1   
    67   25   27 1   
@<TRIPOS>SUBSTRUCTURE
     1 3KL         1 TEMP              0 ****  ****    0 ROOT
