@<TRIPOS>MOLECULE
3KL
   64    67     1     0     0
SMALL
bcc


@<TRIPOS>ATOM
      1 C2          0.1800    0.0360   -0.1500 c3        1 3KL     -0.182400
      2 C3          1.6780    0.1100   -0.1700 c         1 3KL      0.574100
      3 O3          2.3250    0.1840   -1.2200 o         1 3KL     -0.546100
      4 C4          2.3330    0.1230    1.1790 c3        1 3KL     -0.181400
      5 C5          1.8030   -0.9630    2.1060 c3        1 3KL     -0.044700
      6 C6          2.4320   -0.8090    3.4840 c3        1 3KL     -0.073400
      7 C1         -0.2920   -1.0770    0.7560 c3        1 3KL     -0.068400
      8 C7          1.8940    0.3840    4.2430 c3        1 3KL     -0.075400
      9 C8          0.3780    0.3490    4.3340 c3        1 3KL     -0.047700
     10 C9         -0.2490    0.2430    2.9340 c3        1 3KL     -0.045700
     11 C10         0.2630   -0.9990    2.1840 c3        1 3KL     -0.039000
     12 C11        -1.7710    0.3140    2.9990 c3        1 3KL     -0.072400
     13 C12        -2.2990    1.5030    3.7860 c3        1 3KL     -0.065400
     14 C13        -1.6920    1.5570    5.1790 c3        1 3KL     -0.047000
     15 C14        -0.1550    1.6080    4.9870 c3        1 3KL     -0.067700
     16 C15         0.3760    2.0190    6.3520 c3        1 3KL     -0.073400
     17 C16        -0.7060    2.9420    6.9170 c3        1 3KL     -0.080400
     18 C17        -1.9270    2.8660    5.9760 c3        1 3KL     -0.047700
     19 C18        -2.1430    0.3640    6.0030 c3        1 3KL     -0.080100
     20 C19        -0.1650   -2.2900    2.8810 c3        1 3KL     -0.087100
     21 C20        -3.2410    2.9960    6.7390 c3        1 3KL     -0.061700
     22 C21        -4.4380    2.8960    5.8150 c3        1 3KL     -0.086100
     23 C22        -3.2820    4.3270    7.4900 c3        1 3KL     -0.068400
     24 C23        -4.3380    4.3620    8.5680 c3        1 3KL     -0.196400
     25 C24        -4.1240    5.5550    9.5200 c         1 3KL      0.907600
     26 OT1        -5.1430    6.2180    9.8670 o         1 3KL     -0.851800
     27 OT2        -2.9500    5.8020    9.9230 o         1 3KL     -0.851800
     28 H1         -0.2100   -0.1300   -1.1890 hc        1 3KL      0.069200
     29 H2         -0.2160    1.0250    0.2070 hc        1 3KL      0.069200
     30 H3          2.1550    1.1370    1.6290 hc        1 3KL      0.070700
     31 H4          3.4420   -0.0030    1.0630 hc        1 3KL      0.070700
     32 H5          2.1370   -1.9550    1.6840 hc        1 3KL      0.043700
     33 H6          3.5440   -0.7080    3.3710 hc        1 3KL      0.038700
     34 H7          2.2400   -1.7430    4.0750 hc        1 3KL      0.038700
     35 H8         -1.4130   -1.0760    0.7890 hc        1 3KL      0.045700
     36 H9          0.0220   -2.0600    0.3120 hc        1 3KL      0.045700
     37 H10         2.2200    1.3350    3.7460 hc        1 3KL      0.042200
     38 H11         2.3220    0.3920    5.2810 hc        1 3KL      0.042200
     39 H12         0.0830   -0.5440    4.9500 hc        1 3KL      0.055700
     40 H13         0.0980    1.1450    2.3500 hc        1 3KL      0.041700
     41 H14        -2.1720   -0.6310    3.4490 hc        1 3KL      0.034200
     42 H15        -2.1770    0.3860    1.9540 hc        1 3KL      0.034200
     43 H16        -3.4150    1.4270    3.8510 hc        1 3KL      0.042700
     44 H17        -2.0600    2.4530    3.2390 hc        1 3KL      0.042700
     45 H18         0.0650    2.4630    4.2820 hc        1 3KL      0.041700
     46 H19         0.5240    1.1260    7.0090 hc        1 3KL      0.033700
     47 H20         1.3580    2.5420    6.2640 hc        1 3KL      0.033700
     48 H21        -0.3370    3.9950    6.9770 hc        1 3KL      0.057200
     49 H22        -0.9900    2.6230    7.9510 hc        1 3KL      0.057200
     50 H23        -1.8740    3.7210    5.2460 hc        1 3KL      0.041700
     51 H24        -1.6880    0.4070    7.0220 hc        1 3KL      0.033367
     52 H25        -1.8510   -0.6020    5.5260 hc        1 3KL      0.033367
     53 H26        -3.2550    0.3710    6.1100 hc        1 3KL      0.033367
     54 H27        -1.2730   -2.4130    2.8200 hc        1 3KL      0.036367
     55 H28         0.3130   -3.1710    2.3860 hc        1 3KL      0.036367
     56 H29         0.1330   -2.2890    3.9550 hc        1 3KL      0.036367
     57 H30        -3.3000    2.1650    7.4970 hc        1 3KL      0.043700
     58 H31        -4.2860    3.5240    4.9040 hc        1 3KL      0.025367
     59 H32        -5.3560    3.2540    6.3410 hc        1 3KL      0.025367
     60 H33        -4.6140    1.8410    5.4930 hc        1 3KL      0.025367
     61 H34        -2.2920    4.5290    7.9810 hc        1 3KL      0.048200
     62 H35        -3.4640    5.1550    6.7570 hc        1 3KL      0.048200
     63 H36        -4.2930    3.4280    9.1840 hc        1 3KL      0.019700
     64 H37        -5.3620    4.4300    8.1230 hc        1 3KL      0.019700
@<TRIPOS>BOND
     1    1    2 1   
     2    1    7 1   
     3    1   28 1   
     4    1   29 1   
     5    2    3 2   
     6    2    4 1   
     7    4    5 1   
     8    4   30 1   
     9    4   31 1   
    10    5    6 1   
    11    5   11 1   
    12    5   32 1   
    13    6    8 1   
    14    6   33 1   
    15    6   34 1   
    16    7   11 1   
    17    7   35 1   
    18    7   36 1   
    19    8    9 1   
    20    8   37 1   
    21    8   38 1   
    22    9   10 1   
    23    9   15 1   
    24    9   39 1   
    25   10   11 1   
    26   10   12 1   
    27   10   40 1   
    28   11   20 1   
    29   12   13 1   
    30   12   41 1   
    31   12   42 1   
    32   13   14 1   
    33   13   43 1   
    34   13   44 1   
    35   14   15 1   
    36   14   18 1   
    37   14   19 1   
    38   15   16 1   
    39   15   45 1   
    40   16   17 1   
    41   16   46 1   
    42   16   47 1   
    43   17   18 1   
    44   17   48 1   
    45   17   49 1   
    46   18   21 1   
    47   18   50 1   
    48   19   51 1   
    49   19   52 1   
    50   19   53 1   
    51   20   54 1   
    52   20   55 1   
    53   20   56 1   
    54   21   22 1   
    55   21   23 1   
    56   21   57 1   
    57   22   58 1   
    58   22   59 1   
    59   22   60 1   
    60   23   24 1   
    61   23   61 1   
    62   23   62 1   
    63   24   25 1   
    64   24   63 1   
    65   24   64 1   
    66   25   26 1   
    67   25   27 1   
@<TRIPOS>SUBSTRUCTURE
     1 3KL         1 TEMP              0 ****  ****    0 ROOT
