@<TRIPOS>MOLECULE
3KL
   64    67     1     0     0
SMALL
bcc


@<TRIPOS>ATOM
      1 C2         -4.7140    1.6640   -1.0970 c3        1 3KL     -0.182400
      2 C3         -5.4460    0.4150   -1.4910 c         1 3KL      0.574100
      3 O3         -6.4830    0.4370   -2.1630 o         1 3KL     -0.546100
      4 C4         -4.8090   -0.8650   -1.0400 c3        1 3KL     -0.181400
      5 C5         -4.4140   -0.8450    0.4310 c3        1 3KL     -0.044700
      6 C6         -3.6740   -2.1300    0.7780 c3        1 3KL     -0.073400
      7 C1         -4.3770    1.6490    0.3750 c3        1 3KL     -0.068400
      8 C7         -2.2790   -2.1770    0.1970 c3        1 3KL     -0.075400
      9 C8         -1.4690   -0.9550    0.5930 c3        1 3KL     -0.047700
     10 C9         -2.2020    0.3380    0.1930 c3        1 3KL     -0.045700
     11 C10        -3.6020    0.4040    0.8280 c3        1 3KL     -0.039000
     12 C11        -1.3560    1.5710    0.4870 c3        1 3KL     -0.072400
     13 C12         0.0530    1.5010   -0.0820 c3        1 3KL     -0.065400
     14 C13         0.7660    0.2340    0.3640 c3        1 3KL     -0.047000
     15 C14        -0.1190   -0.9530   -0.0950 c3        1 3KL     -0.067700
     16 C15         0.7870   -2.1670    0.0440 c3        1 3KL     -0.073400
     17 C16         2.1860   -1.6340   -0.2740 c3        1 3KL     -0.080400
     18 C17         2.0930   -0.0960   -0.3660 c3        1 3KL     -0.047700
     19 C18         0.9950    0.2510    1.8650 c3        1 3KL     -0.080100
     20 C19        -3.5240    0.4790    2.3510 c3        1 3KL     -0.087100
     21 C20         3.3610    0.5810    0.1430 c3        1 3KL     -0.061700
     22 C21         3.2560    2.0910    0.0730 c3        1 3KL     -0.086100
     23 C22         4.5690    0.1120   -0.6680 c3        1 3KL     -0.068400
     24 C23         5.8850    0.4100    0.0090 c3        1 3KL     -0.196400
     25 C24         7.0390   -0.3710   -0.6480 c         1 3KL      0.907600
     26 OT1         8.1230    0.2460   -0.8510 o         1 3KL     -0.851800
     27 OT2         6.8570   -1.5910   -0.9340 o         1 3KL     -0.851800
     28 H1         -3.7760    1.7310   -1.7120 hc        1 3KL      0.069200
     29 H2         -5.3390    2.5660   -1.3350 hc        1 3KL      0.069200
     30 H3         -5.5110   -1.7220   -1.2200 hc        1 3KL      0.070700
     31 H4         -3.9020   -1.0340   -1.6820 hc        1 3KL      0.070700
     32 H5         -5.3690   -0.8240    1.0330 hc        1 3KL      0.043700
     33 H6         -3.6150   -2.2220    1.8950 hc        1 3KL      0.038700
     34 H7         -4.2650   -3.0070    0.4020 hc        1 3KL      0.038700
     35 H8         -3.7900    2.5700    0.6290 hc        1 3KL      0.045700
     36 H9         -5.3330    1.6980    0.9640 hc        1 3KL      0.045700
     37 H10        -1.7520   -3.0980    0.5620 hc        1 3KL      0.042200
     38 H11        -2.3310   -2.2500   -0.9210 hc        1 3KL      0.042200
     39 H12        -1.3190   -0.9770    1.7070 hc        1 3KL      0.055700
     40 H13        -2.3500    0.2980   -0.9260 hc        1 3KL      0.041700
     41 H14        -1.8590    2.4720    0.0440 hc        1 3KL      0.034200
     42 H15        -1.2960    1.7320    1.5950 hc        1 3KL      0.034200
     43 H16         0.0100    1.5280   -1.2020 hc        1 3KL      0.042700
     44 H17         0.6240    2.4050    0.2530 hc        1 3KL      0.042700
     45 H18        -0.3120   -0.8170   -1.2010 hc        1 3KL      0.041700
     46 H19         0.7420   -2.5820    1.0810 hc        1 3KL      0.033700
     47 H20         0.4870   -2.9800   -0.6600 hc        1 3KL      0.033700
     48 H21         2.9080   -1.9340    0.5260 hc        1 3KL      0.057200
     49 H22         2.5590   -2.0520   -1.2400 hc        1 3KL      0.057200
     50 H23         1.9660    0.1930   -1.4460 hc        1 3KL      0.041700
     51 H24         0.0350    0.3350    2.4290 hc        1 3KL      0.033367
     52 H25         1.5130   -0.6850    2.1860 hc        1 3KL      0.033367
     53 H26         1.6340    1.1240    2.1450 hc        1 3KL      0.033367
     54 H27        -2.9090   -0.3520    2.7670 hc        1 3KL      0.036367
     55 H28        -3.0700    1.4480    2.6680 hc        1 3KL      0.036367
     56 H29        -4.5480    0.4110    2.7930 hc        1 3KL      0.036367
     57 H30         3.5230    0.2800    1.2170 hc        1 3KL      0.043700
     58 H31         2.5980    2.4890    0.8830 hc        1 3KL      0.025367
     59 H32         4.2690    2.5490    0.1940 hc        1 3KL      0.025367
     60 H33         2.8390    2.4130   -0.9120 hc        1 3KL      0.025367
     61 H34         4.5190   -0.9980   -0.8370 hc        1 3KL      0.048200
     62 H35         4.5450    0.6020   -1.6770 hc        1 3KL      0.048200
     63 H36         6.1170    1.5030   -0.0300 hc        1 3KL      0.019700
     64 H37         5.8420    0.1050    1.0860 hc        1 3KL      0.019700
@<TRIPOS>BOND
     1    1    2 1   
     2    1    7 1   
     3    1   28 1   
     4    1   29 1   
     5    2    3 2   
     6    2    4 1   
     7    4    5 1   
     8    4   30 1   
     9    4   31 1   
    10    5    6 1   
    11    5   11 1   
    12    5   32 1   
    13    6    8 1   
    14    6   33 1   
    15    6   34 1   
    16    7   11 1   
    17    7   35 1   
    18    7   36 1   
    19    8    9 1   
    20    8   37 1   
    21    8   38 1   
    22    9   10 1   
    23    9   15 1   
    24    9   39 1   
    25   10   11 1   
    26   10   12 1   
    27   10   40 1   
    28   11   20 1   
    29   12   13 1   
    30   12   41 1   
    31   12   42 1   
    32   13   14 1   
    33   13   43 1   
    34   13   44 1   
    35   14   15 1   
    36   14   18 1   
    37   14   19 1   
    38   15   16 1   
    39   15   45 1   
    40   16   17 1   
    41   16   46 1   
    42   16   47 1   
    43   17   18 1   
    44   17   48 1   
    45   17   49 1   
    46   18   21 1   
    47   18   50 1   
    48   19   51 1   
    49   19   52 1   
    50   19   53 1   
    51   20   54 1   
    52   20   55 1   
    53   20   56 1   
    54   21   22 1   
    55   21   23 1   
    56   21   57 1   
    57   22   58 1   
    58   22   59 1   
    59   22   60 1   
    60   23   24 1   
    61   23   61 1   
    62   23   62 1   
    63   24   25 1   
    64   24   63 1   
    65   24   64 1   
    66   25   26 1   
    67   25   27 1   
@<TRIPOS>SUBSTRUCTURE
     1 3KL         1 TEMP              0 ****  ****    0 ROOT
