@<TRIPOS>MOLECULE
3KL
   64    65     1     0     0
SMALL
bcc


@<TRIPOS>ATOM
      1 C2          0.7300    0.2030   -3.9560 c3        1 3KL     -0.211000
      2 C3          2.1670    0.4020   -4.1660 c1        1 3KL      0.235000
      3 O3          2.5620    1.2070   -5.0040 o         1 3KL     -0.307000
      4 C4          2.8640   -0.6150   -3.8850 c2        1 3KL     -0.210000
      5 C5          2.5020   -1.5790   -2.6250 c3        1 3KL     -0.084000
      6 C6          3.2330   -1.2830   -1.3390 c3        1 3KL     -0.152000
      7 C1          0.3890   -1.4970   -3.8180 c3        1 3KL     -0.147000
      8 C7          2.5840   -0.1800   -0.5320 c3        1 3KL     -0.154000
      9 C8          1.4500   -0.3480   -0.3590 c3        1 3KL     -0.087000
     10 C9          0.7200   -0.5600   -1.5160 c3        1 3KL     -0.085000
     11 C10         1.3080   -1.7480   -2.4460 c3        1 3KL     -0.039000
     12 C11        -0.9240   -0.8670   -1.1960 c3        1 3KL     -0.151000
     13 C12        -1.4250    0.0140   -0.4300 c3        1 3KL     -0.144000
     14 C13        -0.6810    0.1690    0.6680 c3        1 3KL     -0.047000
     15 C14         1.0140    0.4370    0.3000 c3        1 3KL     -0.107000
     16 C15         1.5740    0.4770    1.5910 c3        1 3KL     -0.152000
     17 C16         0.4370    1.4080    2.4290 c3        1 3KL     -0.159000
     18 C17        -0.9770    1.2640    1.3880 c3        1 3KL     -0.087000
     19 C18        -0.8220   -1.1280    1.5820 c3        1 3KL     -0.198000
     20 C19         1.0260   -3.1130   -1.8280 c3        1 3KL     -0.205000
     21 C20        -2.1750    1.0660    2.1700 c3        1 3KL     -0.101000
     22 C21        -3.3890    1.6030    1.3890 c3        1 3KL     -0.204000
     23 C22        -2.0470    1.8320    3.5240 c3        1 3KL     -0.147000
     24 C23        -3.3070    1.5970    4.3640 c3        1 3KL     -0.225000
     25 C24        -3.2680    2.4650    5.5750 c1        1 3KL      0.327000
     26 OT1        -2.7120    2.0570    6.6200 os        1 3KL     -0.590000
     27 OT2        -3.7730    3.6130    5.5410 o         1 3KL     -0.583000
     28 H1          0.0970    0.5960   -4.5500 hc        1 3KL      0.108500
     29 H2          0.5200    0.6870   -3.1290 hc        1 3KL      0.108500
     30 H3          2.9440   -1.1280   -4.7350 ha        1 3KL      0.110000
     31 H4          3.7860   -0.3500   -3.7610 ha        1 3KL      0.110000
     32 H5          2.8330   -2.4540   -2.8940 hc        1 3KL      0.083000
     33 H6          4.1390   -1.0240   -1.5490 hc        1 3KL      0.078000
     34 H7          3.2550   -2.0700   -0.8150 hc        1 3KL      0.078000
     35 H8          0.7230   -1.9880   -4.5650 hc        1 3KL      0.085000
     36 H9         -0.5600   -1.6660   -3.6570 hc        1 3KL      0.085000
     37 H10         2.7120    0.7000   -1.0220 hc        1 3KL      0.081500
     38 H11         3.0250   -0.1240    0.3320 hc        1 3KL      0.081500
     39 H12         1.3820   -1.1920    0.1520 hc        1 3KL      0.095000
     40 H13         0.7640    0.2870   -2.0510 hc        1 3KL      0.081000
     41 H14        -1.4290   -0.8740   -2.0610 hc        1 3KL      0.073500
     42 H15        -1.0100   -1.7640   -0.7620 hc        1 3KL      0.073500
     43 H16        -1.4720    0.8650   -0.9090 hc        1 3KL      0.082000
     44 H17        -2.3230   -0.2570   -0.1730 hc        1 3KL      0.082000
     45 H18         1.1180    1.3100   -0.1240 hc        1 3KL      0.081000
     46 H19         1.6430   -0.4510    1.9830 hc        1 3KL      0.073000
     47 H20         2.4470    0.9200    1.5790 hc        1 3KL      0.073000
     48 H21         0.7360    2.3560    2.4950 hc        1 3KL      0.096500
     49 H22         0.2610    1.0310    3.3140 hc        1 3KL      0.096500
     50 H23        -1.0650    2.0420    0.8120 hc        1 3KL      0.081000
     51 H24        -0.2110   -1.8120    1.2640 hc        1 3KL      0.072667
     52 H25        -0.6070   -0.9050    2.4930 hc        1 3KL      0.072667
     53 H26        -1.7830   -1.4800    1.5330 hc        1 3KL      0.072667
     54 H27         1.4570   -3.7940   -2.3470 hc        1 3KL      0.075667
     55 H28         0.0630   -3.2720   -1.8150 hc        1 3KL      0.075667
     56 H29         1.3730   -3.1320   -0.9090 hc        1 3KL      0.075667
     57 H30        -2.2970    0.1070    2.3480 hc        1 3KL      0.083000
     58 H31        -3.1030    1.8710    0.4830 hc        1 3KL      0.064667
     59 H32        -4.0680    0.9050    1.3230 hc        1 3KL      0.064667
     60 H33        -3.7580    2.3710    1.8520 hc        1 3KL      0.064667
     61 H34        -1.2790    1.5110    4.0010 hc        1 3KL      0.087500
     62 H35        -1.9420    2.8160    3.3450 hc        1 3KL      0.087500
     63 H36        -3.3470    0.6580    4.6360 hc        1 3KL      0.059000
     64 H37        -4.0830    1.8110    3.8420 hc        1 3KL      0.059000
@<TRIPOS>BOND
     1    1    2 1   
     2    1    7 1   
     3    1   28 1   
     4    1   29 1   
     5    2    3 1   
     6    4    5 1   
     7    4   30 1   
     8    4   31 1   
     9    5    6 1   
    10    5   11 1   
    11    5   32 1   
    12    6    8 1   
    13    6   33 1   
    14    6   34 1   
    15    7   11 1   
    16    7   35 1   
    17    7   36 1   
    18    8    9 1   
    19    8   37 1   
    20    8   38 1   
    21    9   10 1   
    22    9   15 1   
    23    9   39 1   
    24   10   11 1   
    25   10   12 1   
    26   10   40 1   
    27   11   20 1   
    28   12   13 1   
    29   12   41 1   
    30   12   42 1   
    31   13   14 1   
    32   13   43 1   
    33   13   44 1   
    34   14   15 1   
    35   14   18 1   
    36   14   19 1   
    37   15   16 1   
    38   15   45 1   
    39   16   17 1   
    40   16   46 1   
    41   16   47 1   
    42   17   18 1   
    43   17   48 1   
    44   17   49 1   
    45   18   21 1   
    46   18   50 1   
    47   19   51 1   
    48   19   52 1   
    49   19   53 1   
    50   20   54 1   
    51   20   55 1   
    52   20   56 1   
    53   21   22 1   
    54   21   23 1   
    55   21   57 1   
    56   22   58 1   
    57   22   59 1   
    58   22   60 1   
    59   23   24 1   
    60   23   61 1   
    61   23   62 1   
    62   24   25 1   
    63   24   63 1   
    64   24   64 1   
    65   25   27 1   
@<TRIPOS>SUBSTRUCTURE
     1 3KL         1 TEMP              0 ****  ****    0 ROOT
