@<TRIPOS>MOLECULE
3KM
   73    70     1     0     0
SMALL
bcc


@<TRIPOS>ATOM
      1 N1         -3.1640    0.3140   -2.6060 n8        1 3KM     -0.949000
      2 N3         -3.0980    4.4730   -0.0630 n2        1 3KM     -0.100000
      3 C4         -1.9270   -3.4140    1.3680 c1        1 3KM     -0.003000
      4 C5          0.9430   -2.7520   -1.6660 c2        1 3KM     -0.308000
      5 C6          1.2200   -3.3270   -0.4410 c2        1 3KM      0.193000
      6 C7         -2.8840   -2.5070    1.4310 c2        1 3KM     -0.056000
      7 C8         -2.8040   -1.4310    0.5290 c1        1 3KM      0.224000
      8 C10         1.1780   -1.4090   -1.9130 c2        1 3KM      0.233000
      9 C13         3.1360    1.9190   -0.6700 c2        1 3KM      0.144000
     10 C15         5.1600   -0.7290    2.3490 c2        1 3KM     -0.175000
     11 C17         8.2690   -1.6760    1.8670 c3        1 3KM     -0.166000
     12 C20         0.2800    3.6970   -0.2590 c2        1 3KM      0.051000
     13 C21        -0.5440    4.7300    0.0290 c2        1 3KM     -0.188000
     14 C22         0.8390    6.6300   -1.1360 c1        1 3KM      0.231000
     15 C24         2.4990    4.8120   -0.7180 c2        1 3KM     -0.015000
     16 C26         9.7030   -1.4080    2.2870 c3        1 3KM     -0.186000
     17 C1          1.0190   -4.7620   -0.1600 c3        1 3KM     -0.187000
     18 O1          2.3150    2.6240    0.2240 os        1 3KM     -0.188000
     19 S1         -2.1280    0.4660   -1.4200 s6        1 3KM      2.979000
     20 C2          0.0390   -5.0110    0.9370 c2        1 3KM     -0.015000
     21 N2          5.3670   -0.2960    0.9790 nx        1 3KM     -0.037000
     22 O2          3.5570   -1.5810    0.1190 o         1 3KM     -0.483000
     23 C3         -0.9590   -4.1970    1.1750 c1        1 3KM     -0.142000
     24 O3         -0.8230    0.0390   -1.8410 o         1 3KM     -1.001500
     25 N4         -2.3480    7.2510   -0.6340 n9        1 3KM     -0.454000
     26 O4         -2.1440    1.7940   -0.9140 o         1 3KM     -1.001500
     27 N5         12.0940   -2.0960    1.9110 nz        1 3KM     -0.066000
     28 C9         -2.5900   -0.5750   -0.2970 c1        1 3KM     -0.967000
     29 C11         3.5970    0.7650   -0.2990 c1        1 3KM     -0.579000
     30 C12         3.9840   -0.4020    0.1930 c2        1 3KM      0.370000
     31 C14         1.7250    3.7830   -0.2870 c2        1 3KM     -0.039000
     32 C16         5.3020    0.0570    3.4210 c2        1 3KM     -0.165000
     33 C18         7.8400   -0.8520    0.6710 c3        1 3KM     -0.185000
     34 C19         6.3920   -1.1090    0.2680 c3        1 3KM     -0.114000
     35 C23         2.0290    6.0630   -1.2330 c2        1 3KM     -0.448000
     36 C27        10.6770   -2.2510    1.4690 c3        1 3KM     -0.137000
     37 H1         -3.0380   -0.2980   -3.3780 hn        1 3KM      0.267000
     38 H2         -4.0760    4.4280   -0.1210 hn        1 3KM      0.387000
     39 H3          1.6370   -2.7070    0.3860 ha        1 3KM      0.192000
     40 H4          0.5280   -3.3800   -2.4800 ha        1 3KM      0.181000
     41 H5         -3.7290   -2.5580    2.1440 ha        1 3KM      0.216000
     42 H6          0.9670   -0.9630   -2.9020 ha        1 3KM      0.180500
     43 H7          1.6030   -0.7330   -1.1440 ha        1 3KM      0.180500
     44 H8          3.3180    2.4110   -1.6400 h4        1 3KM      0.146000
     45 H9          5.6540    0.6880    0.9640 hn        1 3KM      0.225000
     46 H10         4.8080   -1.7780    2.4030 hx        1 3KM      0.186000
     47 H11         8.1300   -2.7680    1.6470 hc        1 3KM      0.110500
     48 H12        -0.1330    2.6900   -0.4870 ha        1 3KM      0.183000
     49 H13        -0.2210    5.7260    0.4050 ha        1 3KM      0.219000
     50 H14         2.7920    6.6660   -1.7890 ha        1 3KM      0.227000
     51 H15         9.9380   -0.3170    2.1660 hc        1 3KM      0.116000
     52 H16         9.8070   -1.6590    3.3780 hc        1 3KM      0.116000
     53 H17         2.0230   -5.1950    0.1350 hc        1 3KM      0.162000
     54 H18         0.6730   -5.3290   -1.0730 hc        1 3KM      0.162000
     55 H19         0.1800   -5.9470    1.5100 ha        1 3KM      0.193000
     56 H20        -1.4080    7.4580   -0.9180 hn        1 3KM      0.152000
     57 H21        -2.5860    7.8500    0.1310 hn        1 3KM      0.152000
     58 H22        12.3920   -1.1170    1.8250 hn        1 3KM      0.264333
     59 H23        12.1940   -2.3800    2.8930 hn        1 3KM      0.264333
     60 H25         6.2740   -0.8660   -0.8290 hx        1 3KM      0.141500
     61 H26         5.6150    1.1100    3.3870 ha        1 3KM      0.154500
     62 H27         5.0850   -0.3340    4.4280 ha        1 3KM      0.154500
     63 H28         7.5980   -1.4300    2.7370 hc        1 3KM      0.110500
     64 H29         8.4770   -1.1230   -0.2150 hc        1 3KM      0.105000
     65 H30         8.0120    0.2380    0.8750 hc        1 3KM      0.105000
     66 H31         6.1260   -2.1950    0.4130 hx        1 3KM      0.141500
     67 H32         3.5990    4.6790   -0.7100 ha        1 3KM      0.161000
     68 H33        10.6240   -1.9580    0.3810 hx        1 3KM      0.154000
     69 H34        10.4120   -3.3460    1.5620 hx        1 3KM      0.154000
     70 H121       -4.0350    0.7870   -2.6520 hn        1 3KM      0.267000
     71 H43        -2.9600    7.4620   -1.3970 hn        1 3KM      0.152000
     72 H53        12.7080   -2.6820    1.3330 hn        1 3KM      0.264333
     73 C25        -1.9460    4.5890   -0.0390 c1        1 3KM      0.382000
@<TRIPOS>BOND
     1    1   19 1   
     2    1   37 1   
     3    1   70 1   
     4    2   38 1   
     5    2   73 1   
     6    3    6 1   
     7    3   23 1   
     8    4    5 1   
     9    4    8 1   
    10    4   40 1   
    11    5   17 1   
    12    5   39 1   
    13    6    7 1   
    14    6   41 1   
    15    7   28 1   
    16    8   42 1   
    17    8   43 1   
    18    9   18 1   
    19    9   29 1   
    20    9   44 1   
    21   10   21 1   
    22   10   32 1   
    23   10   46 1   
    24   11   16 1   
    25   11   33 1   
    26   11   47 1   
    27   11   63 1   
    28   12   13 1   
    29   12   31 1   
    30   12   48 1   
    31   13   49 1   
    32   13   73 1   
    33   14   35 1   
    34   15   31 1   
    35   15   35 1   
    36   15   67 1   
    37   16   36 1   
    38   16   51 1   
    39   16   52 1   
    40   17   20 1   
    41   17   53 1   
    42   17   54 1   
    43   18   31 1   
    44   19   24 1   
    45   19   26 1   
    46   19   28 1   
    47   20   23 1   
    48   20   55 1   
    49   21   30 1   
    50   21   34 1   
    51   21   45 1   
    52   22   30 1   
    53   25   56 1   
    54   25   57 1   
    55   25   71 1   
    56   27   36 1   
    57   27   58 1   
    58   27   59 1   
    59   27   72 1   
    60   29   30 1   
    61   32   61 1   
    62   32   62 1   
    63   33   34 1   
    64   33   64 1   
    65   33   65 1   
    66   34   60 1   
    67   34   66 1   
    68   35   50 1   
    69   36   68 1   
    70   36   69 1   
@<TRIPOS>SUBSTRUCTURE
     1 3KM         1 TEMP              0 ****  ****    0 ROOT
