@<TRIPOS>MOLECULE
3KM
   73    71     1     0     0
SMALL
bcc


@<TRIPOS>ATOM
      1 N1         45.5950   51.0530   10.2370 n3        1 3KM     -0.360000
      2 N3         39.6090   50.7400    9.9950 n2        1 3KM     -0.255000
      3 C4       -138.8410 -177.6830  -26.5320 c1        1 3KM      0.237000
      4 C5       -135.7390 -174.3330  -27.0330 c2        1 3KM      0.036000
      5 C6       -135.8060 -175.6600  -26.8380 c2        1 3KM     -0.232000
      6 C7       -139.9590 -177.7360  -25.7540 c2        1 3KM     -0.473000
      7 C8       -140.3430 -176.9360  -24.7430 c1        1 3KM      0.530000
      8 C10      -135.8230 -173.3940  -25.9950 c1        1 3KM     -0.200000
      9 C13        45.4440   51.0650    7.7400 c3        1 3KM     -0.047000
     10 C15        46.5350   56.7050    9.0800 c1        1 3KM     -0.080000
     11 C17        47.9290   58.7310    8.8550 c3        1 3KM     -0.146000
     12 C20        41.7000   50.6510    7.6130 cx        1 3KM     -0.207000
     13 C21        40.9730   49.5220    8.3270 cx        1 3KM     -0.079000
     14 C22        41.0290   49.5180    6.8160 cx        1 3KM     -0.149000
     15 C24        43.3620   49.2850    6.5370 c2        1 3KM     -0.265000
     16 C26        48.0970   60.1570    9.3470 c3        1 3KM     -0.194000
     17 C1       -135.6730 -176.6390  -27.9390 c3        1 3KM     -0.168000
     18 O1         44.0130   51.2830    7.9220 os        1 3KM     -0.108000
     19 S1         44.9730   48.6620   10.1160 ss        1 3KM      1.593000
     20 C2       -136.7550 -177.6210  -28.0390 c2        1 3KM      0.282000
     21 N2         47.0600   53.7880    8.1210 n         1 3KM     -0.320000
     22 O2         45.5010   53.7730    9.7650 o         1 3KM     -0.374000
     23 C3       -137.8400 -177.6510  -27.2460 c1        1 3KM     -0.246000
     24 O3         43.8060   49.0650    9.3490 o         1 3KM     -0.823000
     25 N4         38.5460   49.2450    8.4830 n3        1 3KM     -0.323000
     26 O4         45.9790   48.4280    9.1270 o         1 3KM     -0.823000
     27 N5         49.5430   62.1970    9.0860 n4        1 3KM     -0.067000
     28 C9       -135.8800 -172.5670  -25.1300 c1        1 3KM     -0.104000
     29 C11        46.1680   51.5750    9.0020 c3        1 3KM     -0.060000
     30 C12        46.2240   53.1200    8.9810 c2        1 3KM      0.266000
     31 C14        43.1620   50.4280    7.4110 c2        1 3KM      0.380000
     32 C16        46.7310   58.0720    9.5160 c3        1 3KM     -0.237000
     33 C18        48.6940   53.8770    6.3380 c2        1 3KM     -0.243000
     34 C19        47.9470   53.1930    7.2180 c2        1 3KM     -0.068000
     35 C23        42.1460   48.7350    6.2200 c2        1 3KM      0.067000
     36 C27        49.3030   60.7860    8.6610 c3        1 3KM     -0.136000
     37 H1         44.7080   51.5010   10.4120 hn        1 3KM      0.194500
     38 H2         40.4620   51.2060   10.2140 hn        1 3KM      0.154000
     39 H3       -135.9200 -176.0880  -25.8290 ha        1 3KM      0.145000
     40 H4       -135.6040 -173.9020  -28.0460 ha        1 3KM      0.148000
     41 H5       -140.6880 -178.5700  -25.9760 ha        1 3KM      0.257000
     42 H6       -135.9280 -171.8280  -24.3660 ha        1 3KM      0.243000
     43 H7         47.2240   51.1630    8.9310 h1        1 3KM      0.160000
     44 H8         45.6540   49.9700    7.5890 h1        1 3KM      0.154500
     45 H9         47.0570   54.7990    8.1780 hn        1 3KM      0.282000
     46 H10        45.6610   56.1840    9.5060 ha        1 3KM      0.088000
     47 H11        48.8520   58.1350    9.0810 hc        1 3KM      0.106500
     48 H12        41.3340   51.6880    7.6650 hc        1 3KM      0.202000
     49 H13        41.5770   48.7810    8.8970 hc        1 3KM      0.182000
     50 H14        41.9720   47.8400    5.6090 ha        1 3KM      0.199000
     51 H15        47.1670   60.7440    9.1200 hc        1 3KM      0.109000
     52 H16        48.2390   60.1540   10.4610 hc        1 3KM      0.109000
     53 H17      -134.6990 -177.2140  -27.8140 hc        1 3KM      0.178000
     54 H18      -135.5830 -176.1230  -28.9460 hc        1 3KM      0.178000
     55 H19      -136.6620 -178.3970  -28.8350 ha        1 3KM      0.187000
     56 H20        40.1160   49.6670    6.2120 hc        1 3KM      0.208000
     57 H21        37.6870   49.4410    8.9580 hn        1 3KM      0.206500
     58 H22        50.3620   62.5770    8.5980 hn        1 3KM      0.260000
     59 H23        49.7080   62.2390   10.0970 hn        1 3KM      0.260000
     60 H25        45.7350   51.6690    6.8400 h1        1 3KM      0.154500
     61 H26        45.8010   58.6780    9.3050 hc        1 3KM      0.132000
     62 H27        46.8640   58.0810   10.6390 hc        1 3KM      0.132000
     63 H28        47.7880   58.7240    7.7420 hc        1 3KM      0.106500
     64 H29        49.3790   53.3500    5.6600 ha        1 3KM      0.137500
     65 H30        48.6770   54.9690    6.2390 ha        1 3KM      0.137500
     66 H31        48.0130   52.0890    7.2740 h4        1 3KM      0.134000
     67 H32        44.3450   48.9100    6.2360 ha        1 3KM      0.199000
     68 H33        49.1530   60.7870    7.5410 hx        1 3KM      0.155000
     69 H34        50.2360   60.1940    8.8990 hx        1 3KM      0.155000
     70 H121       46.2130   51.2540   11.0040 hn        1 3KM      0.194500
     71 H43        38.6840   48.2700    8.3210 hn        1 3KM      0.206500
     72 H53        48.7260   62.7770    8.8650 hn        1 3KM      0.260000
     73 C25        39.6810   49.8810    9.0270 c2        1 3KM      0.080000
@<TRIPOS>BOND
     1    1   29 1   
     2    1   37 1   
     3    1   70 1   
     4    2   38 1   
     5    2   73 1   
     6    3    6 1   
     7    3   23 1   
     8    4    5 1   
     9    4    8 1   
    10    4   40 1   
    11    5   17 1   
    12    5   39 1   
    13    6    7 1   
    14    6   41 1   
    15    8   28 1   
    16    9   18 1   
    17    9   29 1   
    18    9   44 1   
    19    9   60 1   
    20   10   32 1   
    21   10   46 1   
    22   11   16 1   
    23   11   32 1   
    24   11   47 1   
    25   11   63 1   
    26   12   13 1   
    27   12   14 1   
    28   12   31 1   
    29   12   48 1   
    30   13   14 1   
    31   13   49 1   
    32   13   73 1   
    33   14   35 1   
    34   14   56 1   
    35   15   31 1   
    36   15   35 1   
    37   15   67 1   
    38   16   36 1   
    39   16   51 1   
    40   16   52 1   
    41   17   20 1   
    42   17   53 1   
    43   17   54 1   
    44   18   31 1   
    45   19   24 1   
    46   19   26 1   
    47   20   23 1   
    48   20   55 1   
    49   21   30 1   
    50   21   34 1   
    51   21   45 1   
    52   22   30 1   
    53   25   57 1   
    54   25   71 1   
    55   25   73 1   
    56   27   36 1   
    57   27   58 1   
    58   27   59 1   
    59   27   72 1   
    60   28   42 1   
    61   29   30 1   
    62   29   43 1   
    63   32   61 1   
    64   32   62 1   
    65   33   34 1   
    66   33   64 1   
    67   33   65 1   
    68   34   66 1   
    69   35   50 1   
    70   36   68 1   
    71   36   69 1   
@<TRIPOS>SUBSTRUCTURE
     1 3KM         1 TEMP              0 ****  ****    0 ROOT
