@<TRIPOS>MOLECULE
3KN
   20    21     1     0     0
SMALL
bcc


@<TRIPOS>ATOM
      1 NAM        -0.0050    0.4540    0.1000 nh        1 3KN     -0.842200
      2 CAI         1.3230    0.1170    0.0060 ca        1 3KN      0.257600
      3 CAH         2.1280    0.0570    1.1820 ca        1 3KN     -0.333300
      4 CAL         3.4930   -0.1950    1.0650 ca        1 3KN      0.442200
      5 NAK         4.1280   -0.3970   -0.1120 nb        1 3KN     -0.703000
      6 CAJ         3.3760   -0.3530   -1.2190 ca        1 3KN      0.449200
      7 CAG         1.9830   -0.1070   -1.2380 ca        1 3KN     -0.337800
      8 CAE         1.2980   -0.1030   -2.5090 cc        1 3KN      0.423900
      9 SAA         2.0210    0.5970   -3.9160 ss        1 3KN     -0.203800
     10 NAD         0.0800   -0.6370   -2.7660 nd        1 3KN     -0.322000
     11 NAC        -0.3010   -0.5410   -4.0010 nd        1 3KN     -0.377000
     12 CAB         0.6100    0.0980   -4.8080 cc        1 3KN      0.570300
     13 NAF         0.4190    0.4400   -6.1380 nh        1 3KN     -0.885500
     14 H1         -0.4260    0.3940    0.9960 hn        1 3KN      0.430800
     15 H2         -0.6020    0.3140   -0.6780 hn        1 3KN      0.430800
     16 H3          1.6810    0.2120    2.1720 ha        1 3KN      0.144000
     17 H4          4.1350   -0.2440    1.9650 h4        1 3KN      0.022100
     18 H5          3.9120   -0.5300   -2.1710 h4        1 3KN      0.020100
     19 H6          1.2120    0.2540   -6.7140 hn        1 3KN      0.407300
     20 H7         -0.4380    0.1110   -6.5370 hn        1 3KN      0.407300
@<TRIPOS>BOND
     1    1    2 1   
     2    1   14 1   
     3    1   15 1   
     4    2    3 ar  
     5    2    7 ar  
     6    3    4 ar  
     7    3   16 1   
     8    4    5 ar  
     9    4   17 1   
    10    5    6 ar  
    11    6    7 ar  
    12    6   18 1   
    13    7    8 1   
    14    8    9 1   
    15    8   10 2   
    16    9   12 1   
    17   10   11 1   
    18   11   12 2   
    19   12   13 1   
    20   13   19 1   
    21   13   20 1   
@<TRIPOS>SUBSTRUCTURE
     1 3KN         1 TEMP              0 ****  ****    0 ROOT
