@<TRIPOS>MOLECULE
3KN
   20    21     1     0     0
SMALL
bcc


@<TRIPOS>ATOM
      1 NAM        -0.0020    0.4640    0.1000 nv        1 3KN     -0.842200
      2 CAI         1.3240    0.1210    0.0050 ca        1 3KN      0.257600
      3 CAH         2.1310    0.0580    1.1810 ca        1 3KN     -0.333300
      4 CAL         3.4940   -0.2010    1.0640 ca        1 3KN      0.442200
      5 NAK         4.1270   -0.4080   -0.1140 nb        1 3KN     -0.703000
      6 CAJ         3.3740   -0.3620   -1.2200 ca        1 3KN      0.449200
      7 CAG         1.9820   -0.1090   -1.2380 ca        1 3KN     -0.337800
      8 CAE         1.2970   -0.1030   -2.5100 cc        1 3KN      0.423900
      9 SAA         2.0230    0.5910   -3.9180 ss        1 3KN     -0.203800
     10 NAD         0.0760   -0.6310   -2.7640 nd        1 3KN     -0.322000
     11 NAC        -0.3060   -0.5350   -4.0000 nd        1 3KN     -0.377000
     12 CAB         0.6080    0.0980   -4.8080 cc        1 3KN      0.570300
     13 NAF         0.4180    0.4390   -6.1380 nv        1 3KN     -0.885500
     14 H1         -0.4220    0.4080    0.9960 hn        1 3KN      0.430800
     15 H2         -0.6000    0.3260   -0.6780 hn        1 3KN      0.430800
     16 H3          1.6850    0.2170    2.1710 ha        1 3KN      0.144000
     17 H4          4.1360   -0.2520    1.9630 h4        1 3KN      0.022100
     18 H5          3.9090   -0.5420   -2.1720 h4        1 3KN      0.020100
     19 H6          1.2100    0.2470   -6.7150 hn        1 3KN      0.407300
     20 H7         -0.4400    0.1140   -6.5370 hn        1 3KN      0.407300
@<TRIPOS>BOND
     1    1    2 1   
     2    1   14 1   
     3    1   15 1   
     4    2    3 ar  
     5    2    7 ar  
     6    3    4 ar  
     7    3   16 1   
     8    4    5 ar  
     9    4   17 1   
    10    5    6 ar  
    11    6    7 ar  
    12    6   18 1   
    13    7    8 1   
    14    8    9 1   
    15    8   10 2   
    16    9   12 1   
    17   10   11 1   
    18   11   12 2   
    19   12   13 1   
    20   13   19 1   
    21   13   20 1   
@<TRIPOS>SUBSTRUCTURE
     1 3KN         1 TEMP              0 ****  ****    0 ROOT
