@<TRIPOS>MOLECULE
3KO
   70    73     1     0     0
SMALL
bcc


@<TRIPOS>ATOM
      1 C2          0.2810   -0.2420   -0.6840 c2        1 3KO      0.621800
      2 C3          1.9220   -0.2470    0.9820 c         1 3KO      0.696500
      3 C4          0.5310   -0.1000    1.6730 c3        1 3KO      0.116200
      4 C7          0.5440    6.1290    2.1960 c         1 3KO      0.661100
      5 N1          1.6990   -0.3010   -0.4020 n         1 3KO     -0.458300
      6 C9          0.4850    1.2430    2.4230 c3        1 3KO     -0.092400
      7 C13        -0.4290    7.2180    1.7880 c3        1 3KO     -0.137400
      8 C10         1.0270    3.7000    2.3070 c3        1 3KO      0.096000
      9 C12         0.3760   -1.2180    2.7220 c3        1 3KO     -0.058400
     10 C27         0.9820   -6.0940    3.6930 c3        1 3KO     -0.076400
     11 C28         1.0540   10.5020    0.7790 c3        1 3KO     -0.078900
     12 C29        -0.3040   10.9140    1.3360 c3        1 3KO     -0.078900
     13 C30        -0.3620   -6.2400    4.3760 c3        1 3KO     -0.076400
     14 C26        -0.8230   -4.9210    4.9600 c3        1 3KO     -0.076400
     15 C25        -0.8540   -3.8320    3.9070 c3        1 3KO     -0.073400
     16 C24         0.9520   -5.0040    2.6420 c3        1 3KO     -0.073400
     17 C23         1.1940    9.0010    0.9880 c3        1 3KO     -0.076900
     18 C22        -0.9470    9.6760    1.9460 c3        1 3KO     -0.076900
     19 C14        -1.0250    4.4070    1.2880 c3        1 3KO      0.094000
     20 C16         0.4750    2.4730    1.5400 c3        1 3KO     -0.087700
     21 C17         2.6770   -0.6130   -1.3890 c3        1 3KO      0.085300
     22 C18        -0.9220    2.8880    1.0640 c3        1 3KO     -0.097400
     23 C19         0.4610   -2.6130    2.1440 c3        1 3KO     -0.076400
     24 C20         0.1400    8.6020    2.0210 c3        1 3KO     -0.061700
     25 C21         0.5030   -3.6740    3.2340 c3        1 3KO     -0.062700
     26 N5         -0.4460   -0.2400    0.5720 nu        1 3KO     -0.759200
     27 N6          0.1300    4.8120    2.0580 n         1 3KO     -0.481800
     28 N8         -0.3110   -0.2200   -1.8400 n2        1 3KO     -0.829100
     29 O11         3.0230   -0.2910    1.5350 o         1 3KO     -0.586500
     30 O15         1.6620    6.3700    2.6920 o         1 3KO     -0.602100
     31 H1          1.3990    1.2710    3.0800 hc        1 3KO      0.071700
     32 H2         -0.4140    1.2510    3.0950 hc        1 3KO      0.071700
     33 H3         -0.6960    7.0900    0.7050 hc        1 3KO      0.063700
     34 H4         -1.3710    7.0960    2.3880 hc        1 3KO      0.063700
     35 H5          2.0700    3.9510    1.9700 h1        1 3KO      0.061700
     36 H6          1.0600    3.5040    3.4140 h1        1 3KO      0.061700
     37 H7         -0.6080   -1.0840    3.2430 hc        1 3KO      0.058700
     38 H8          1.1940   -1.0720    3.4760 hc        1 3KO      0.058700
     39 H9          1.7660   -5.8530    4.4580 hc        1 3KO      0.038950
     40 H10         1.2670   -7.0660    3.2130 hc        1 3KO      0.038950
     41 H11         1.8730   11.0460    1.3130 hc        1 3KO      0.040700
     42 H12         1.1350   10.7590   -0.3060 hc        1 3KO      0.040700
     43 H13        -0.1810   11.7120    2.1100 hc        1 3KO      0.040700
     44 H14        -0.9540   11.3340    0.5280 hc        1 3KO      0.040700
     45 H15        -0.2890   -7.0070    5.1900 hc        1 3KO      0.039200
     46 H16        -1.1200   -6.6060    3.6350 hc        1 3KO      0.039200
     47 H17        -1.8470   -5.0420    5.4010 hc        1 3KO      0.038950
     48 H18        -0.1320   -4.6190    5.7910 hc        1 3KO      0.038950
     49 H19        -1.6270   -4.0790    3.1330 hc        1 3KO      0.039950
     50 H20        -1.1510   -2.8620    4.3840 hc        1 3KO      0.039950
     51 H21         0.2530   -5.2960    1.8150 hc        1 3KO      0.039950
     52 H22         1.9740   -4.8870    2.1950 hc        1 3KO      0.039950
     53 H23         2.2160    8.7260    1.3500 hc        1 3KO      0.043950
     54 H24         1.0230    8.4600    0.0230 hc        1 3KO      0.043950
     55 H25        -1.7980    9.3270    1.3080 hc        1 3KO      0.043950
     56 H26        -1.3570    9.8920    2.9630 hc        1 3KO      0.043950
     57 H27        -1.9630    4.6650    1.8540 h1        1 3KO      0.042200
     58 H28        -1.0610    4.9460    0.3000 h1        1 3KO      0.042200
     59 H29         1.1310    2.2920    0.6460 hc        1 3KO      0.064700
     60 H30         2.6940    0.1870   -2.1780 h1        1 3KO      0.052700
     61 H31         3.6870   -0.6680   -0.8990 h1        1 3KO      0.052700
     62 H32         2.4510   -1.5990   -1.8800 h1        1 3KO      0.052700
     63 H33        -1.0670    2.6500   -0.0180 hc        1 3KO      0.056200
     64 H34        -1.7210    2.3670    1.6470 hc        1 3KO      0.056200
     65 H35         1.3910   -2.6960    1.5200 hc        1 3KO      0.051200
     66 H36        -0.4140   -2.8080    1.4700 hc        1 3KO      0.051200
     67 H37         0.6150    8.6250    3.0410 hc        1 3KO      0.074700
     68 H38         1.2540   -3.3650    4.0150 hc        1 3KO      0.049700
     69 H39         0.2890   -0.3050   -2.6320 hn        1 3KO      0.403400
     70 H41        -1.1910    0.4260    0.6000 hn        1 3KO      0.414800
@<TRIPOS>BOND
     1    1    5 1   
     2    1   26 1   
     3    1   28 2   
     4    2    3 1   
     5    2    5 1   
     6    2   29 2   
     7    3    6 1   
     8    3    9 1   
     9    3   26 1   
    10    4    7 1   
    11    4   27 1   
    12    4   30 2   
    13    5   21 1   
    14    6   20 1   
    15    6   31 1   
    16    6   32 1   
    17    7   24 1   
    18    7   33 1   
    19    7   34 1   
    20    8   20 1   
    21    8   27 1   
    22    8   35 1   
    23    8   36 1   
    24    9   23 1   
    25    9   37 1   
    26    9   38 1   
    27   10   13 1   
    28   10   16 1   
    29   10   39 1   
    30   10   40 1   
    31   11   12 1   
    32   11   17 1   
    33   11   41 1   
    34   11   42 1   
    35   12   18 1   
    36   12   43 1   
    37   12   44 1   
    38   13   14 1   
    39   13   45 1   
    40   13   46 1   
    41   14   15 1   
    42   14   47 1   
    43   14   48 1   
    44   15   25 1   
    45   15   49 1   
    46   15   50 1   
    47   16   25 1   
    48   16   51 1   
    49   16   52 1   
    50   17   24 1   
    51   17   53 1   
    52   17   54 1   
    53   18   24 1   
    54   18   55 1   
    55   18   56 1   
    56   19   22 1   
    57   19   27 1   
    58   19   57 1   
    59   19   58 1   
    60   20   22 1   
    61   20   59 1   
    62   21   60 1   
    63   21   61 1   
    64   21   62 1   
    65   22   63 1   
    66   22   64 1   
    67   23   25 1   
    68   23   65 1   
    69   23   66 1   
    70   24   67 1   
    71   25   68 1   
    72   26   70 1   
    73   28   69 1   
@<TRIPOS>SUBSTRUCTURE
     1 3KO         1 TEMP              0 ****  ****    0 ROOT
