@<TRIPOS>MOLECULE
3KO
   70    73     1     0     0
SMALL
bcc


@<TRIPOS>ATOM
      1 C2          0.3140   -0.2360   -0.6880 c2        1 3KO      0.621800
      2 C3          1.9350   -0.2420    0.9970 c         1 3KO      0.696500
      3 C4          0.5360   -0.0990    1.6720 c3        1 3KO      0.116200
      4 C7          0.5310    6.1280    2.2090 c         1 3KO      0.661100
      5 N1          1.7300   -0.2930   -0.3890 n         1 3KO     -0.458300
      6 C9          0.4780    1.2420    2.4250 c3        1 3KO     -0.092400
      7 C13        -0.4380    7.2170    1.7910 c3        1 3KO     -0.137400
      8 C10         1.0160    3.7000    2.3210 c3        1 3KO      0.096000
      9 C12         0.3700   -1.2200    2.7160 c3        1 3KO     -0.058400
     10 C27         0.9750   -6.0970    3.6820 c3        1 3KO     -0.076400
     11 C28         1.0510   10.5050    0.8060 c3        1 3KO     -0.078900
     12 C29        -0.3140   10.9140    1.3470 c3        1 3KO     -0.078900
     13 C30        -0.3760   -6.2470    4.3490 c3        1 3KO     -0.076400
     14 C26        -0.8470   -4.9310    4.9310 c3        1 3KO     -0.076400
     15 C25        -0.8680   -3.8390    3.8810 c3        1 3KO     -0.073400
     16 C24         0.9550   -5.0040    2.6340 c3        1 3KO     -0.073400
     17 C23         1.1920    9.0030    1.0140 c3        1 3KO     -0.076900
     18 C22        -0.9620    9.6740    1.9480 c3        1 3KO     -0.076900
     19 C14        -1.0240    4.4060    1.2780 c3        1 3KO      0.094000
     20 C16         0.4770    2.4740    1.5440 c3        1 3KO     -0.087700
     21 C17         2.7200   -0.6010   -1.3650 c3        1 3KO      0.085300
     22 C18        -0.9150    2.8880    1.0520 c3        1 3KO     -0.097400
     23 C19         0.4650   -2.6130    2.1360 c3        1 3KO     -0.076400
     24 C20         0.1260    8.6020    2.0330 c3        1 3KO     -0.061700
     25 C21         0.4960   -3.6770    3.2240 c3        1 3KO     -0.062700
     26 N5         -0.4280   -0.2390    0.5590 nh        1 3KO     -0.759200
     27 N6          0.1210    4.8120    2.0630 n         1 3KO     -0.481800
     28 N8         -0.2630   -0.2130   -1.8510 n2        1 3KO     -0.829100
     29 O11         3.0300   -0.2850    1.5640 o         1 3KO     -0.586500
     30 O15         1.6420    6.3710    2.7200 o         1 3KO     -0.602100
     31 H1          1.3830    1.2700    3.0930 hc        1 3KO      0.071700
     32 H2         -0.4290    1.2470    3.0850 hc        1 3KO      0.071700
     33 H3         -0.6920    7.0910    0.7040 hc        1 3KO      0.063700
     34 H4         -1.3870    7.0930    2.3800 hc        1 3KO      0.063700
     35 H5          2.0630    3.9540    1.9980 h1        1 3KO      0.061700
     36 H6          1.0360    3.5020    3.4280 h1        1 3KO      0.061700
     37 H7          1.1790   -1.0740    3.4810 hc        1 3KO      0.058700
     38 H8         -0.6210   -1.0900    3.2260 hc        1 3KO      0.058700
     39 H9          1.7490   -5.8560    4.4580 hc        1 3KO      0.038950
     40 H10         1.2680   -7.0680    3.2040 hc        1 3KO      0.038950
     41 H11         1.1450   10.7650   -0.2770 hc        1 3KO      0.040700
     42 H12         1.8620   11.0500    1.3510 hc        1 3KO      0.040700
     43 H13        -0.9540   11.3340    0.5310 hc        1 3KO      0.040700
     44 H14        -0.2020   11.7110    2.1240 hc        1 3KO      0.040700
     45 H15        -0.3110   -7.0160    5.1630 hc        1 3KO      0.039200
     46 H16        -1.1250   -6.6130    3.5990 hc        1 3KO      0.039200
     47 H17        -1.8760   -5.0550    5.3600 hc        1 3KO      0.038950
     48 H18        -0.1670   -4.6290    5.7710 hc        1 3KO      0.038950
     49 H19        -1.1730   -2.8710    4.3560 hc        1 3KO      0.039950
     50 H20        -1.6310   -4.0870    3.0970 hc        1 3KO      0.039950
     51 H21         0.2660   -5.2960    1.7980 hc        1 3KO      0.039950
     52 H22         1.9820   -4.8850    2.2000 hc        1 3KO      0.039950
     53 H23         2.2090    8.7300    1.3880 hc        1 3KO      0.043950
     54 H24         1.0320    8.4640    0.0460 hc        1 3KO      0.043950
     55 H25        -1.3850    9.8880    2.9600 hc        1 3KO      0.043950
     56 H26        -1.8050    9.3250    1.2980 hc        1 3KO      0.043950
     57 H27        -1.0480    4.9470    0.2910 h1        1 3KO      0.042200
     58 H28        -1.9690    4.6610    1.8320 h1        1 3KO      0.042200
     59 H29         1.1450    2.2960    0.6580 hc        1 3KO      0.064700
     60 H30         2.7450    0.2020   -2.1510 h1        1 3KO      0.052700
     61 H31         2.5020   -1.5850   -1.8610 h1        1 3KO      0.052700
     62 H32         3.7240   -0.6550   -0.8620 h1        1 3KO      0.052700
     63 H33        -1.0460    2.6520   -0.0330 hc        1 3KO      0.056200
     64 H34        -1.7200    2.3640    1.6240 hc        1 3KO      0.056200
     65 H35        -0.4020   -2.8090    1.4510 hc        1 3KO      0.051200
     66 H36         1.4030   -2.6930    1.5230 hc        1 3KO      0.051200
     67 H37         0.5880    8.6230    3.0590 hc        1 3KO      0.074700
     68 H38         1.2370   -3.3680    4.0150 hc        1 3KO      0.049700
     69 H39         0.3470   -0.2950   -2.6360 hn        1 3KO      0.403400
     70 H41        -1.1740    0.4260    0.5790 hn        1 3KO      0.414800
@<TRIPOS>BOND
     1    1    5 1   
     2    1   26 1   
     3    1   28 2   
     4    2    3 1   
     5    2    5 1   
     6    2   29 2   
     7    3    6 1   
     8    3    9 1   
     9    3   26 1   
    10    4    7 1   
    11    4   27 1   
    12    4   30 2   
    13    5   21 1   
    14    6   20 1   
    15    6   31 1   
    16    6   32 1   
    17    7   24 1   
    18    7   33 1   
    19    7   34 1   
    20    8   20 1   
    21    8   27 1   
    22    8   35 1   
    23    8   36 1   
    24    9   23 1   
    25    9   37 1   
    26    9   38 1   
    27   10   13 1   
    28   10   16 1   
    29   10   39 1   
    30   10   40 1   
    31   11   12 1   
    32   11   17 1   
    33   11   41 1   
    34   11   42 1   
    35   12   18 1   
    36   12   43 1   
    37   12   44 1   
    38   13   14 1   
    39   13   45 1   
    40   13   46 1   
    41   14   15 1   
    42   14   47 1   
    43   14   48 1   
    44   15   25 1   
    45   15   49 1   
    46   15   50 1   
    47   16   25 1   
    48   16   51 1   
    49   16   52 1   
    50   17   24 1   
    51   17   53 1   
    52   17   54 1   
    53   18   24 1   
    54   18   55 1   
    55   18   56 1   
    56   19   22 1   
    57   19   27 1   
    58   19   57 1   
    59   19   58 1   
    60   20   22 1   
    61   20   59 1   
    62   21   60 1   
    63   21   61 1   
    64   21   62 1   
    65   22   63 1   
    66   22   64 1   
    67   23   25 1   
    68   23   65 1   
    69   23   66 1   
    70   24   67 1   
    71   25   68 1   
    72   26   70 1   
    73   28   69 1   
@<TRIPOS>SUBSTRUCTURE
     1 3KO         1 TEMP              0 ****  ****    0 ROOT
