@<TRIPOS>MOLECULE
3KO
   70    73     1     0     0
SMALL
bcc


@<TRIPOS>ATOM
      1 C2          0.2540   -0.4930   -0.6670 c2        1 3KO      0.620800
      2 C3          1.9380   -0.2240    0.9340 c         1 3KO      0.697500
      3 C4          0.5610   -0.0700    1.6500 c3        1 3KO      0.114200
      4 C7          0.5360    6.1490    2.2360 c         1 3KO      0.661100
      5 N1          1.6800   -0.4890   -0.4180 n         1 3KO     -0.460300
      6 C9          0.5350    1.2770    2.3960 c3        1 3KO     -0.055400
      7 C13        -0.4290    7.2250    1.7750 c3        1 3KO     -0.137400
      8 C10         1.0830    3.7320    2.3080 c3        1 3KO      0.093000
      9 C12         0.4160   -1.1820    2.7030 c3        1 3KO     -0.096400
     10 C27         0.8940   -6.0710    3.6820 c3        1 3KO     -0.076400
     11 C28         1.0450   10.5640    0.9530 c3        1 3KO     -0.078900
     12 C29        -0.3620   10.9320    1.4110 c3        1 3KO     -0.078900
     13 C30        -0.4410   -6.1760    4.3890 c3        1 3KO     -0.077400
     14 C26        -0.8550   -4.8420    4.9750 c3        1 3KO     -0.076400
     15 C25        -0.8740   -3.7570    3.9180 c3        1 3KO     -0.073900
     16 C24         0.8770   -4.9840    2.6270 c3        1 3KO     -0.073900
     17 C23         1.2070    9.0620    1.1430 c3        1 3KO     -0.076900
     18 C22        -1.0190    9.6660    1.9440 c3        1 3KO     -0.076900
     19 C14        -0.8900    4.4180    1.1280 c3        1 3KO      0.090000
     20 C16         0.6020    2.4990    1.5040 c3        1 3KO     -0.067700
     21 C17         2.6550   -0.5710   -1.4530 c3        1 3KO      0.086300
     22 C18        -0.7480    2.9030    0.9030 c3        1 3KO     -0.077400
     23 C19         0.4470   -2.5810    2.1290 c3        1 3KO     -0.085400
     24 C20         0.0860    8.6170    2.0810 c3        1 3KO     -0.061700
     25 C21         0.4750   -3.6400    3.2220 c3        1 3KO     -0.061700
     26 N5         -0.4360   -0.1220    0.5570 nh        1 3KO     -0.757200
     27 N6          0.1890    4.8310    1.9990 n         1 3KO     -0.481800
     28 N8         -0.3690   -0.7400   -1.7790 n2        1 3KO     -0.826100
     29 O11         3.0550   -0.1420    1.4500 o         1 3KO     -0.587500
     30 O15         1.5880    6.4060    2.8560 o         1 3KO     -0.609100
     31 H1          1.4270    1.2740    3.0810 hc        1 3KO      0.064200
     32 H2         -0.3890    1.3210    3.0300 hc        1 3KO      0.064200
     33 H3         -0.6090    7.1160    0.6730 hc        1 3KO      0.063200
     34 H4         -1.4100    7.0670    2.2990 hc        1 3KO      0.063200
     35 H5          1.0490    3.5360    3.4150 h1        1 3KO      0.057200
     36 H6          2.1420    4.0010    2.0390 h1        1 3KO      0.057200
     37 H7         -0.5440   -1.0220    3.2620 hc        1 3KO      0.066200
     38 H8          1.2610   -1.0600    3.4330 hc        1 3KO      0.066200
     39 H9          1.6980   -5.8490    4.4330 hc        1 3KO      0.040700
     40 H10         1.1440   -7.0520    3.2020 hc        1 3KO      0.040700
     41 H11         1.8060   11.1160    1.5600 hc        1 3KO      0.039950
     42 H12         1.2030   10.8470   -0.1170 hc        1 3KO      0.039950
     43 H13        -0.9570   11.3550    0.5630 hc        1 3KO      0.039950
     44 H14        -0.3190   11.7160    2.2080 hc        1 3KO      0.039950
     45 H15        -0.3750   -6.9410    5.2060 hc        1 3KO      0.040200
     46 H16        -1.2220   -6.5240    3.6630 hc        1 3KO      0.040200
     47 H17        -1.8740   -4.9330    5.4340 hc        1 3KO      0.040700
     48 H18        -0.1420   -4.5550    5.7920 hc        1 3KO      0.040700
     49 H19        -1.1370   -2.7780    4.3950 hc        1 3KO      0.039950
     50 H20        -1.6660   -3.9880    3.1580 hc        1 3KO      0.039950
     51 H21         1.8930   -4.8980    2.1620 hc        1 3KO      0.039950
     52 H22         0.1550   -5.2600    1.8140 hc        1 3KO      0.039950
     53 H23         2.2040    8.8040    1.5790 hc        1 3KO      0.043950
     54 H24         1.1260    8.5380    0.1570 hc        1 3KO      0.043950
     55 H25        -1.8090    9.3120    1.2340 hc        1 3KO      0.043950
     56 H26        -1.5120    9.8500    2.9300 hc        1 3KO      0.043950
     57 H27        -0.8420    4.9660    0.1450 h1        1 3KO      0.038200
     58 H28        -1.8770    4.6630    1.6090 h1        1 3KO      0.038200
     59 H29         1.3350    2.3050    0.6750 hc        1 3KO      0.058700
     60 H30         2.5680   -1.5570   -1.9860 h1        1 3KO      0.052700
     61 H31         3.6790   -0.4870   -0.9980 h1        1 3KO      0.052700
     62 H32         2.5130    0.2560   -2.2000 h1        1 3KO      0.052700
     63 H33        -1.5890    2.3620    1.4020 hc        1 3KO      0.060200
     64 H34        -0.7870    2.6640   -0.1870 hc        1 3KO      0.060200
     65 H35         1.3640   -2.6970    1.4900 hc        1 3KO      0.045700
     66 H36        -0.4450   -2.7580    1.4730 hc        1 3KO      0.045700
     67 H37         0.4780    8.6270    3.1360 hc        1 3KO      0.074700
     68 H38         1.2480   -3.3500    3.9890 hc        1 3KO      0.053700
     69 H39         0.2140   -0.9110   -2.5700 hn        1 3KO      0.403400
     70 H41        -1.2200   -0.7100    0.7570 hn        1 3KO      0.413800
@<TRIPOS>BOND
     1    1    5 1   
     2    1   26 1   
     3    1   28 2   
     4    2    3 1   
     5    2    5 1   
     6    2   29 2   
     7    3    6 1   
     8    3    9 1   
     9    3   26 1   
    10    4    7 1   
    11    4   27 1   
    12    4   30 2   
    13    5   21 1   
    14    6   20 1   
    15    6   31 1   
    16    6   32 1   
    17    7   24 1   
    18    7   33 1   
    19    7   34 1   
    20    8   20 1   
    21    8   27 1   
    22    8   35 1   
    23    8   36 1   
    24    9   23 1   
    25    9   37 1   
    26    9   38 1   
    27   10   13 1   
    28   10   16 1   
    29   10   39 1   
    30   10   40 1   
    31   11   12 1   
    32   11   17 1   
    33   11   41 1   
    34   11   42 1   
    35   12   18 1   
    36   12   43 1   
    37   12   44 1   
    38   13   14 1   
    39   13   45 1   
    40   13   46 1   
    41   14   15 1   
    42   14   47 1   
    43   14   48 1   
    44   15   25 1   
    45   15   49 1   
    46   15   50 1   
    47   16   25 1   
    48   16   51 1   
    49   16   52 1   
    50   17   24 1   
    51   17   53 1   
    52   17   54 1   
    53   18   24 1   
    54   18   55 1   
    55   18   56 1   
    56   19   22 1   
    57   19   27 1   
    58   19   57 1   
    59   19   58 1   
    60   20   22 1   
    61   20   59 1   
    62   21   60 1   
    63   21   61 1   
    64   21   62 1   
    65   22   63 1   
    66   22   64 1   
    67   23   25 1   
    68   23   65 1   
    69   23   66 1   
    70   24   67 1   
    71   25   68 1   
    72   26   70 1   
    73   28   69 1   
@<TRIPOS>SUBSTRUCTURE
     1 3KO         1 TEMP              0 ****  ****    0 ROOT
