@<TRIPOS>MOLECULE
3KP
   11    10     1     0     0
SMALL
bcc


@<TRIPOS>ATOM
      1 CL          0.0000   -1.4330   -0.2810 cl        1 3KP     -0.156400
      2 C1          0.0000    0.2850    0.1070 c3        1 3KP      0.026700
      3 CL1        -2.6990    0.4330    0.3440 cl        1 3KP     -0.160400
      4 C2          1.2370    0.9610   -0.4560 c3        1 3KP      0.018000
      5 CL2         2.6990    0.4330    0.3430 cl        1 3KP     -0.160400
      6 C3         -1.2370    0.9610   -0.4560 c3        1 3KP      0.018000
      7 H1          0.0000    0.3370    1.2290 h1        1 3KP      0.102700
      8 H2          1.3600    0.7400   -1.5440 h1        1 3KP      0.077700
      9 H2A         1.1720    2.0660   -0.3010 h1        1 3KP      0.077700
     10 H3         -1.1720    2.0660   -0.3010 h1        1 3KP      0.077700
     11 H3A        -1.3600    0.7390   -1.5440 h1        1 3KP      0.077700
@<TRIPOS>BOND
     1    1    2 1   
     2    2    4 1   
     3    2    6 1   
     4    2    7 1   
     5    3    6 1   
     6    4    5 1   
     7    4    8 1   
     8    4    9 1   
     9    6   10 1   
    10    6   11 1   
@<TRIPOS>SUBSTRUCTURE
     1 3KP         1 TEMP              0 ****  ****    0 ROOT
