@<TRIPOS>MOLECULE
3KP
   11    10     1     0     0
SMALL
bcc


@<TRIPOS>ATOM
      1 CL         -0.0260   -0.0830    0.0480 cl        1 3KP     -0.156400
      2 C1          1.7340   -0.0240    0.0140 c3        1 3KP      0.026700
      3 CL1         1.9230   -1.1960   -2.4260 cl        1 3KP     -0.160400
      4 C2          2.2960    0.0080    1.4240 c3        1 3KP      0.018000
      5 CL2         1.9230    1.5030    2.2490 cl        1 3KP     -0.160400
      6 C3          2.2960   -1.2290   -0.7190 c3        1 3KP      0.018000
      7 H1          1.9900    0.9220   -0.5330 h1        1 3KP      0.102700
      8 H2          3.4110   -0.0670    1.3920 h1        1 3KP      0.077700
      9 H2A         1.8790   -0.8220    2.0450 h1        1 3KP      0.077700
     10 H3          1.8790   -2.1820   -0.3100 h1        1 3KP      0.077700
     11 H3A         3.4110   -1.2390   -0.6370 h1        1 3KP      0.077700
@<TRIPOS>BOND
     1    1    2 1   
     2    2    4 1   
     3    2    6 1   
     4    2    7 1   
     5    3    6 1   
     6    4    5 1   
     7    4    8 1   
     8    4    9 1   
     9    6   10 1   
    10    6   11 1   
@<TRIPOS>SUBSTRUCTURE
     1 3KP         1 TEMP              0 ****  ****    0 ROOT
