@<TRIPOS>MOLECULE
3KP
   11    10     1     0     0
SMALL
bcc


@<TRIPOS>ATOM
      1 Cl         -0.0230   -0.0590    0.0530 cl        1 3KP     -0.156400
      2 C1          1.7380   -0.0210    0.0150 c3        1 3KP      0.026700
      3 Cl1         1.9070   -1.1930   -2.4260 cl        1 3KP     -0.160400
      4 C2          2.3040    0.0050    1.4230 c3        1 3KP      0.018000
      5 Cl2         1.9490    1.5040    2.2500 cl        1 3KP     -0.160400
      6 C3          2.2840   -1.2310   -0.7200 c3        1 3KP      0.018000
      7 H1          2.0020    0.9240   -0.5320 h1        1 3KP      0.102700
      8 H2          3.4180   -0.0830    1.3880 h1        1 3KP      0.077700
      9 H2A         1.8800   -0.8210    2.0450 h1        1 3KP      0.077700
     10 H3          1.8580   -2.1790   -0.3110 h1        1 3KP      0.077700
     11 H3A         3.3990   -1.2540   -0.6410 h1        1 3KP      0.077700
@<TRIPOS>BOND
     1    1    2 1   
     2    2    4 1   
     3    2    6 1   
     4    2    7 1   
     5    3    6 1   
     6    4    5 1   
     7    4    8 1   
     8    4    9 1   
     9    6   10 1   
    10    6   11 1   
@<TRIPOS>SUBSTRUCTURE
     1 3KP         1 TEMP              0 ****  ****    0 ROOT
