@<TRIPOS>MOLECULE
3KP
   11    10     1     0     0
SMALL
bcc


@<TRIPOS>ATOM
      1 CL         -1.9270    0.5730   -0.1740 cl        1 3KP     -0.156400
      2 C1         -0.1900    0.4400   -0.2360 c3        1 3KP      0.026700
      3 CL1        -0.8920   -1.0750   -2.3090 cl        1 3KP     -0.160400
      4 C2          0.3630    0.3970    1.1710 c3        1 3KP      0.018000
      5 CL2        -0.5820    1.4420    2.1990 cl        1 3KP     -0.160400
      6 C3          0.1930   -0.8280   -0.9670 c3        1 3KP      0.018000
      7 H1          0.1790    1.2110   -0.7070 h1        1 3KP      0.102700
      8 H2          1.2930    0.7000    1.1660 h1        1 3KP      0.077700
      9 H2A         0.3210   -0.5200    1.5110 h1        1 3KP      0.077700
     10 H3          1.1090   -0.7500   -1.2990 h1        1 3KP      0.077700
     11 H3A         0.1320   -1.5890   -0.3540 h1        1 3KP      0.077700
@<TRIPOS>BOND
     1    1    2 1   
     2    2    4 1   
     3    2    6 1   
     4    2    7 1   
     5    3    6 1   
     6    4    5 1   
     7    4    8 1   
     8    4    9 1   
     9    6   10 1   
    10    6   11 1   
@<TRIPOS>SUBSTRUCTURE
     1 3KP         1 TEMP              0 ****  ****    0 ROOT
