@<TRIPOS>MOLECULE
3KQ
   56    58     1     0     0
SMALL
bcc


@<TRIPOS>ATOM
      1 C1         -0.1870    0.7770    0.6270 ca        1 3KQ     -0.036300
      2 C2          1.2090    0.8760    0.4810 ca        1 3KQ     -0.097400
      3 C3          2.0420    0.6670    1.6020 ca        1 3KQ      0.411200
      4 C5          0.2330    0.2890    2.9740 ca        1 3KQ      0.411200
      5 C6         -0.6770    0.4810    1.9110 ca        1 3KQ     -0.097400
      6 O25        -1.1370    8.0620   -0.7340 o         1 3KQ     -0.421100
      7 C24        -1.1850    6.8480   -0.8810 c         1 3KQ      0.525100
      8 N26        -0.9510    5.9710    0.3100 n4        1 3KQ     -0.663800
      9 C27        -0.6390    6.6880    1.5890 c3        1 3KQ      0.177100
     10 C28        -1.8710    7.0170    2.3610 ca        1 3KQ     -0.184300
     11 C33        -2.4300    6.0640    3.2210 ca        1 3KQ     -0.097500
     12 C32        -3.5530    6.3880    3.9790 ca        1 3KQ     -0.124000
     13 C31        -4.1190    7.6610    3.8820 ca        1 3KQ     -0.083000
     14 C30        -3.5630    8.6110    3.0230 ca        1 3KQ     -0.124000
     15 C29        -2.4420    8.2910    2.2600 ca        1 3KQ     -0.097500
     16 C23        -1.4700    6.1650   -2.2060 c3        1 3KQ      0.070400
     17 C17        -1.8320    3.8890   -2.8050 ca        1 3KQ      0.151100
     18 C16        -2.3570    4.1450   -4.0820 ca        1 3KQ      0.028100
     19 O20        -2.2060    5.4170   -4.6010 os        1 3KQ     -0.352900
     20 C21        -1.5470    5.4780   -5.8720 c3        1 3KQ      0.113700
     21 C15        -3.1210    3.1390   -4.7250 ca        1 3KQ      0.169100
     22 O18        -3.6270    3.4690   -5.9540 os        1 3KQ     -0.309900
     23 C19        -4.3950    2.4680   -6.6260 c3        1 3KQ      0.105700
     24 C14        -3.3010    1.8970   -4.0990 ca        1 3KQ     -0.204000
     25 C13        -2.7460    1.6570   -2.8490 ca        1 3KQ     -0.039000
     26 C12        -2.0170    2.6420   -2.1700 ca        1 3KQ     -0.220600
     27 C10        -1.4510    2.3780   -0.8340 c         1 3KQ      0.646700
     28 O11        -1.2890    3.2870   -0.0040 o         1 3KQ     -0.621100
     29 C9         -1.0960    0.9460   -0.5380 c3        1 3KQ     -0.144100
     30 CL7        -2.3350    0.3440    2.2300 cl        1 3KQ     -0.060900
     31 N4          1.5650    0.3820    2.8250 nb        1 3KQ     -0.629000
     32 CL8         1.9270    1.2390   -1.0100 cl        1 3KQ     -0.060900
     33 H1          3.1430    0.7280    1.5110 h4        1 3KQ      0.051600
     34 H2         -0.1270    0.0460    3.9930 h4        1 3KQ      0.051600
     35 H3         -0.1870    5.3190    0.0700 hn        1 3KQ      0.483300
     36 H4          0.0250    6.0010    2.1920 hx        1 3KQ      0.110200
     37 H5         -0.0640    7.6250    1.3370 hx        1 3KQ      0.110200
     38 H6         -1.9780    5.0640    3.3110 ha        1 3KQ      0.145500
     39 H7         -3.9890    5.6420    4.6610 ha        1 3KQ      0.155500
     40 H8         -5.0030    7.9180    4.4890 ha        1 3KQ      0.156000
     41 H9         -4.0080    9.6160    2.9500 ha        1 3KQ      0.155500
     42 H10        -2.0020    9.0400    1.5810 ha        1 3KQ      0.145500
     43 H11        -2.5700    6.2490   -2.4260 h1        1 3KQ      0.129700
     44 H12        -0.8820    6.6960   -3.0090 h1        1 3KQ      0.129700
     45 H13        -2.1680    4.9840   -6.6570 h1        1 3KQ      0.059367
     46 H14        -1.4660    6.5780   -6.0630 h1        1 3KQ      0.059367
     47 H15        -0.5380    5.0040   -5.8080 h1        1 3KQ      0.059367
     48 H16        -5.2960    2.1980   -6.0250 h1        1 3KQ      0.062367
     49 H17        -4.6890    2.9780   -7.5790 h1        1 3KQ      0.062367
     50 H18        -3.7660    1.5680   -6.8340 h1        1 3KQ      0.062367
     51 H19        -3.8850    1.1050   -4.5930 ha        1 3KQ      0.165000
     52 H20        -2.8990    0.6710   -2.3800 ha        1 3KQ      0.155000
     53 H21        -0.6220    0.4950   -1.4550 hc        1 3KQ      0.103200
     54 H22        -2.0590    0.3870   -0.3560 hc        1 3KQ      0.103200
     55 H262       -1.7910    5.3800    0.4410 hn        1 3KQ      0.483300
     56 O22        -1.0200    4.8130   -2.1540 os        1 3KQ     -0.341900
@<TRIPOS>BOND
     1    1    2 ar  
     2    1    5 ar  
     3    1   29 1   
     4    2    3 ar  
     5    2   32 1   
     6    3   31 ar  
     7    3   33 1   
     8    4    5 ar  
     9    4   31 ar  
    10    4   34 1   
    11    5   30 1   
    12    6    7 2   
    13    7    8 1   
    14    7   16 1   
    15    8    9 1   
    16    8   35 1   
    17    8   55 1   
    18    9   10 1   
    19    9   36 1   
    20    9   37 1   
    21   10   11 ar  
    22   10   15 ar  
    23   11   12 ar  
    24   11   38 1   
    25   12   13 ar  
    26   12   39 1   
    27   13   14 ar  
    28   13   40 1   
    29   14   15 ar  
    30   14   41 1   
    31   15   42 1   
    32   16   43 1   
    33   16   44 1   
    34   16   56 1   
    35   17   18 ar  
    36   17   26 ar  
    37   17   56 1   
    38   18   19 1   
    39   18   21 ar  
    40   19   20 1   
    41   20   45 1   
    42   20   46 1   
    43   20   47 1   
    44   21   22 1   
    45   21   24 ar  
    46   22   23 1   
    47   23   48 1   
    48   23   49 1   
    49   23   50 1   
    50   24   25 ar  
    51   24   51 1   
    52   25   26 ar  
    53   25   52 1   
    54   26   27 1   
    55   27   28 2   
    56   27   29 1   
    57   29   53 1   
    58   29   54 1   
@<TRIPOS>SUBSTRUCTURE
     1 3KQ         1 TEMP              0 ****  ****    0 ROOT
