@<TRIPOS>MOLECULE
3KR
   58    54     1     0     0
SMALL
bcc


@<TRIPOS>ATOM
      1 S1          0.2020    1.6250    0.6160 ss        1 3KR      2.833000
      2 C2          0.8790   -0.0290    0.3360 c1        1 3KR     -0.893000
      3 C3          0.8700   -0.9700    1.3730 c2        1 3KR      0.031000
      4 C4          1.3390   -2.2620    1.1470 c1        1 3KR     -0.222000
      5 C5          1.8250   -2.6240   -0.1260 c1        1 3KR      0.151000
      6 C6          1.8350   -1.6850   -1.1610 c1        1 3KR     -0.179000
      7 C7          1.3630   -0.3870   -0.9330 c1        1 3KR      0.019000
      8 C8         -1.6170    1.5680    0.6350 c2        1 3KR     -0.696000
      9 C9         -1.8740    0.1370    1.1670 c2        1 3KR      0.160000
     10 N10        -1.9310   -0.0950    2.5560 n2        1 3KR      0.169000
     11 O11        -2.2310   -1.1920    2.9770 o         1 3KR     -0.113000
     12 O12         0.6980    2.5850   -0.3890 o         1 3KR     -0.919000
     13 O13         0.7210    2.2060    1.8410 o         1 3KR     -0.919000
     14 O14        -2.0870   -0.7760    0.3870 o         1 3KR     -0.243000
     15 C15        -2.2000    2.6190    1.5660 c3        1 3KR     -0.177000
     16 C16        -3.7150    2.6740    1.5250 c3        1 3KR     -0.067000
     17 N17        -4.2420    2.8130    0.1730 n3        1 3KR     -0.245000
     18 C18        -3.7230    1.8320   -0.7580 c3        1 3KR     -0.067000
     19 C19        -2.1990    1.7630   -0.7550 c3        1 3KR     -0.177000
     20 C20        -3.9550    4.1490   -0.3220 c3        1 3KR     -0.081000
     21 C21        -5.2770    4.8550   -0.7060 c3        1 3KR     -0.022000
     22 O22        -5.0010    5.9230   -1.5950 os        1 3KR     -0.283000
     23 C23        -6.0220    6.1510   -2.5450 c3        1 3KR     -0.071000
     24 O24         2.2010   -3.9990   -0.3910 os        1 3KR     -0.150000
     25 C25         3.5930   -4.1450   -0.2340 c2        1 3KR      0.039000
     26 C26         4.1260   -4.3910    1.0350 c2        1 3KR     -0.112000
     27 C27         5.4790   -4.7090    1.1760 c1        1 3KR     -0.119000
     28 C28         6.3020   -4.7810    0.0480 c1        1 3KR      0.038000
     29 C29         5.7670   -4.5350   -1.2230 c1        1 3KR     -0.100000
     30 C30         4.4130   -4.2170   -1.3610 c1        1 3KR     -0.138000
     31 O31         7.6760   -4.9850    0.2010 os        1 3KR     -0.253000
     32 C32         8.0560   -6.3170    0.1430 c3        1 3KR      0.536000
     33 F33         8.3530   -6.7490    1.3670 f         1 3KR     -0.142667
     34 F34         7.0430   -7.0510   -0.3600 f         1 3KR     -0.142667
     35 F35         9.1210   -6.4380   -0.6380 f         1 3KR     -0.142667
     36 H3          0.5210   -0.7120    2.2880 ha        1 3KR      0.168000
     37 H4          1.3310   -2.9180    1.8730 ha        1 3KR      0.161000
     38 H6          2.1750   -1.9380   -2.0540 ha        1 3KR      0.165000
     39 H7          1.3700    0.2720   -1.6590 ha        1 3KR      0.157000
     40 H15        -1.9050    2.4110    2.5200 hc        1 3KR      0.112000
     41 H15A       -1.8530    3.4820    1.3150 hc        1 3KR      0.112000
     42 H16        -4.0770    1.8430    1.9280 h1        1 3KR      0.103000
     43 H16A       -4.0110    3.4330    2.0530 h1        1 3KR      0.103000
     44 H18        -4.0280    2.0620   -1.6660 h1        1 3KR      0.103000
     45 H18A       -4.0770    0.9560   -0.5200 h1        1 3KR      0.103000
     46 H19        -1.8470    2.5950   -1.1280 hc        1 3KR      0.112000
     47 H19A       -1.9200    1.0330   -1.3120 hc        1 3KR      0.112000
     48 H20        -3.4990    4.6650    0.3760 h1        1 3KR      0.089500
     49 H20A       -3.3830    4.0870   -1.1040 h1        1 3KR      0.089500
     50 H21        -5.8640    4.2240   -1.1350 h1        1 3KR      0.072500
     51 H21A       -5.6990    5.1980    0.0870 h1        1 3KR      0.072500
     52 H23        -5.9880    5.4450   -3.2430 h1        1 3KR      0.072333
     53 H23A       -5.8910    7.0290   -2.9630 h1        1 3KR      0.072333
     54 H23B       -6.9310    6.1260   -2.0810 h1        1 3KR      0.072333
     55 H26         3.5480   -4.3410    1.8290 ha        1 3KR      0.163000
     56 H27         5.8610   -4.8860    2.0880 ha        1 3KR      0.164000
     57 H29         6.3410   -4.5850   -2.0130 ha        1 3KR      0.163000
     58 H30         4.0370   -4.0440   -2.2530 ha        1 3KR      0.159000
@<TRIPOS>BOND
     1    1   12 1   
     2    1   13 1   
     3    2    3 1   
     4    2    7 1   
     5    3    4 1   
     6    3   36 1   
     7    4   37 1   
     8    5    6 1   
     9    5   24 1   
    10    6   38 1   
    11    7   39 1   
    12    8    9 1   
    13    8   15 1   
    14    8   19 1   
    15    9   10 1   
    16    9   14 1   
    17   10   11 1   
    18   15   16 1   
    19   15   40 1   
    20   15   41 1   
    21   16   17 1   
    22   16   42 1   
    23   16   43 1   
    24   17   18 1   
    25   17   20 1   
    26   18   19 1   
    27   18   44 1   
    28   18   45 1   
    29   19   46 1   
    30   19   47 1   
    31   20   21 1   
    32   20   48 1   
    33   20   49 1   
    34   21   22 1   
    35   21   50 1   
    36   21   51 1   
    37   22   23 1   
    38   23   52 1   
    39   23   53 1   
    40   23   54 1   
    41   24   25 1   
    42   25   26 1   
    43   25   30 1   
    44   26   27 1   
    45   26   55 1   
    46   27   56 1   
    47   28   29 1   
    48   28   31 1   
    49   29   57 1   
    50   30   58 1   
    51   31   32 1   
    52   32   33 1   
    53   32   34 1   
    54   32   35 1   
@<TRIPOS>SUBSTRUCTURE
     1 3KR         1 TEMP              0 ****  ****    0 ROOT
