@<TRIPOS>MOLECULE
3KR
   58    60     1     0     0
SMALL
bcc


@<TRIPOS>ATOM
      1 S1          2.0320    0.0420    0.0470 sy        1 3KR      1.364300
      2 C2          2.2980    1.5080    0.7760 ca        1 3KR     -0.443500
      3 C3          2.3960    1.6150    2.1720 ca        1 3KR      0.021500
      4 C4          2.6790    2.8260    2.7890 ca        1 3KR     -0.198000
      5 C5          2.8700    3.9650    1.9950 ca        1 3KR      0.195100
      6 C6          2.7880    3.8890    0.5900 ca        1 3KR     -0.198000
      7 C7          2.5050    2.6660    0.0040 ca        1 3KR      0.021500
      8 C8          0.2520   -0.0300   -0.0390 c3        1 3KR     -0.281200
      9 C9         -0.3680    0.0560    1.3480 c         1 3KR      0.568500
     10 N10        -0.1820   -1.1200    2.2570 ne        1 3KR      0.002900
     11 O11         0.5110   -1.0310    3.1690 o         1 3KR     -0.067300
     12 O12         2.5630    0.0410   -1.2500 o         1 3KR     -0.644300
     13 O13         2.4140   -1.0000    0.9080 o         1 3KR     -0.644300
     14 O14        -1.1170    0.9740    1.6930 o         1 3KR     -0.482100
     15 C15        -0.3500    1.0910   -0.8850 c3        1 3KR     -0.054400
     16 C16        -0.1030    0.9350   -2.3830 c3        1 3KR      0.158300
     17 N17        -0.5210   -0.3620   -2.8930 n3        1 3KR     -0.723600
     18 C18         0.0830   -1.4590   -2.1530 c3        1 3KR      0.158300
     19 C19        -0.1550   -1.3780   -0.6460 c3        1 3KR     -0.054400
     20 C20        -0.3270   -0.4870   -4.3300 c3        1 3KR      0.169800
     21 C21        -1.3630   -1.4010   -5.0000 c3        1 3KR      0.129400
     22 O22        -2.4340   -0.5570   -5.4180 os        1 3KR     -0.419600
     23 C23        -3.5390   -1.2860   -5.9210 c3        1 3KR      0.116700
     24 O24         3.1210    5.2300    2.4880 os        1 3KR     -0.240200
     25 C25         3.3840    5.3440    3.8560 ca        1 3KR      0.084100
     26 C26         4.5180    4.7500    4.4260 ca        1 3KR     -0.125500
     27 C27         4.8170    5.0040    5.7610 ca        1 3KR     -0.109500
     28 C28         3.9790    5.8560    6.4950 ca        1 3KR      0.083100
     29 C29         2.8470    6.4510    5.9250 ca        1 3KR     -0.109500
     30 C30         2.5410    6.1880    4.5920 ca        1 3KR     -0.125500
     31 O31         4.3910    6.2010    7.7820 os        1 3KR     -0.368900
     32 C32         3.6200    5.7430    8.8640 c3        1 3KR      0.820700
     33 F33         3.4630    4.3960    8.8520 f         1 3KR     -0.214300
     34 F34         4.3190    6.1070    9.9650 f         1 3KR     -0.214300
     35 F35         2.3980    6.3310    8.8930 f         1 3KR     -0.214300
     36 H3          2.2500    0.7100    2.7930 ha        1 3KR      0.161500
     37 H4          2.7470    2.8900    3.8860 ha        1 3KR      0.163000
     38 H6          2.9470    4.7930   -0.0150 ha        1 3KR      0.163000
     39 H7          2.4540    2.5890   -1.0980 ha        1 3KR      0.161500
     40 H15         0.0690    2.0770   -0.5490 hc        1 3KR      0.071200
     41 H15A       -1.4580    1.1230   -0.7000 hc        1 3KR      0.071200
     42 H16        -0.7120    1.7220   -2.9140 h1        1 3KR      0.048700
     43 H16A        0.9890    1.1370   -2.5990 h1        1 3KR      0.048700
     44 H18         1.1970   -1.5270   -2.3430 h1        1 3KR      0.048700
     45 H18A       -0.3850   -2.4160   -2.5240 h1        1 3KR      0.048700
     46 H19        -1.2450   -1.5500   -0.4390 hc        1 3KR      0.071200
     47 H19A        0.4260   -2.2050   -0.1570 hc        1 3KR      0.071200
     48 H20         0.6980   -0.8920   -4.5780 h1        1 3KR      0.050700
     49 H20A       -0.4180    0.5320   -4.8050 h1        1 3KR      0.050700
     50 H21        -0.9060   -1.8840   -5.9050 h1        1 3KR      0.031700
     51 H21A       -1.7470   -2.1990   -4.3120 h1        1 3KR      0.031700
     52 H23        -4.2800   -0.5020   -6.2160 h1        1 3KR      0.031700
     53 H23A       -3.9670   -1.9500   -5.1300 h1        1 3KR      0.031700
     54 H23B       -3.2400   -1.8970   -6.8080 h1        1 3KR      0.031700
     55 H26         5.1620    4.0940    3.8210 ha        1 3KR      0.161000
     56 H27         5.7050    4.5600    6.2370 ha        1 3KR      0.163500
     57 H29         2.2080    7.1140    6.5290 ha        1 3KR      0.163500
     58 H30         1.6620    6.6440    4.1120 ha        1 3KR      0.161000
@<TRIPOS>BOND
     1    1    2 1   
     2    1    8 1   
     3    1   12 2   
     4    1   13 2   
     5    2    3 ar  
     6    2    7 ar  
     7    3    4 ar  
     8    3   36 1   
     9    4    5 ar  
    10    4   37 1   
    11    5    6 ar  
    12    5   24 1   
    13    6    7 ar  
    14    6   38 1   
    15    7   39 1   
    16    8    9 1   
    17    8   15 1   
    18    8   19 1   
    19    9   10 1   
    20    9   14 2   
    21   10   11 2   
    22   15   16 1   
    23   15   40 1   
    24   15   41 1   
    25   16   17 1   
    26   16   42 1   
    27   16   43 1   
    28   17   18 1   
    29   17   20 1   
    30   18   19 1   
    31   18   44 1   
    32   18   45 1   
    33   19   46 1   
    34   19   47 1   
    35   20   21 1   
    36   20   48 1   
    37   20   49 1   
    38   21   22 1   
    39   21   50 1   
    40   21   51 1   
    41   22   23 1   
    42   23   52 1   
    43   23   53 1   
    44   23   54 1   
    45   24   25 1   
    46   25   26 ar  
    47   25   30 ar  
    48   26   27 ar  
    49   26   55 1   
    50   27   28 ar  
    51   27   56 1   
    52   28   29 ar  
    53   28   31 1   
    54   29   30 ar  
    55   29   57 1   
    56   30   58 1   
    57   31   32 1   
    58   32   33 1   
    59   32   34 1   
    60   32   35 1   
@<TRIPOS>SUBSTRUCTURE
     1 3KR         1 TEMP              0 ****  ****    0 ROOT
