@<TRIPOS>MOLECULE
3KR
   58    60     1     0     0
SMALL
bcc


@<TRIPOS>ATOM
      1 S1          2.0330    0.0470    0.0440 sy        1 3KR      1.364300
      2 C2          2.2950    1.5130    0.7750 ca        1 3KR     -0.443500
      3 C3          2.3950    1.6180    2.1710 ca        1 3KR      0.021500
      4 C4          2.6750    2.8290    2.7900 ca        1 3KR     -0.198000
      5 C5          2.8610    3.9700    1.9970 ca        1 3KR      0.195100
      6 C6          2.7760    3.8960    0.5920 ca        1 3KR     -0.198000
      7 C7          2.4960    2.6730    0.0050 ca        1 3KR      0.021500
      8 C8          0.2530   -0.0310   -0.0400 c3        1 3KR     -0.281200
      9 C9         -0.3660    0.0510    1.3480 c         1 3KR      0.568500
     10 N10        -0.1740   -1.1250    2.2560 ne        1 3KR      0.002900
     11 O11         0.5200   -1.0350    3.1670 o         1 3KR     -0.067300
     12 O12         2.5620    0.0500   -1.2530 o         1 3KR     -0.644300
     13 O13         2.4200   -0.9950    0.9030 o         1 3KR     -0.644300
     14 O14        -1.1170    0.9660    1.6950 o         1 3KR     -0.482100
     15 C15        -0.3540    1.0890   -0.8840 c3        1 3KR     -0.053900
     16 C16        -0.1080    0.9350   -2.3820 c3        1 3KR      0.158300
     17 N17        -0.5210   -0.3620   -2.8930 n3        1 3KR     -0.723600
     18 C18         0.0870   -1.4590   -2.1550 c3        1 3KR      0.158300
     19 C19        -0.1500   -1.3790   -0.6480 c3        1 3KR     -0.053900
     20 C20        -0.3280   -0.4860   -4.3310 c3        1 3KR      0.169800
     21 C21        -1.3610   -1.4030   -5.0010 c3        1 3KR      0.129400
     22 O22        -2.4340   -0.5630   -5.4200 os        1 3KR     -0.419600
     23 C23        -3.5360   -1.2960   -5.9240 c3        1 3KR      0.116700
     24 O24         3.1080    5.2350    2.4920 os        1 3KR     -0.240200
     25 C25         3.3770    5.3470    3.8580 ca        1 3KR      0.084100
     26 C26         4.5130    4.7540    4.4230 ca        1 3KR     -0.125500
     27 C27         4.8170    5.0060    5.7580 ca        1 3KR     -0.109500
     28 C28         3.9810    5.8570    6.4960 ca        1 3KR      0.083100
     29 C29         2.8460    6.4520    5.9310 ca        1 3KR     -0.109500
     30 C30         2.5360    6.1900    4.5980 ca        1 3KR     -0.125500
     31 O31         4.3970    6.2010    7.7820 os        1 3KR     -0.368900
     32 C32         3.6310    5.7410    8.8660 c3        1 3KR      0.820700
     33 F33         3.4750    4.3940    8.8530 f         1 3KR     -0.214300
     34 F34         4.3340    6.1050    9.9650 f         1 3KR     -0.214300
     35 F35         2.4080    6.3280    8.9000 f         1 3KR     -0.214300
     36 H3          2.2540    0.7110    2.7910 ha        1 3KR      0.161500
     37 H4          2.7450    2.8920    3.8860 ha        1 3KR      0.163000
     38 H6          2.9300    4.8010   -0.0120 ha        1 3KR      0.163000
     39 H7          2.4430    2.5980   -1.0980 ha        1 3KR      0.161500
     40 H15        -1.4620    1.1170   -0.6970 hc        1 3KR      0.071200
     41 H15A        0.0620    2.0750   -0.5470 hc        1 3KR      0.071200
     42 H16         0.9830    1.1420   -2.6000 h1        1 3KR      0.048700
     43 H16A       -0.7200    1.7200   -2.9120 h1        1 3KR      0.048700
     44 H18         1.2010   -1.5230   -2.3460 h1        1 3KR      0.048700
     45 H18A       -0.3780   -2.4160   -2.5260 h1        1 3KR      0.048700
     46 H19         0.4350   -2.2060   -0.1600 hc        1 3KR      0.071200
     47 H19A       -1.2380   -1.5560   -0.4400 hc        1 3KR      0.071200
     48 H20        -0.4240    0.5330   -4.8050 h1        1 3KR      0.050700
     49 H20A        0.6980   -0.8860   -4.5800 h1        1 3KR      0.050700
     50 H21        -1.7420   -2.2030   -4.3130 h1        1 3KR      0.031700
     51 H21A       -0.9010   -1.8850   -5.9050 h1        1 3KR      0.031700
     52 H23        -3.9620   -1.9630   -5.1330 h1        1 3KR      0.031700
     53 H23A       -4.2800   -0.5150   -6.2200 h1        1 3KR      0.031700
     54 H23B       -3.2330   -1.9060   -6.8110 h1        1 3KR      0.031700
     55 H26         5.1550    4.0990    3.8160 ha        1 3KR      0.161000
     56 H27         5.7060    4.5630    6.2310 ha        1 3KR      0.163500
     57 H29         2.2090    7.1140    6.5380 ha        1 3KR      0.163500
     58 H30         1.6550    6.6460    4.1230 ha        1 3KR      0.161000
@<TRIPOS>BOND
     1    1    2 1   
     2    1    8 1   
     3    1   12 2   
     4    1   13 2   
     5    2    3 ar  
     6    2    7 ar  
     7    3    4 ar  
     8    3   36 1   
     9    4    5 ar  
    10    4   37 1   
    11    5    6 ar  
    12    5   24 1   
    13    6    7 ar  
    14    6   38 1   
    15    7   39 1   
    16    8    9 1   
    17    8   15 1   
    18    8   19 1   
    19    9   10 1   
    20    9   14 2   
    21   10   11 2   
    22   15   16 1   
    23   15   40 1   
    24   15   41 1   
    25   16   17 1   
    26   16   42 1   
    27   16   43 1   
    28   17   18 1   
    29   17   20 1   
    30   18   19 1   
    31   18   44 1   
    32   18   45 1   
    33   19   46 1   
    34   19   47 1   
    35   20   21 1   
    36   20   48 1   
    37   20   49 1   
    38   21   22 1   
    39   21   50 1   
    40   21   51 1   
    41   22   23 1   
    42   23   52 1   
    43   23   53 1   
    44   23   54 1   
    45   24   25 1   
    46   25   26 ar  
    47   25   30 ar  
    48   26   27 ar  
    49   26   55 1   
    50   27   28 ar  
    51   27   56 1   
    52   28   29 ar  
    53   28   31 1   
    54   29   30 ar  
    55   29   57 1   
    56   30   58 1   
    57   31   32 1   
    58   32   33 1   
    59   32   34 1   
    60   32   35 1   
@<TRIPOS>SUBSTRUCTURE
     1 3KR         1 TEMP              0 ****  ****    0 ROOT
