@<TRIPOS>MOLECULE
3KR
   58    60     1     0     0
SMALL
bcc


@<TRIPOS>ATOM
      1 S1          2.3440   -0.1340   -1.5730 sy        1 3KR      1.364300
      2 C2          0.9370   -0.6980   -0.8980 ca        1 3KR     -0.443500
      3 C3         -0.2590    0.0270   -1.0070 ca        1 3KR      0.021500
      4 C4         -1.4550   -0.4640   -0.4990 ca        1 3KR     -0.198000
      5 C5         -1.4600   -1.7130    0.1370 ca        1 3KR      0.195100
      6 C6         -0.2770   -2.4690    0.2550 ca        1 3KR     -0.198000
      7 C7          0.8990   -1.9520   -0.2630 ca        1 3KR      0.021500
      8 C8          3.0540    0.8220   -0.2460 c3        1 3KR     -0.281200
      9 C9          2.1190    1.9440    0.1840 c         1 3KR      0.568500
     10 N10         1.9220    3.0790   -0.7730 ne        1 3KR      0.002900
     11 O11         0.9160    3.2000   -1.3150 o         1 3KR     -0.067300
     12 O12         3.1940   -1.2020   -1.8880 o         1 3KR     -0.644300
     13 O13         2.0510    0.7880   -2.5930 o         1 3KR     -0.644300
     14 O14         1.6400    2.0190    1.3190 o         1 3KR     -0.482100
     15 C15         3.3690   -0.0170    0.9910 c3        1 3KR     -0.053900
     16 C16         4.5550   -0.9620    0.8100 c3        1 3KR      0.158300
     17 N17         5.7530   -0.2820    0.3430 n3        1 3KR     -0.723600
     18 C18         5.5100    0.4790   -0.8730 c3        1 3KR      0.158300
     19 C19         4.3520    1.4670   -0.7480 c3        1 3KR     -0.053900
     20 C20         6.8930   -1.1800    0.2170 c3        1 3KR      0.169800
     21 C21         8.2370   -0.4850    0.4780 c3        1 3KR      0.129400
     22 O22         8.5140   -0.6530    1.8670 os        1 3KR     -0.419600
     23 C23         9.6570    0.0700    2.2870 c3        1 3KR      0.116700
     24 O24        -2.5730   -2.2940    0.7140 os        1 3KR     -0.240200
     25 C25        -3.8070   -1.6820    0.4810 ca        1 3KR      0.084100
     26 C26        -4.3450   -1.6060   -0.8110 ca        1 3KR     -0.125500
     27 C27        -5.6370   -1.1150   -0.9800 ca        1 3KR     -0.109500
     28 C28        -6.3660   -0.7200    0.1510 ca        1 3KR      0.083100
     29 C29        -5.8300   -0.7980    1.4420 ca        1 3KR     -0.109500
     30 C30        -4.5340   -1.2780    1.6100 ca        1 3KR     -0.125500
     31 O31        -7.7030   -0.3730   -0.0430 os        1 3KR     -0.368900
     32 C32        -8.0740    0.9630    0.1780 c3        1 3KR      0.820700
     33 F33        -7.3350    1.8330   -0.5540 f         1 3KR     -0.214300
     34 F34        -9.3700    1.0320   -0.2100 f         1 3KR     -0.214300
     35 F35        -7.9810    1.2990    1.4900 f         1 3KR     -0.214300
     36 H3         -0.2500    1.0100   -1.5180 ha        1 3KR      0.161500
     37 H4         -2.3820    0.1210   -0.5910 ha        1 3KR      0.163000
     38 H6         -0.3030   -3.4500    0.7530 ha        1 3KR      0.163000
     39 H7          1.8320   -2.5440   -0.1920 ha        1 3KR      0.161500
     40 H15         3.5840    0.6770    1.8490 hc        1 3KR      0.071200
     41 H15A        2.4650   -0.6200    1.2720 hc        1 3KR      0.071200
     42 H16         4.7900   -1.4120    1.8170 h1        1 3KR      0.048700
     43 H16A        4.2530   -1.8030    0.1160 h1        1 3KR      0.048700
     44 H18         6.4430    1.0700   -1.0960 h1        1 3KR      0.048700
     45 H18A        5.3150   -0.2000   -1.7580 h1        1 3KR      0.048700
     46 H19         4.1800    1.9320   -1.7560 hc        1 3KR      0.071200
     47 H19A        4.6440    2.2840   -0.0360 hc        1 3KR      0.071200
     48 H20         6.7910   -2.0130    0.9700 h1        1 3KR      0.050700
     49 H20A        6.9420   -1.6480   -0.8090 h1        1 3KR      0.050700
     50 H21         9.0420   -0.9950   -0.1170 h1        1 3KR      0.031700
     51 H21A        8.2210    0.6050    0.2160 h1        1 3KR      0.031700
     52 H23         9.7540   -0.1670    3.3750 h1        1 3KR      0.031700
     53 H23A       10.5660   -0.2680    1.7300 h1        1 3KR      0.031700
     54 H23B        9.5080    1.1680    2.1370 h1        1 3KR      0.031700
     55 H26        -3.7510   -1.9320   -1.6770 ha        1 3KR      0.161000
     56 H27        -6.0920   -1.0490   -1.9790 ha        1 3KR      0.163500
     57 H29        -6.4290   -0.4790    2.3100 ha        1 3KR      0.163500
     58 H30        -4.0850   -1.3580    2.6110 ha        1 3KR      0.161000
@<TRIPOS>BOND
     1    1    2 1   
     2    1    8 1   
     3    1   12 2   
     4    1   13 2   
     5    2    3 ar  
     6    2    7 ar  
     7    3    4 ar  
     8    3   36 1   
     9    4    5 ar  
    10    4   37 1   
    11    5    6 ar  
    12    5   24 1   
    13    6    7 ar  
    14    6   38 1   
    15    7   39 1   
    16    8    9 1   
    17    8   15 1   
    18    8   19 1   
    19    9   10 1   
    20    9   14 2   
    21   10   11 2   
    22   15   16 1   
    23   15   40 1   
    24   15   41 1   
    25   16   17 1   
    26   16   42 1   
    27   16   43 1   
    28   17   18 1   
    29   17   20 1   
    30   18   19 1   
    31   18   44 1   
    32   18   45 1   
    33   19   46 1   
    34   19   47 1   
    35   20   21 1   
    36   20   48 1   
    37   20   49 1   
    38   21   22 1   
    39   21   50 1   
    40   21   51 1   
    41   22   23 1   
    42   23   52 1   
    43   23   53 1   
    44   23   54 1   
    45   24   25 1   
    46   25   26 ar  
    47   25   30 ar  
    48   26   27 ar  
    49   26   55 1   
    50   27   28 ar  
    51   27   56 1   
    52   28   29 ar  
    53   28   31 1   
    54   29   30 ar  
    55   29   57 1   
    56   30   58 1   
    57   31   32 1   
    58   32   33 1   
    59   32   34 1   
    60   32   35 1   
@<TRIPOS>SUBSTRUCTURE
     1 3KR         1 TEMP              0 ****  ****    0 ROOT
