@<TRIPOS>MOLECULE
3KR
   58    60     1     0     0
SMALL
bcc


@<TRIPOS>ATOM
      1 S1          2.0470    0.0570    0.0340 sy        1 3KR      1.364300
      2 C2          2.2980    1.5220    0.7710 ca        1 3KR     -0.443500
      3 C3          2.4000    1.6210    2.1670 ca        1 3KR      0.021500
      4 C4          2.6710    2.8320    2.7920 ca        1 3KR     -0.198000
      5 C5          2.8460    3.9780    2.0040 ca        1 3KR      0.195100
      6 C6          2.7590    3.9090    0.5990 ca        1 3KR     -0.198000
      7 C7          2.4880    2.6870    0.0060 ca        1 3KR      0.021500
      8 C8          0.2680   -0.0350   -0.0460 c3        1 3KR     -0.281200
      9 C9         -0.3490    0.0350    1.3430 c         1 3KR      0.568500
     10 N10        -0.1450   -1.1430    2.2450 ne        1 3KR      0.002900
     11 O11         0.5490   -1.0520    3.1550 o         1 3KR     -0.067300
     12 O12         2.5740    0.0700   -1.2640 o         1 3KR     -0.644300
     13 O13         2.4450   -0.9850    0.8880 o         1 3KR     -0.644300
     14 O14        -1.1070    0.9420    1.6960 o         1 3KR     -0.482100
     15 C15        -0.3500    1.0840   -0.8840 c3        1 3KR     -0.054400
     16 C16        -0.1050    0.9390   -2.3830 c3        1 3KR      0.158300
     17 N17        -0.5090   -0.3600   -2.9000 n3        1 3KR     -0.723600
     18 C18         0.1090   -1.4550   -2.1680 c3        1 3KR      0.158300
     19 C19        -0.1250   -1.3840   -0.6600 c3        1 3KR     -0.054400
     20 C20        -0.3180   -0.4750   -4.3390 c3        1 3KR      0.169800
     21 C21        -1.3440   -1.3970   -5.0100 c3        1 3KR      0.129400
     22 O22        -2.4250   -0.5640   -5.4240 os        1 3KR     -0.419600
     23 C23        -3.5230   -1.3040   -5.9280 c3        1 3KR      0.116700
     24 O24         3.0830    5.2430    2.5040 os        1 3KR     -0.240200
     25 C25         3.3520    5.3510    3.8710 ca        1 3KR      0.084100
     26 C26         4.4940    4.7660    4.4320 ca        1 3KR     -0.125500
     27 C27         4.7970    5.0150    5.7680 ca        1 3KR     -0.109500
     28 C28         3.9530    5.8540    6.5100 ca        1 3KR      0.083100
     29 C29         2.8120    6.4410    5.9490 ca        1 3KR     -0.109500
     30 C30         2.5040    6.1820    4.6160 ca        1 3KR     -0.125500
     31 O31         4.3670    6.1960    7.7970 os        1 3KR     -0.368900
     32 C32         3.6060    5.7240    8.8800 c3        1 3KR      0.820700
     33 F33         3.4630    4.3750    8.8610 f         1 3KR     -0.214300
     34 F34         4.3060    6.0890    9.9800 f         1 3KR     -0.214300
     35 F35         2.3780    6.2980    8.9180 f         1 3KR     -0.214300
     36 H3          2.2680    0.7110    2.7840 ha        1 3KR      0.161500
     37 H4          2.7420    2.8900    3.8880 ha        1 3KR      0.163000
     38 H6          2.9050    4.8190   -0.0020 ha        1 3KR      0.163000
     39 H7          2.4340    2.6160   -1.0970 ha        1 3KR      0.161500
     40 H15         0.0580    2.0720   -0.5440 hc        1 3KR      0.071200
     41 H15A       -1.4580    1.1010   -0.6950 hc        1 3KR      0.071200
     42 H16        -0.7260    1.7210   -2.9080 h1        1 3KR      0.048700
     43 H16A        0.9830    1.1560   -2.6020 h1        1 3KR      0.048700
     44 H18        -0.3480   -2.4140   -2.5430 h1        1 3KR      0.048700
     45 H18A        1.2240   -1.5080   -2.3620 h1        1 3KR      0.048700
     46 H19         0.4680   -2.2080   -0.1770 hc        1 3KR      0.071200
     47 H19A       -1.2120   -1.5710   -0.4510 hc        1 3KR      0.071200
     48 H20         0.7110   -0.8660   -4.5910 h1        1 3KR      0.050700
     49 H20A       -0.4220    0.5460   -4.8070 h1        1 3KR      0.050700
     50 H21        -1.7180   -2.2030   -4.3260 h1        1 3KR      0.031700
     51 H21A       -0.8830   -1.8710   -5.9190 h1        1 3KR      0.031700
     52 H23        -3.2170   -1.9070   -6.8190 h1        1 3KR      0.031700
     53 H23A       -3.9420   -1.9770   -5.1390 h1        1 3KR      0.031700
     54 H23B       -4.2730   -0.5270   -6.2190 h1        1 3KR      0.031700
     55 H26         5.1410    4.1200    3.8210 ha        1 3KR      0.161000
     56 H27         5.6910    4.5780    6.2370 ha        1 3KR      0.163500
     57 H29         2.1700    7.0950    6.5590 ha        1 3KR      0.163500
     58 H30         1.6180    6.6330    4.1430 ha        1 3KR      0.161000
@<TRIPOS>BOND
     1    1    2 1   
     2    1    8 1   
     3    1   12 2   
     4    1   13 2   
     5    2    3 ar  
     6    2    7 ar  
     7    3    4 ar  
     8    3   36 1   
     9    4    5 ar  
    10    4   37 1   
    11    5    6 ar  
    12    5   24 1   
    13    6    7 ar  
    14    6   38 1   
    15    7   39 1   
    16    8    9 1   
    17    8   15 1   
    18    8   19 1   
    19    9   10 1   
    20    9   14 2   
    21   10   11 2   
    22   15   16 1   
    23   15   40 1   
    24   15   41 1   
    25   16   17 1   
    26   16   42 1   
    27   16   43 1   
    28   17   18 1   
    29   17   20 1   
    30   18   19 1   
    31   18   44 1   
    32   18   45 1   
    33   19   46 1   
    34   19   47 1   
    35   20   21 1   
    36   20   48 1   
    37   20   49 1   
    38   21   22 1   
    39   21   50 1   
    40   21   51 1   
    41   22   23 1   
    42   23   52 1   
    43   23   53 1   
    44   23   54 1   
    45   24   25 1   
    46   25   26 ar  
    47   25   30 ar  
    48   26   27 ar  
    49   26   55 1   
    50   27   28 ar  
    51   27   56 1   
    52   28   29 ar  
    53   28   31 1   
    54   29   30 ar  
    55   29   57 1   
    56   30   58 1   
    57   31   32 1   
    58   32   33 1   
    59   32   34 1   
    60   32   35 1   
@<TRIPOS>SUBSTRUCTURE
     1 3KR         1 TEMP              0 ****  ****    0 ROOT
