@<TRIPOS>MOLECULE
3KS
   59    58     1     0     0
SMALL
bcc


@<TRIPOS>ATOM
      1 C15        -3.0110    1.1920   -1.6410 c         1 3KS      0.562100
      2 O8         -3.0630    2.2680   -1.0710 o         1 3KS     -0.404100
      3 C16        -3.8190    0.6840   -2.7830 c3        1 3KS     -0.194100
      4 N3         -1.9750    0.2180   -1.0850 ny        1 3KS     -0.687800
      5 C1         -0.5790    0.5710   -1.5250 c3        1 3KS      0.043500
      6 C2         -0.3290    0.0130   -2.9560 c         1 3KS      0.644100
      7 O7         -1.0730   -0.8980   -3.3820 o         1 3KS     -0.615100
      8 C           0.4690    0.0150   -0.5740 c3        1 3KS     -0.133100
      9 N           0.7220    0.5350   -3.6430 ns        1 3KS     -0.512900
     10 C3          0.8480    0.4060   -5.0860 c3        1 3KS     -0.020300
     11 C4          1.2650    1.7600   -5.6810 c         1 3KS      0.620100
     12 O1          0.9870    2.0490   -6.9630 oh        1 3KS     -0.548100
     13 C5          1.8730   -0.6500   -5.5300 c3        1 3KS     -0.084400
     14 C6          1.4080   -2.0500   -5.1610 c3        1 3KS     -0.153400
     15 C7          1.7720   -3.0400   -6.2360 c         1 3KS      0.558100
     16 O6          2.8880   -3.4760   -6.4850 o         1 3KS     -0.434100
     17 O           1.8380    2.6480   -5.0430 o         1 3KS     -0.516000
     18 C9         -0.1300   -1.3290   -7.8760 c         1 3KS      0.909600
     19 C8          0.4770   -2.7120   -8.3220 c3        1 3KS     -0.017500
     20 C10        -0.4430   -3.3310   -9.3660 c3        1 3KS     -0.088400
     21 C11         0.2220   -4.3380  -10.2830 c3        1 3KS     -0.107400
     22 C12         0.7210   -5.5500   -9.5350 c3        1 3KS     -0.106400
     23 C13         0.7800   -6.8450  -10.3140 c3        1 3KS     -0.093500
     24 C14         1.2200   -8.0100   -9.2690 c         1 3KS      0.945600
     25 O3         -0.9420   -1.3420   -6.9100 o         1 3KS     -0.791800
     26 O2          0.3020   -0.3200   -8.4770 o         1 3KS     -0.791800
     27 O5          1.9460   -8.8960   -9.7740 o         1 3KS     -0.752800
     28 O4          0.7910   -7.8530   -8.1130 o         1 3KS     -0.752800
     29 N1          0.6500   -3.5640   -7.0890 ny        1 3KS     -0.668800
     30 N2          1.7290   -6.8460  -11.4600 nz        1 3KS     -0.824600
     31 H161       -4.6190   -0.0040   -2.4010 hc        1 3KS      0.125700
     32 H162       -4.3090    1.5580   -3.2890 hc        1 3KS      0.125700
     33 H163       -3.1910    0.1310   -3.5320 hc        1 3KS      0.125700
     34 H31        -2.0030    0.2340   -0.0590 hn        1 3KS      0.469300
     35 H11        -0.5200    1.7030   -1.5340 hx        1 3KS      0.132700
     36 HC1         0.3160    0.3950    0.4670 hc        1 3KS      0.085700
     37 HC2         1.4800    0.3550   -0.9150 hc        1 3KS      0.085700
     38 HC3         0.4600   -1.1030   -0.5610 hc        1 3KS      0.085700
     39 HN1         1.2840    1.2510   -3.2240 hn        1 3KS      0.347500
     40 H32        -0.1640    0.1080   -5.5260 h1        1 3KS      0.155700
     41 H51         1.9630   -0.5460   -6.6490 hc        1 3KS      0.090700
     42 H52         2.8800   -0.4470   -5.0830 hc        1 3KS      0.090700
     43 H61         0.2940   -2.0420   -4.9760 hc        1 3KS      0.109700
     44 H62         1.9190   -2.3950   -4.2210 hc        1 3KS      0.109700
     45 H81         1.5020   -2.5410   -8.7600 hx        1 3KS      0.105700
     46 H101       -0.8140   -2.4700   -9.9930 hc        1 3KS      0.087700
     47 H102       -1.3430   -3.7900   -8.8770 hc        1 3KS      0.087700
     48 H111       -0.5350   -4.6500  -11.0530 hc        1 3KS      0.052200
     49 H112        1.0680   -3.8440  -10.8300 hc        1 3KS      0.052200
     50 H121        1.7330   -5.3410   -9.0940 hc        1 3KS      0.072200
     51 H122        0.0130   -5.7940   -8.6880 hc        1 3KS      0.072200
     52 H131       -0.2340   -7.1270  -10.7080 hx        1 3KS      0.098700
     53 H12         0.8340   -4.5410   -7.3460 hn        1 3KS      0.467800
     54 H21         1.2620   -6.6420  -12.3390 hn        1 3KS      0.449133
     55 H22         2.4780   -6.1740  -11.3060 hn        1 3KS      0.449133
     56 H321       -2.1910   -0.7320   -1.4230 hn        1 3KS      0.469300
     57 HN3         0.5310    1.3080   -7.4170 ho        1 3KS      0.492000
     58 H123       -0.2380   -3.4980   -6.5650 hn        1 3KS      0.467800
     59 H23         2.1400   -7.8090  -11.4850 hn        1 3KS      0.449133
@<TRIPOS>BOND
     1    1    2 2   
     2    1    3 1   
     3    1    4 1   
     4    3   31 1   
     5    3   32 1   
     6    3   33 1   
     7    4    5 1   
     8    4   34 1   
     9    4   56 1   
    10    5    6 1   
    11    5    8 1   
    12    5   35 1   
    13    6    7 2   
    14    6    9 1   
    15    8   36 1   
    16    8   37 1   
    17    8   38 1   
    18    9   10 1   
    19    9   39 1   
    20   10   11 1   
    21   10   13 1   
    22   10   40 1   
    23   11   12 1   
    24   11   17 2   
    25   12   57 1   
    26   13   14 1   
    27   13   41 1   
    28   13   42 1   
    29   14   15 1   
    30   14   43 1   
    31   14   44 1   
    32   15   16 2   
    33   15   29 1   
    34   18   19 1   
    35   18   25 1   
    36   18   26 1   
    37   19   20 1   
    38   19   29 1   
    39   19   45 1   
    40   20   21 1   
    41   20   46 1   
    42   20   47 1   
    43   21   22 1   
    44   21   48 1   
    45   21   49 1   
    46   22   23 1   
    47   22   50 1   
    48   22   51 1   
    49   23   24 1   
    50   23   30 1   
    51   23   52 1   
    52   24   27 1   
    53   24   28 1   
    54   29   53 1   
    55   29   58 1   
    56   30   54 1   
    57   30   55 1   
    58   30   59 1   
@<TRIPOS>SUBSTRUCTURE
     1 3KS         1 TEMP              0 ****  ****    0 ROOT
