@<TRIPOS>MOLECULE
3KS
   59    58     1     0     0
SMALL
bcc


@<TRIPOS>ATOM
      1 C15        -1.5210    2.7790   -1.2520 c         1 3KS      0.576100
      2 O8         -0.5180    3.0850   -0.6290 o         1 3KS     -0.419100
      3 C16        -2.2350    3.5330   -2.3140 c3        1 3KS     -0.197100
      4 N3         -2.1180    1.4200   -0.8820 n4        1 3KS     -0.689800
      5 C1         -1.1540    0.2830   -1.0950 c3        1 3KS      0.045500
      6 C2         -1.3550   -0.2720   -2.5320 c         1 3KS      0.638100
      7 O7         -2.5170   -0.3660   -2.9650 o         1 3KS     -0.557100
      8 C          -1.3750   -0.8510   -0.1050 c3        1 3KS     -0.131100
      9 N          -0.2320   -0.6840   -3.2280 n         1 3KS     -0.488900
     10 C3         -0.2770   -0.5910   -4.6830 c3        1 3KS     -0.025300
     11 C4         -0.5420    0.8510   -5.1390 c         1 3KS      0.634100
     12 O1         -0.8730    1.1330   -6.4050 oh        1 3KS     -0.542100
     13 C5          1.0100   -1.1140   -5.3330 c3        1 3KS     -0.079400
     14 C6          1.0980   -2.6270   -5.2040 c3        1 3KS     -0.143400
     15 C7          1.7800   -3.2290   -6.4050 c         1 3KS      0.558100
     16 O6          2.9710   -3.1590   -6.6810 o         1 3KS     -0.431100
     17 O          -0.5270    1.8250   -4.3690 o         1 3KS     -0.599000
     18 C9         -0.4890   -2.0270   -7.9150 c         1 3KS      0.903600
     19 C8          0.4620   -3.1320   -8.5010 c3        1 3KS     -0.012500
     20 C10        -0.2830   -3.8920   -9.5910 c3        1 3KS     -0.088400
     21 C11         0.6080   -4.5320  -10.6370 c3        1 3KS     -0.106400
     22 C12         1.5560   -5.5370  -10.0320 c3        1 3KS     -0.104400
     23 C13         2.0570   -6.6340  -10.9440 c3        1 3KS     -0.094500
     24 C14         2.9970   -7.6060  -10.0400 c         1 3KS      0.946600
     25 O3         -1.2280   -2.3520   -6.9460 o         1 3KS     -0.792800
     26 O2         -0.3750   -0.8790   -8.4030 o         1 3KS     -0.792800
     27 O5          3.9610   -8.1020  -10.6650 o         1 3KS     -0.752800
     28 O4          2.6410   -7.7040   -8.8530 o         1 3KS     -0.752800
     29 N1          0.9200   -4.0100   -7.3610 n4        1 3KS     -0.666800
     30 N2          2.8420   -6.1690  -12.1200 n4        1 3KS     -0.823600
     31 H161       -1.8560    3.1920   -3.3220 hc        1 3KS      0.128700
     32 H162       -1.9900    4.6230   -2.2000 hc        1 3KS      0.128700
     33 H163       -3.3440    3.3990   -2.2770 hc        1 3KS      0.128700
     34 H31        -2.9620    1.2450   -1.4500 hn        1 3KS      0.467800
     35 H11        -0.1140    0.7090   -0.9550 hx        1 3KS      0.126700
     36 HC1        -0.6180   -1.6500   -0.3110 hc        1 3KS      0.085367
     37 HC2        -1.2380   -0.5040    0.9480 hc        1 3KS      0.085367
     38 HC3        -2.3940   -1.2990   -0.2200 hc        1 3KS      0.085367
     39 HN1         0.6500   -0.4330   -2.8290 hn        1 3KS      0.306500
     40 H32        -1.1600   -1.2150   -5.0530 h1        1 3KS      0.168700
     41 H51         1.9190   -0.6370   -4.8830 hc        1 3KS      0.090700
     42 H52         0.9740   -0.8100   -6.4180 hc        1 3KS      0.090700
     43 H61         1.7120   -2.9090   -4.3050 hc        1 3KS      0.107200
     44 H62         0.0640   -3.0540   -5.0720 hc        1 3KS      0.107200
     45 H81         1.3800   -2.6370   -8.9300 hx        1 3KS      0.106700
     46 H101       -0.9650   -4.6630   -9.1420 hc        1 3KS      0.088200
     47 H102       -0.9420   -3.1330  -10.1020 hc        1 3KS      0.088200
     48 H111        1.1820   -3.7340  -11.1770 hc        1 3KS      0.052700
     49 H112       -0.0540   -5.0360  -11.3920 hc        1 3KS      0.052700
     50 H121        2.4400   -5.0080   -9.5820 hc        1 3KS      0.071200
     51 H122        1.0330   -6.1090   -9.2100 hc        1 3KS      0.071200
     52 H131        1.2080   -7.2640  -11.3270 hx        1 3KS      0.099700
     53 H12         0.0670   -4.3230   -6.8740 hn        1 3KS      0.468300
     54 H21         3.5890   -6.8880  -12.2630 hn        1 3KS      0.449133
     55 H22         2.2660   -6.0910  -12.9540 hn        1 3KS      0.449133
     56 H321       -2.3830    1.4350    0.1090 hn        1 3KS      0.467800
     57 HN3        -0.9400    0.3240   -6.9630 ho        1 3KS      0.503000
     58 H123        1.4400   -4.8210   -7.7160 hn        1 3KS      0.468300
     59 H23         3.2840   -5.2730  -11.9230 hn        1 3KS      0.449133
@<TRIPOS>BOND
     1    1    2 2   
     2    1    3 1   
     3    1    4 1   
     4    3   31 1   
     5    3   32 1   
     6    3   33 1   
     7    4    5 1   
     8    4   34 1   
     9    4   56 1   
    10    5    6 1   
    11    5    8 1   
    12    5   35 1   
    13    6    7 2   
    14    6    9 1   
    15    8   36 1   
    16    8   37 1   
    17    8   38 1   
    18    9   10 1   
    19    9   39 1   
    20   10   11 1   
    21   10   13 1   
    22   10   40 1   
    23   11   12 1   
    24   11   17 2   
    25   12   57 1   
    26   13   14 1   
    27   13   41 1   
    28   13   42 1   
    29   14   15 1   
    30   14   43 1   
    31   14   44 1   
    32   15   16 2   
    33   15   29 1   
    34   18   19 1   
    35   18   25 1   
    36   18   26 1   
    37   19   20 1   
    38   19   29 1   
    39   19   45 1   
    40   20   21 1   
    41   20   46 1   
    42   20   47 1   
    43   21   22 1   
    44   21   48 1   
    45   21   49 1   
    46   22   23 1   
    47   22   50 1   
    48   22   51 1   
    49   23   24 1   
    50   23   30 1   
    51   23   52 1   
    52   24   27 1   
    53   24   28 1   
    54   29   53 1   
    55   29   58 1   
    56   30   54 1   
    57   30   55 1   
    58   30   59 1   
@<TRIPOS>SUBSTRUCTURE
     1 3KS         1 TEMP              0 ****  ****    0 ROOT
