@<TRIPOS>MOLECULE
3KT
   71    70     1     0     0
SMALL
bcc


@<TRIPOS>ATOM
      1 C12         0.1430    0.4290   -0.3670 c3        1 3KT      0.046000
      2 C13         1.2070    0.9490    1.8900 c3        1 3KT     -0.100000
      3 C3          3.8550   -0.6250    1.1970 c2        1 3KT      0.305000
      4 C1          2.9740   -2.3770    2.4690 c2        1 3KT      0.172000
      5 C4          3.4970   -0.0660    2.6080 c3        1 3KT      0.006000
      6 C7          2.5920    1.1720    2.4920 c3        1 3KT     -0.135000
      7 N2          3.4980   -1.9770    1.1790 n         1 3KT     -0.345000
      8 C9          4.8070    0.3670    3.2740 c3        1 3KT     -0.236000
      9 C11         3.6740   -2.8820    0.0800 c3        1 3KT     -0.023000
     10 N6          2.8260   -1.1930    3.2960 n3        1 3KT     -0.246000
     11 O8          4.3660    0.0030    0.2640 o         1 3KT     -0.319000
     12 N10         0.4470    0.3170   -1.7850 n3        1 3KT     -0.297000
     13 C14         1.2190    1.2340    0.3920 c3        1 3KT     -0.185000
     14 C15         4.7380   -3.9680    0.2700 c3        1 3KT     -0.178000
     15 C16         0.9730   -0.7960   -2.3390 c2        1 3KT      0.109000
     16 C17         5.9610   -3.7930   -0.6200 c3        1 3KT     -0.101000
     17 C18        -2.3030    0.3430    0.1020 c2        1 3KT     -0.187000
     18 C19        -1.2140    1.0550   -0.1740 c2        1 3KT     -0.191000
     19 C20         0.2070    1.8430    2.6000 c3        1 3KT     -0.213000
     20 C21        -0.1400   -3.4150    0.0030 c3        1 3KT     -0.279000
     21 C22         1.2860   -0.9580   -3.6820 c2        1 3KT     -0.325000
     22 C23         6.7380   -2.5500   -0.2440 c3        1 3KT     -0.219000
     23 C24         5.5820   -3.7870   -2.0960 c3        1 3KT     -0.157000
     24 C25         6.6280   -4.4310   -2.9870 c3        1 3KT     -0.133000
     25 C26         2.1880   -3.3220   -3.5600 c3        1 3KT     -0.213000
     26 C27         1.8050   -2.1080   -4.2430 c1        1 3KT     -0.171000
     27 C28         9.0760   -4.0460   -3.1630 c2        1 3KT     -0.230000
     28 C29         7.8290   -3.5830   -3.1850 c2        1 3KT     -0.156000
     29 H1          0.1270   -0.6230    0.0600 h1        1 3KT      0.109000
     30 H2          0.8910   -0.1190    2.0560 hc        1 3KT      0.111000
     31 H3          2.4760    1.5930    3.5270 hc        1 3KT      0.099500
     32 H4          3.1530    1.9270    1.8790 hc        1 3KT      0.099500
     33 H5          5.3010    1.1410    2.6380 hc        1 3KT      0.096667
     34 H6          4.6040    0.8020    4.2820 hc        1 3KT      0.096667
     35 H7          5.0840   -4.0140    1.3370 hc        1 3KT      0.088500
     36 H8          2.6770   -3.3820   -0.1160 h1        1 3KT      0.107500
     37 H9          3.9260   -2.2570   -0.8280 h1        1 3KT      0.107500
     38 H10         2.7080   -4.2860    2.1850 hn        1 3KT      0.162000
     39 H12         0.2990    1.1270   -2.3440 hn        1 3KT      0.235000
     40 H14         1.0640    2.3290    0.2130 hc        1 3KT      0.100000
     41 H15         2.2310    0.9700   -0.0210 hc        1 3KT      0.100000
     42 H16         5.5050   -0.4970    3.3870 hc        1 3KT      0.096667
     43 H17         4.2640   -4.9580    0.0360 hc        1 3KT      0.088500
     44 H18         0.5490   -2.9240    0.7270 hc        1 3KT      0.070250
     45 H19         6.6240   -4.6880   -0.4310 hc        1 3KT      0.090000
     46 H20        -0.8050    1.7320    2.1400 hc        1 3KT      0.077667
     47 H21        -2.2920   -0.7520    0.2000 ha        1 3KT      0.119500
     48 H22        -3.2850    0.8120    0.2540 ha        1 3KT      0.119500
     49 H23        -1.2450    2.1510   -0.2740 ha        1 3KT      0.130000
     50 H24         0.5140    2.9150    2.5270 hc        1 3KT      0.077667
     51 H25         0.1370    1.5660    3.6790 hc        1 3KT      0.077667
     52 H26        -0.9250   -2.6920   -0.3110 hc        1 3KT      0.070250
     53 H27        -0.6200   -4.2930    0.4880 hc        1 3KT      0.070250
     54 H28         1.1320   -1.6440   -1.6330 h4        1 3KT      0.140000
     55 H29         1.1080   -0.1160   -4.3750 ha        1 3KT      0.130000
     56 H30         6.0960   -1.6380   -0.3210 hc        1 3KT      0.080667
     57 H31         7.1150   -2.6310    0.8040 hc        1 3KT      0.080667
     58 H32         5.4010   -2.7330   -2.4380 hc        1 3KT      0.085000
     59 H33         4.6170   -4.3470   -2.2300 hc        1 3KT      0.085000
     60 H34         6.9150   -5.4330   -2.5710 hc        1 3KT      0.088000
     61 H35         6.1640   -4.6140   -3.9970 hc        1 3KT      0.088000
     62 H36         2.0890   -3.3450   -2.4400 hc        1 3KT      0.071000
     63 H37         1.5740   -4.1640   -3.9790 hc        1 3KT      0.071000
     64 H38         7.6130   -2.4270   -0.9280 hc        1 3KT      0.080667
     65 H39         9.3180   -5.0990   -2.9700 ha        1 3KT      0.110000
     66 H40         9.9440   -3.3980   -3.3380 ha        1 3KT      0.110000
     67 H41         7.6200   -2.5170   -3.3810 ha        1 3KT      0.123000
     68 H11         3.1300   -1.3290    4.2390 hn        1 3KT      0.211000
     69 H13         0.4330   -3.7520   -0.8890 hc        1 3KT      0.070250
     70 H42         3.2630   -3.5310   -3.8100 hc        1 3KT      0.071000
     71 N5          2.6230   -3.5620    2.8670 n2        1 3KT     -0.294000
@<TRIPOS>BOND
     1    1   12 1   
     2    1   13 1   
     3    1   18 1   
     4    1   29 1   
     5    2    6 1   
     6    2   13 1   
     7    2   19 1   
     8    2   30 1   
     9    3    5 1   
    10    3    7 1   
    11    3   11 1   
    12    4    7 1   
    13    4   10 1   
    14    4   71 1   
    15    5    6 1   
    16    5    8 1   
    17    5   10 1   
    18    6   31 1   
    19    6   32 1   
    20    7    9 1   
    21    8   33 1   
    22    8   34 1   
    23    8   42 1   
    24    9   14 1   
    25    9   36 1   
    26    9   37 1   
    27   10   68 1   
    28   12   15 1   
    29   12   39 1   
    30   13   40 1   
    31   13   41 1   
    32   14   16 1   
    33   14   35 1   
    34   14   43 1   
    35   15   21 1   
    36   15   54 1   
    37   16   22 1   
    38   16   23 1   
    39   16   45 1   
    40   17   18 1   
    41   17   47 1   
    42   17   48 1   
    43   18   49 1   
    44   19   46 1   
    45   19   50 1   
    46   19   51 1   
    47   20   44 1   
    48   20   52 1   
    49   20   53 1   
    50   20   69 1   
    51   21   26 1   
    52   21   55 1   
    53   22   56 1   
    54   22   57 1   
    55   22   64 1   
    56   23   24 1   
    57   23   58 1   
    58   23   59 1   
    59   24   28 1   
    60   24   60 1   
    61   24   61 1   
    62   25   26 1   
    63   25   62 1   
    64   25   63 1   
    65   25   70 1   
    66   27   28 1   
    67   27   65 1   
    68   27   66 1   
    69   28   67 1   
    70   38   71 1   
@<TRIPOS>SUBSTRUCTURE
     1 3KT         1 TEMP              0 ****  ****    0 ROOT
