@<TRIPOS>MOLECULE
3KT
   72    66     1     0     0
SMALL
bcc


@<TRIPOS>ATOM
      1 C12         0.4190   -0.5750    1.2180 c3        1 3KT     -0.047000
      2 C13         2.0130    1.3730    1.6690 c3        1 3KT     -0.193000
      3 C3          3.3870   -0.6890   -0.5350 c2        1 3KT      0.294000
      4 C1          3.8320   -2.0750    1.2580 c2        1 3KT      0.173000
      5 C4          4.0750    0.1860    0.5660 c3        1 3KT      0.071000
      6 C7          3.2990    1.4780    0.8570 c3        1 3KT     -0.127000
      7 N2          3.3300   -1.9720   -0.1570 n3        1 3KT     -0.202000
      8 C9          5.4640    0.5980    0.0090 c3        1 3KT     -0.066000
      9 C11         2.9020   -3.1400   -0.8710 c3        1 3KT     -0.117000
     10 N6          4.1420   -0.7400    1.7170 n7        1 3KT     -0.235000
     11 N10         0.2510   -1.3970    0.0260 n8        1 3KT     -0.376000
     12 C14         0.8360    0.8620    0.8470 c3        1 3KT     -0.180000
     13 C15         6.2830   -0.5150   -0.3480 c1        1 3KT     -0.272000
     14 C16        -3.3930   -1.2060   -1.6150 c1        1 3KT     -0.143000
     15 C17         7.0300   -1.3980   -0.6670 c1        1 3KT     -0.098000
     16 C18        -0.4920   -0.0020    3.5010 c3        1 3KT     -0.214000
     17 C19        -0.8160   -0.5510    2.1380 c3        1 3KT     -0.193000
     18 C20         1.8080    2.6450    2.3580 c1        1 3KT     -0.034000
     19 C21        -2.7190   -1.9580   -0.7980 c2        1 3KT     -0.197000
     20 C22        -4.0740   -0.4570   -2.4270 c2        1 3KT     -0.197000
     21 C23         7.9220   -2.4550   -1.0530 c3        1 3KT     -0.146000
     22 C24         5.8420   -5.6530   -0.3460 c3        1 3KT     -0.275000
     23 C25         8.4720   -3.7900    1.6730 c1        1 3KT     -0.191000
     24 C26         2.3520   -0.7570   -2.6880 c2        1 3KT     -0.120000
     25 C27         2.8980   -0.7320   -3.9040 c2        1 3KT     -0.145000
     26 C28         9.1780   -2.6120   -0.3240 c1        1 3KT     -0.081000
     27 C29         9.1870   -4.4740    0.9860 c1        1 3KT     -0.191000
     28 H1          1.2590   -1.0610    1.8040 h1        1 3KT      0.092000
     29 H2          3.9970    2.1640    1.4200 hc        1 3KT      0.131000
     30 H3          3.0760    1.9560   -0.1350 hc        1 3KT      0.131000
     31 H4          2.1850    0.6880    2.5690 hc        1 3KT      0.176000
     32 H5          5.9860    1.2220    0.7910 hc        1 3KT      0.141500
     33 H6          5.2930    1.2570   -0.8900 hc        1 3KT      0.141500
     34 H7          3.6680   -3.9550   -0.7310 h1        1 3KT      0.128667
     35 H8          2.8130   -2.9260   -1.9710 h1        1 3KT      0.128667
     36 H9          1.9060   -3.4860   -0.4800 h1        1 3KT      0.128667
     37 H10         3.6050   -4.0030    1.6020 hn        1 3KT      0.202000
     38 H12         1.3690   -1.1450   -2.3810 h4        1 3KT      0.192000
     39 H14         1.0990    0.9260   -0.2440 hc        1 3KT      0.096000
     40 H15        -0.0450    1.5410    0.9980 hc        1 3KT      0.096000
     41 H16         6.6700   -3.9220   -3.1490 ha        1 3KT      0.000833
     42 H17         6.4760   -4.4290   -3.5560 ha        1 3KT      0.000833
     43 H18        -0.1200   -2.2940    0.2850 hn        1 3KT      0.150500
     44 H19         5.9410   -6.7390   -0.5630 hc        1 3KT      0.069000
     45 H20        -1.2130   -1.5960    2.2550 hc        1 3KT      0.090500
     46 H21        -0.1260    1.0520    3.4290 hc        1 3KT      0.081667
     47 H22         0.2960   -0.6140    4.0020 hc        1 3KT      0.081667
     48 H23        -1.4060   -0.0110    4.1450 hc        1 3KT      0.081667
     49 H24         0.7690    2.9220    2.5950 ha        1 3KT      0.061000
     50 H25        -1.6290    0.0580    1.6620 hc        1 3KT      0.090500
     51 H26        -2.6800   -1.7600    0.2840 ha        1 3KT      0.134500
     52 H27        -2.1830   -2.8570   -1.1360 ha        1 3KT      0.134500
     53 H28        -5.1360   -0.6490   -2.6470 ha        1 3KT      0.134500
     54 H29        -3.6370    0.4120   -2.9400 ha        1 3KT      0.134500
     55 H30         4.4290   -3.4550   -4.0340 ha        1 3KT      0.000833
     56 H31         3.9520   -2.9740   -3.9980 ha        1 3KT      0.000833
     57 H32         5.7310   -5.0950   -1.3030 hc        1 3KT      0.069000
     58 H33         4.9470   -5.4870    0.2940 hc        1 3KT      0.069000
     59 H34         6.7530   -5.2990    0.1900 hc        1 3KT      0.069000
     60 H35         7.8560   -3.2410    2.3390 ha        1 3KT      0.233500
     61 H36         0.4090   -3.2270   -2.2110 ha        1 3KT      0.000833
     62 H37         3.8860   -0.2980   -4.1180 ha        1 3KT      0.162500
     63 H38         7.3670   -3.4420   -1.0380 hc        1 3KT      0.158000
     64 H39         8.2420   -2.2920   -2.1330 hc        1 3KT      0.158000
     65 H40         9.4630   -1.8310    0.3930 ha        1 3KT      0.067000
     66 H41         9.8320   -5.0770    0.3890 ha        1 3KT      0.233500
     67 H11         4.9990   -0.6830    2.2380 hn        1 3KT      0.246000
     68 H13        -0.2620   -3.1410   -2.2490 ha        1 3KT      0.000833
     69 H42         2.3520   -1.1390   -4.7700 ha        1 3KT      0.162500
     70 N5          3.9100   -3.1330    1.9780 n2        1 3KT     -0.213000
     71 H102       -0.4110   -0.9710   -0.6000 hn        1 3KT      0.150500
     72 O8          3.0290   -0.0600   -1.6540 os        1 3KT     -0.098000
@<TRIPOS>BOND
     1    1   11 1   
     2    1   12 1   
     3    1   17 1   
     4    1   28 1   
     5    2    6 1   
     6    2   12 1   
     7    2   18 1   
     8    2   31 1   
     9    3    5 1   
    10    3    7 1   
    11    3   72 1   
    12    4    7 1   
    13    4   10 1   
    14    4   70 1   
    15    5    6 1   
    16    5    8 1   
    17    5   10 1   
    18    6   29 1   
    19    6   30 1   
    20    7    9 1   
    21    8   13 1   
    22    8   32 1   
    23    8   33 1   
    24    9   34 1   
    25    9   35 1   
    26    9   36 1   
    27   10   67 1   
    28   11   43 1   
    29   11   71 1   
    30   12   39 1   
    31   12   40 1   
    32   13   15 1   
    33   14   19 1   
    34   14   20 1   
    35   15   21 1   
    36   16   17 1   
    37   16   46 1   
    38   16   47 1   
    39   16   48 1   
    40   17   45 1   
    41   17   50 1   
    42   18   49 1   
    43   19   51 1   
    44   19   52 1   
    45   20   53 1   
    46   20   54 1   
    47   21   26 1   
    48   21   63 1   
    49   21   64 1   
    50   22   44 1   
    51   22   57 1   
    52   22   58 1   
    53   22   59 1   
    54   23   27 1   
    55   23   60 1   
    56   24   25 1   
    57   24   38 1   
    58   24   72 1   
    59   25   62 1   
    60   25   69 1   
    61   26   65 1   
    62   27   66 1   
    63   37   70 1   
    64   41   42 1   
    65   55   56 1   
    66   61   68 1   
@<TRIPOS>SUBSTRUCTURE
     1 3KT         1 TEMP              0 ****  ****    0 ROOT
