@<TRIPOS>MOLECULE
3KT
   72    66     1     0     0
SMALL
bcc


@<TRIPOS>ATOM
      1 C12         0.2300    0.5130    1.1680 c3        1 3KT     -0.045000
      2 C13         2.5690    1.3690    1.7240 c3        1 3KT     -0.184000
      3 C3          3.3520   -1.5370    0.1910 c2        1 3KT      0.292000
      4 C1          3.8100   -2.1280    2.3770 c2        1 3KT      0.174000
      5 C4          4.2420   -0.4070    0.7870 c3        1 3KT      0.050000
      6 C7          3.5450    0.9590    0.6240 c3        1 3KT     -0.121000
      7 N2          3.1000   -2.4840    1.1020 n3        1 3KT     -0.187000
      8 C9          5.5660   -0.3630   -0.0140 c3        1 3KT     -0.067000
      9 C11         2.3010   -3.6630    0.9410 c3        1 3KT     -0.117000
     10 N6          4.4080   -0.8250    2.1960 n3        1 3KT     -0.231000
     11 N10         0.7110   -0.5780    0.3310 n3        1 3KT     -0.372000
     12 C14         1.1910    1.7120    1.1710 c3        1 3KT     -0.168000
     13 C15         6.2500   -1.6150   -0.0430 c1        1 3KT     -0.287000
     14 C16        -1.9440   -2.8130   -1.5390 c1        1 3KT     -0.138000
     15 C17         6.8880   -2.6290   -0.1000 c1        1 3KT     -0.081000
     16 C18        -2.2260   -0.0410    0.9250 c3        1 3KT     -0.223000
     17 C19        -1.1740    1.0290    0.8090 c3        1 3KT     -0.194000
     18 C20         3.1820    2.4080    2.5490 c1        1 3KT     -0.034000
     19 C21        -0.7790   -3.1520   -1.0730 c2        1 3KT     -0.197500
     20 C22        -3.1100   -2.4810   -2.0010 c2        1 3KT     -0.197500
     21 C23         7.6430   -3.8480   -0.1790 c3        1 3KT     -0.144000
     22 C24         4.0540   -6.2950   -0.7640 c3        1 3KT     -0.273000
     23 C25        10.4510   -2.7910   -0.6760 c1        1 3KT     -0.186000
     24 C26         4.1980    0.0610   -3.5560 c2        1 3KT     -0.241000
     25 C27         3.6690    1.0810   -2.8900 c2        1 3KT     -0.241000
     26 C28         8.5170   -4.0400   -1.3360 c1        1 3KT     -0.086000
     27 C29        10.7090   -3.9660   -0.7740 c1        1 3KT     -0.186000
     28 H1          0.1820    0.1040    2.2240 h1        1 3KT      0.102000
     29 H2          4.3580    1.7390    0.5770 hc        1 3KT      0.112500
     30 H3          3.0300    0.9500   -0.3750 hc        1 3KT      0.112500
     31 H4          2.4350    0.5240    2.4780 hc        1 3KT      0.167000
     32 H5          6.2300    0.4260    0.4480 hc        1 3KT      0.136000
     33 H6          5.3270   -0.0240   -1.0650 hc        1 3KT      0.136000
     34 H7          3.5880   -0.6480   -4.1360 ha        1 3KT      0.124500
     35 H8          1.6620   -3.5630    0.0170 h1        1 3KT      0.131333
     36 H9          2.9690   -4.5640    0.8300 h1        1 3KT      0.131333
     37 H10         3.3380   -3.6670    3.5140 hn        1 3KT      0.204000
     38 H12         1.6350   -3.7890    1.8370 h1        1 3KT      0.131333
     39 H14         1.2750    2.1400    0.1380 hc        1 3KT      0.099500
     40 H15         0.7270    2.5060    1.8170 hc        1 3KT      0.099500
     41 H16         2.2630   -3.2640   -2.6560 ha        1 3KT      0.003000
     42 H17         2.3670   -3.7030   -2.1500 ha        1 3KT      0.003000
     43 H18         0.0830   -1.3600    0.4110 hn        1 3KT      0.147000
     44 H19         3.4410   -5.5380   -1.3020 hc        1 3KT      0.068750
     45 H20        -1.1670    1.4500   -0.2310 hc        1 3KT      0.094000
     46 H21        -2.1710   -0.5470    1.9190 hc        1 3KT      0.082000
     47 H22        -3.2430    0.4120    0.8190 hc        1 3KT      0.082000
     48 H23        -2.1130   -0.8170    0.1260 hc        1 3KT      0.082000
     49 H24         2.4950    3.0210    3.1520 ha        1 3KT      0.059000
     50 H25        -1.4260    1.8720    1.5060 hc        1 3KT      0.094000
     51 H26         0.1570   -2.9100   -1.6010 ha        1 3KT      0.134250
     52 H27        -0.6690   -3.7310   -0.1450 ha        1 3KT      0.134250
     53 H28        -3.6020   -1.5330   -1.7350 ha        1 3KT      0.134250
     54 H29        -3.6770   -3.1320   -2.6850 ha        1 3KT      0.134250
     55 H30         5.2810   -0.1230   -3.6010 ha        1 3KT      0.124500
     56 H31         3.2230   -0.8550   -1.5870 ho        1 3KT      0.298000
     57 H32         4.4520   -7.0330   -1.4960 hc        1 3KT      0.068750
     58 H33         4.9040   -5.7940   -0.2500 hc        1 3KT      0.068750
     59 H34         3.4250   -6.8250   -0.0160 hc        1 3KT      0.068750
     60 H35        10.3060   -1.7440   -0.5780 ha        1 3KT      0.234500
     61 H36         1.1550   -1.2910   -2.7350 ha        1 3KT      0.003000
     62 H37         4.2790    1.8170   -2.3460 ha        1 3KT      0.124500
     63 H38         8.2570   -3.9720    0.7630 hc        1 3KT      0.158500
     64 H39         6.9270   -4.7300   -0.2070 hc        1 3KT      0.158500
     65 H40        10.9480   -4.9990   -0.8680 ha        1 3KT      0.234500
     66 H41         8.4730   -3.2980   -2.1440 ha        1 3KT      0.061000
     67 H11         5.3450   -0.7480    2.5470 hn        1 3KT      0.255000
     68 H13         1.5030   -0.7420   -2.9280 ha        1 3KT      0.003000
     69 H42         2.5890    1.2910   -2.8850 ha        1 3KT      0.124500
     70 N5          3.8420   -2.8080    3.4610 n2        1 3KT     -0.204000
     71 H102        0.7190   -0.2940   -0.6330 hn        1 3KT      0.147000
     72 O8          2.9280   -1.6470   -1.0700 oh        1 3KT     -0.181000
@<TRIPOS>BOND
     1    1   11 1   
     2    1   12 1   
     3    1   17 1   
     4    1   28 1   
     5    2    6 1   
     6    2   12 1   
     7    2   18 1   
     8    2   31 1   
     9    3    5 1   
    10    3    7 1   
    11    3   72 1   
    12    4    7 1   
    13    4   10 1   
    14    4   70 1   
    15    5    6 1   
    16    5    8 1   
    17    5   10 1   
    18    6   29 1   
    19    6   30 1   
    20    7    9 1   
    21    8   13 1   
    22    8   32 1   
    23    8   33 1   
    24    9   35 1   
    25    9   36 1   
    26    9   38 1   
    27   10   67 1   
    28   11   43 1   
    29   11   71 1   
    30   12   39 1   
    31   12   40 1   
    32   13   15 1   
    33   14   19 1   
    34   14   20 1   
    35   15   21 1   
    36   16   17 1   
    37   16   46 1   
    38   16   47 1   
    39   16   48 1   
    40   17   45 1   
    41   17   50 1   
    42   18   49 1   
    43   19   51 1   
    44   19   52 1   
    45   20   53 1   
    46   20   54 1   
    47   21   26 1   
    48   21   63 1   
    49   21   64 1   
    50   22   44 1   
    51   22   57 1   
    52   22   58 1   
    53   22   59 1   
    54   23   27 1   
    55   23   60 1   
    56   24   25 1   
    57   24   34 1   
    58   24   55 1   
    59   25   62 1   
    60   25   69 1   
    61   26   66 1   
    62   27   65 1   
    63   37   70 1   
    64   41   42 1   
    65   56   72 1   
    66   61   68 1   
@<TRIPOS>SUBSTRUCTURE
     1 3KT         1 TEMP              0 ****  ****    0 ROOT
