@<TRIPOS>MOLECULE
3KU
   70    73     1     0     0
SMALL
bcc


@<TRIPOS>ATOM
      1 C1          0.3160    0.3710   -0.2000 c         1 3KU      0.693500
      2 C2          1.6210    0.0270    0.5840 c3        1 3KU      0.114200
      3 N3          1.1830   -0.0960    1.9920 nu        1 3KU     -0.805200
      4 C4         -0.2730    0.0300    2.0270 c2        1 3KU      0.602800
      5 N5         -0.7480    0.3550    0.7030 n         1 3KU     -0.409300
      6 O6          0.2280    0.6600   -1.4010 o         1 3KU     -0.623500
      7 C7          2.2340   -1.2530   -0.0130 c3        1 3KU     -0.096400
      8 C8          2.1350    2.5530    0.7150 c3        1 3KU     -0.053700
      9 C9          1.3580   -2.4790    0.1220 c3        1 3KU     -0.084400
     10 C10         1.9400   -3.6680   -0.6320 c3        1 3KU     -0.061700
     11 C11         1.8450    3.2960   -0.5870 c3        1 3KU     -0.117400
     12 C12         1.2740    4.6780   -0.2570 c3        1 3KU      0.125500
     13 C13         2.2980    5.4910    0.5390 c3        1 3KU     -0.095400
     14 C14         2.6360    4.7470    1.8170 c3        1 3KU     -0.078400
     15 C15         3.1390    3.3460    1.5420 c3        1 3KU     -0.087400
     16 C16         1.3500   -4.9650   -0.0910 c3        1 3KU     -0.073400
     17 C17         1.8970   -6.1670   -0.8320 c3        1 3KU     -0.076900
     18 C18         1.6630   -6.0530   -2.3240 c3        1 3KU     -0.078400
     19 C19         2.2310   -4.7590   -2.8690 c3        1 3KU     -0.076900
     20 C20         1.6780   -3.5590   -2.1280 c3        1 3KU     -0.073400
     21 N21        -1.0700   -0.0290    3.0480 n2        1 3KU     -0.805100
     22 N22         0.8570    5.3880   -1.5270 ny        1 3KU     -0.678800
     23 C23        -0.0460    6.5740   -1.2670 c         1 3KU      0.566700
     24 C24         2.6570    1.1550    0.4120 c3        1 3KU     -0.057400
     25 C25        -2.1370    0.4430    0.3760 c3        1 3KU      0.095300
     26 O26        -0.9840    6.3870   -0.5060 o         1 3KU     -0.404100
     27 C27         0.3140    7.8210   -1.9580 ca        1 3KU     -0.155600
     28 C28         0.0270    9.0320   -1.3140 ca        1 3KU     -0.199800
     29 C29         0.3510   10.2310   -1.9840 ca        1 3KU      0.419200
     30 C30         0.8870    7.8410   -3.2380 ca        1 3KU     -0.199800
     31 C31         1.1640    9.0930   -3.8170 ca        1 3KU      0.419200
     32 N32         0.9100   10.2680   -3.2060 nb        1 3KU     -0.598000
     33 H1          2.4270   -1.0540   -1.1020 hc        1 3KU      0.068200
     34 H2          3.2230   -1.4400    0.4810 hc        1 3KU      0.068200
     35 H3          1.1780    2.4820    1.3040 hc        1 3KU      0.076700
     36 H4          1.2540   -2.7600    1.2040 hc        1 3KU      0.043700
     37 H5          0.3290   -2.2590   -0.2690 hc        1 3KU      0.043700
     38 H6          3.0540   -3.6910   -0.4660 hc        1 3KU      0.050700
     39 H7          2.7940    3.4020   -1.1760 hc        1 3KU      0.075700
     40 H8          1.1180    2.6940   -1.1980 hc        1 3KU      0.075700
     41 H9          0.3290    4.5560    0.3590 hx        1 3KU      0.125700
     42 H10         1.8810    6.5000    0.7940 hc        1 3KU      0.060200
     43 H11         3.2310    5.6390   -0.0660 hc        1 3KU      0.060200
     44 H12         1.7290    4.7010    2.4760 hc        1 3KU      0.069700
     45 H13         3.4240    5.3260    2.3700 hc        1 3KU      0.069700
     46 H14         3.3120    2.8190    2.5180 hc        1 3KU      0.065200
     47 H15         4.1210    3.3910    1.0040 hc        1 3KU      0.065200
     48 H16         0.2340   -4.9340   -0.1940 hc        1 3KU      0.040200
     49 H17         1.5880   -5.0590    1.0000 hc        1 3KU      0.040200
     50 H18         1.4050   -7.0970   -0.4450 hc        1 3KU      0.043700
     51 H19         2.9970   -6.2600   -0.6330 hc        1 3KU      0.043700
     52 H20         2.1390   -6.9220   -2.8470 hc        1 3KU      0.045200
     53 H21         0.5610   -6.0950   -2.5340 hc        1 3KU      0.045200
     54 H22         1.9830   -4.6690   -3.9590 hc        1 3KU      0.043700
     55 H23         3.3490   -4.7730   -2.7770 hc        1 3KU      0.043700
     56 H24         2.1480   -2.6240   -2.5280 hc        1 3KU      0.040200
     57 H25         0.5730   -3.4840   -2.3080 hc        1 3KU      0.040200
     58 H26        -0.6400   -0.2440    3.9220 hn        1 3KU      0.420400
     59 H28         0.3520    4.7130   -2.1150 hn        1 3KU      0.458800
     60 H29         3.5280    0.9270    1.0830 hc        1 3KU      0.068200
     61 H30         3.0270    1.1070   -0.6470 hc        1 3KU      0.068200
     62 H31        -2.6630   -0.5150    0.6380 h1        1 3KU      0.060367
     63 H32        -2.2360    0.6370   -0.7250 h1        1 3KU      0.060367
     64 H33        -2.6110    1.2800    0.9560 h1        1 3KU      0.060367
     65 H34        -0.4450    9.0550   -0.3190 ha        1 3KU      0.161500
     66 H35         0.1450   11.2130   -1.5130 h4        1 3KU      0.060100
     67 H36         1.0930    6.9290   -3.8130 ha        1 3KU      0.161500
     68 H37         1.6110    9.1630   -4.8290 h4        1 3KU      0.060100
     69 H38         1.5070   -0.9380    2.4240 hn        1 3KU      0.407800
     70 H222        1.6960    5.6970   -2.0270 hn        1 3KU      0.458800
@<TRIPOS>BOND
     1    1    2 1   
     2    1    5 1   
     3    1    6 2   
     4    2    3 1   
     5    2    7 1   
     6    2   24 1   
     7    3    4 1   
     8    3   69 1   
     9    4    5 1   
    10    4   21 2   
    11    5   25 1   
    12    7    9 1   
    13    7   33 1   
    14    7   34 1   
    15    8   11 1   
    16    8   15 1   
    17    8   24 1   
    18    8   35 1   
    19    9   10 1   
    20    9   36 1   
    21    9   37 1   
    22   10   16 1   
    23   10   20 1   
    24   10   38 1   
    25   11   12 1   
    26   11   39 1   
    27   11   40 1   
    28   12   13 1   
    29   12   22 1   
    30   12   41 1   
    31   13   14 1   
    32   13   42 1   
    33   13   43 1   
    34   14   15 1   
    35   14   44 1   
    36   14   45 1   
    37   15   46 1   
    38   15   47 1   
    39   16   17 1   
    40   16   48 1   
    41   16   49 1   
    42   17   18 1   
    43   17   50 1   
    44   17   51 1   
    45   18   19 1   
    46   18   52 1   
    47   18   53 1   
    48   19   20 1   
    49   19   54 1   
    50   19   55 1   
    51   20   56 1   
    52   20   57 1   
    53   21   58 1   
    54   22   23 1   
    55   22   59 1   
    56   22   70 1   
    57   23   26 2   
    58   23   27 1   
    59   24   60 1   
    60   24   61 1   
    61   25   62 1   
    62   25   63 1   
    63   25   64 1   
    64   27   28 ar  
    65   27   30 ar  
    66   28   29 ar  
    67   28   65 1   
    68   29   32 ar  
    69   29   66 1   
    70   30   31 ar  
    71   30   67 1   
    72   31   32 ar  
    73   31   68 1   
@<TRIPOS>SUBSTRUCTURE
     1 3KU         1 TEMP              0 ****  ****    0 ROOT
