@<TRIPOS>MOLECULE
3KU
   69    72     1     0     0
SMALL
bcc


@<TRIPOS>ATOM
      1 C1          0.0680    0.2340   -0.2020 c         1 3KU      0.692500
      2 C2          1.4950    0.0290    0.3950 c3        1 3KU      0.112200
      3 N3          1.2750   -0.0860    1.8530 nh        1 3KU     -0.799200
      4 C4         -0.1670   -0.0450    2.0980 c2        1 3KU      0.609800
      5 N5         -0.8570    0.1260    0.8460 n         1 3KU     -0.407300
      6 O6         -0.2130    0.4340   -1.3870 o         1 3KU     -0.588500
      7 C7          2.1340   -1.2110   -0.2550 c3        1 3KU     -0.094400
      8 C8          1.9180    2.5700    0.6220 c3        1 3KU     -0.052700
      9 C9          1.3640   -2.4930   -0.0260 c3        1 3KU     -0.084400
     10 C10         1.9630   -3.6550   -0.8080 c3        1 3KU     -0.060700
     11 C11         1.9880    3.6660   -0.4350 c3        1 3KU     -0.091400
     12 C12         1.5060    5.0050    0.1520 c3        1 3KU      0.100700
     13 C13         2.3940    5.3770    1.3530 c3        1 3KU     -0.094400
     14 C14         2.3420    4.2820    2.3970 c3        1 3KU     -0.076400
     15 C15         2.7710    2.9480    1.8250 c3        1 3KU     -0.074400
     16 C16         1.5100   -4.9780   -0.2030 c3        1 3KU     -0.073900
     17 C17         2.0730   -6.1560   -0.9710 c3        1 3KU     -0.076400
     18 C18         1.7070   -6.0850   -2.4390 c3        1 3KU     -0.077400
     19 C19         2.1390   -4.7670   -3.0470 c3        1 3KU     -0.076400
     20 C20         1.5720   -3.5920   -2.2780 c3        1 3KU     -0.073900
     21 N21        -0.7900   -0.0890    3.2360 n2        1 3KU     -0.823100
     22 N22         1.4720    6.0470   -0.8510 n         1 3KU     -0.565900
     23 C23         0.3570    6.8220   -1.0870 c         1 3KU      0.670700
     24 C24         2.3680    1.2430    0.0250 c3        1 3KU     -0.057400
     25 C25        -2.2470    0.4440    0.7630 c3        1 3KU      0.098300
     26 O26        -0.7070    6.6570   -0.4580 o         1 3KU     -0.597100
     27 C27         0.4800    7.8840   -2.1320 ca        1 3KU     -0.101600
     28 C28        -0.1380    9.1200   -1.9090 ca        1 3KU     -0.211300
     29 C29        -0.0290   10.1090   -2.9030 ca        1 3KU      0.388200
     30 C30         1.1650    7.6750   -3.3330 ca        1 3KU     -0.211300
     31 C31         1.2100    8.7290   -4.2650 ca        1 3KU      0.388200
     32 N32         0.6320    9.9290   -4.0630 nb        1 3KU     -0.651000
     33 H1          3.1800   -1.3240    0.1340 hc        1 3KU      0.064700
     34 H2          2.1990   -1.0100   -1.3580 hc        1 3KU      0.064700
     35 H3          0.8460    2.4860    0.9610 hc        1 3KU      0.060700
     36 H4          1.3720   -2.7560    1.0650 hc        1 3KU      0.045200
     37 H5          0.2920   -2.3530   -0.3290 hc        1 3KU      0.045200
     38 H6          3.0860   -3.6000   -0.7360 hc        1 3KU      0.046700
     39 H7          1.3430    3.3820   -1.3070 hc        1 3KU      0.047700
     40 H8          3.0420    3.7660   -0.8030 hc        1 3KU      0.047700
     41 H9          0.4470    4.8650    0.5310 h1        1 3KU      0.092700
     42 H10         3.4520    5.5250    1.0130 hc        1 3KU      0.044700
     43 H11         2.0410    6.3400    1.8030 hc        1 3KU      0.044700
     44 H12         1.2990    4.1990    2.8020 hc        1 3KU      0.045700
     45 H13         3.0140    4.5550    3.2520 hc        1 3KU      0.045700
     46 H14         3.8490    3.0020    1.5160 hc        1 3KU      0.046200
     47 H15         2.6830    2.1550    2.6120 hc        1 3KU      0.046200
     48 H16         1.8450   -5.0360    0.8660 hc        1 3KU      0.042200
     49 H17         0.3900   -5.0230   -0.2100 hc        1 3KU      0.042200
     50 H18         1.6810   -7.1090   -0.5310 hc        1 3KU      0.039700
     51 H19         3.1900   -6.1710   -0.8660 hc        1 3KU      0.039700
     52 H20         0.5970   -6.2020   -2.5530 hc        1 3KU      0.040700
     53 H21         2.1930   -6.9320   -2.9890 hc        1 3KU      0.040700
     54 H22         1.7960   -4.7150   -4.1140 hc        1 3KU      0.039700
     55 H23         3.2600   -4.7070   -3.0510 hc        1 3KU      0.039700
     56 H24         0.4530   -3.5920   -2.3660 hc        1 3KU      0.042200
     57 H25         1.9450   -2.6360   -2.7290 hc        1 3KU      0.042200
     58 H26        -0.2060   -0.2190    4.0350 hn        1 3KU      0.406400
     59 H28         2.3170    6.2500   -1.3270 hn        1 3KU      0.309500
     60 H29         2.3510    1.3070   -1.0970 hc        1 3KU      0.058200
     61 H30         3.4220    1.0260    0.3380 hc        1 3KU      0.058200
     62 H31        -2.5230    0.5600   -0.3190 h1        1 3KU      0.056700
     63 H32        -2.8490   -0.3850    1.2220 h1        1 3KU      0.056700
     64 H33        -2.4720    1.3970    1.3130 h1        1 3KU      0.056700
     65 H34        -0.7060    9.3020   -0.9850 ha        1 3KU      0.156000
     66 H35        -0.5000   11.0990   -2.7670 h4        1 3KU      0.027100
     67 H36         1.6430    6.7150   -3.5660 ha        1 3KU      0.156000
     68 H37         1.7370    8.6060   -5.2280 h4        1 3KU      0.027100
     69 H38         1.7030   -0.9030    2.2420 hn        1 3KU      0.395800
@<TRIPOS>BOND
     1    1    2 1   
     2    1    5 1   
     3    1    6 2   
     4    2    3 1   
     5    2    7 1   
     6    2   24 1   
     7    3    4 1   
     8    3   69 1   
     9    4    5 1   
    10    4   21 2   
    11    5   25 1   
    12    7    9 1   
    13    7   33 1   
    14    7   34 1   
    15    8   11 1   
    16    8   15 1   
    17    8   24 1   
    18    8   35 1   
    19    9   10 1   
    20    9   36 1   
    21    9   37 1   
    22   10   16 1   
    23   10   20 1   
    24   10   38 1   
    25   11   12 1   
    26   11   39 1   
    27   11   40 1   
    28   12   13 1   
    29   12   22 1   
    30   12   41 1   
    31   13   14 1   
    32   13   42 1   
    33   13   43 1   
    34   14   15 1   
    35   14   44 1   
    36   14   45 1   
    37   15   46 1   
    38   15   47 1   
    39   16   17 1   
    40   16   48 1   
    41   16   49 1   
    42   17   18 1   
    43   17   50 1   
    44   17   51 1   
    45   18   19 1   
    46   18   52 1   
    47   18   53 1   
    48   19   20 1   
    49   19   54 1   
    50   19   55 1   
    51   20   56 1   
    52   20   57 1   
    53   21   58 1   
    54   22   23 1   
    55   22   59 1   
    56   23   26 2   
    57   23   27 1   
    58   24   60 1   
    59   24   61 1   
    60   25   62 1   
    61   25   63 1   
    62   25   64 1   
    63   27   28 ar  
    64   27   30 ar  
    65   28   29 ar  
    66   28   65 1   
    67   29   32 ar  
    68   29   66 1   
    69   30   31 ar  
    70   30   67 1   
    71   31   32 ar  
    72   31   68 1   
@<TRIPOS>SUBSTRUCTURE
     1 3KU         1 TEMP              0 ****  ****    0 ROOT
