@<TRIPOS>MOLECULE
3KU
   70    73     1     0     0
SMALL
bcc


@<TRIPOS>ATOM
      1 C1          0.3440    0.4050   -0.1270 c         1 3KU      0.685500
      2 C2          1.6340    0.0200    0.6600 c3        1 3KU      0.116200
      3 N3          1.1620   -0.2210    2.0410 nh        1 3KU     -0.798200
      4 C4         -0.2720    0.0500    2.0890 c2        1 3KU      0.593800
      5 N5         -0.7250    0.4660    0.7770 n         1 3KU     -0.399300
      6 O6          0.2710    0.6850   -1.3310 o         1 3KU     -0.617500
      7 C7          2.2390   -1.2490    0.0270 c3        1 3KU     -0.059400
      8 C8          2.1690    2.5390    0.8430 c3        1 3KU     -0.062700
      9 C9          1.3340   -2.4590    0.0910 c3        1 3KU     -0.076400
     10 C10         1.9160   -3.6340   -0.6820 c3        1 3KU     -0.063700
     11 C11         1.9020    3.2880   -0.4600 c3        1 3KU     -0.114400
     12 C12         1.3310    4.6710   -0.1350 c3        1 3KU      0.123500
     13 C13         2.3470    5.4770    0.6780 c3        1 3KU     -0.095400
     14 C14         2.6660    4.7280    1.9590 c3        1 3KU     -0.078400
     15 C15         3.1650    3.3240    1.6860 c3        1 3KU     -0.089400
     16 C16         1.2750   -4.9340   -0.2110 c3        1 3KU     -0.072900
     17 C17         1.8200   -6.1240   -0.9730 c3        1 3KU     -0.076900
     18 C18         1.6460   -5.9520   -2.4670 c3        1 3KU     -0.077400
     19 C19         2.2670   -4.6550   -2.9450 c3        1 3KU     -0.076900
     20 C20         1.7160   -3.4680   -2.1820 c3        1 3KU     -0.072900
     21 N21        -1.0870   -0.0830    3.0870 n2        1 3KU     -0.798100
     22 N22         0.9350    5.3850   -1.4070 n4        1 3KU     -0.677800
     23 C23         0.0410    6.5840   -1.1710 c         1 3KU      0.566700
     24 C24         2.6870    1.1380    0.5410 c3        1 3KU     -0.094400
     25 C25        -2.1070    0.3950    0.4040 c3        1 3KU      0.086300
     26 O26        -0.8030    6.4740   -0.2940 o         1 3KU     -0.403100
     27 C27         0.2980    7.7510   -2.0270 ca        1 3KU     -0.158600
     28 C28         0.0090    9.0200   -1.5050 ca        1 3KU     -0.198800
     29 C29         0.2350   10.1420   -2.3300 ca        1 3KU      0.419700
     30 C30         0.7780    7.6410   -3.3400 ca        1 3KU     -0.198800
     31 C31         0.9610    8.8250   -4.0770 ca        1 3KU      0.419700
     32 N32         0.7030   10.0550   -3.5870 nb        1 3KU     -0.596000
     33 H1          3.2080   -1.4770    0.5430 hc        1 3KU      0.059700
     34 H2          2.4630   -1.0050   -1.0460 hc        1 3KU      0.059700
     35 H3          1.2010    2.4710    1.4160 hc        1 3KU      0.064700
     36 H4          0.3240   -2.2010   -0.3250 hc        1 3KU      0.051200
     37 H5          1.1880   -2.7650    1.1620 hc        1 3KU      0.051200
     38 H6          3.0220   -3.6920   -0.4750 hc        1 3KU      0.048700
     39 H7          2.8610    3.3920   -1.0330 hc        1 3KU      0.078700
     40 H8          1.1830    2.6920   -1.0850 hc        1 3KU      0.078700
     41 H9          0.3780    4.5520    0.4690 hx        1 3KU      0.126700
     42 H10         3.2890    5.6250    0.0860 hc        1 3KU      0.062700
     43 H11         1.9290    6.4870    0.9330 hc        1 3KU      0.062700
     44 H12         1.7500    4.6860    2.6060 hc        1 3KU      0.070200
     45 H13         3.4500    5.3010    2.5230 hc        1 3KU      0.070200
     46 H14         4.1540    3.3660    1.1590 hc        1 3KU      0.064200
     47 H15         3.3260    2.7960    2.6630 hc        1 3KU      0.064200
     48 H16         0.1640   -4.8700   -0.3540 hc        1 3KU      0.039450
     49 H17         1.4680   -5.0710    0.8840 hc        1 3KU      0.039450
     50 H18         1.2900   -7.0540   -0.6380 hc        1 3KU      0.042200
     51 H19         2.9090   -6.2520   -0.7360 hc        1 3KU      0.042200
     52 H20         2.1200   -6.8150   -3.0030 hc        1 3KU      0.043700
     53 H21         0.5530   -5.9580   -2.7200 hc        1 3KU      0.043700
     54 H22         2.0650   -4.5220   -4.0390 hc        1 3KU      0.042200
     55 H23         3.3800   -4.7030   -2.8110 hc        1 3KU      0.042200
     56 H24         0.6220   -3.3570   -2.4020 hc        1 3KU      0.039450
     57 H25         2.2250   -2.5320   -2.5310 hc        1 3KU      0.039450
     58 H26        -0.6750   -0.3640    3.9510 hn        1 3KU      0.421400
     59 H28         0.4310    4.7160   -2.0030 hn        1 3KU      0.460300
     60 H29         3.5370    0.8920    1.2330 hc        1 3KU      0.074700
     61 H30         3.0970    1.1050   -0.5040 hc        1 3KU      0.074700
     62 H31        -2.6930    1.1150    1.0340 h1        1 3KU      0.062033
     63 H32        -2.5180   -0.6380    0.5640 h1        1 3KU      0.062033
     64 H33        -2.2000    0.6700   -0.6800 h1        1 3KU      0.062033
     65 H34        -0.3900    9.1430   -0.4860 ha        1 3KU      0.161500
     66 H35         0.0230   11.1650   -1.9590 h4        1 3KU      0.060600
     67 H36         0.9810    6.6750   -3.8220 ha        1 3KU      0.161500
     68 H37         1.3320    8.7910   -5.1210 h4        1 3KU      0.060600
     69 H38         1.6780    0.2910    2.7280 hn        1 3KU      0.397800
     70 H222        1.7820    5.6870   -1.8980 hn        1 3KU      0.460300
@<TRIPOS>BOND
     1    1    2 1   
     2    1    5 1   
     3    1    6 2   
     4    2    3 1   
     5    2    7 1   
     6    2   24 1   
     7    3    4 1   
     8    3   69 1   
     9    4    5 1   
    10    4   21 2   
    11    5   25 1   
    12    7    9 1   
    13    7   33 1   
    14    7   34 1   
    15    8   11 1   
    16    8   15 1   
    17    8   24 1   
    18    8   35 1   
    19    9   10 1   
    20    9   36 1   
    21    9   37 1   
    22   10   16 1   
    23   10   20 1   
    24   10   38 1   
    25   11   12 1   
    26   11   39 1   
    27   11   40 1   
    28   12   13 1   
    29   12   22 1   
    30   12   41 1   
    31   13   14 1   
    32   13   42 1   
    33   13   43 1   
    34   14   15 1   
    35   14   44 1   
    36   14   45 1   
    37   15   46 1   
    38   15   47 1   
    39   16   17 1   
    40   16   48 1   
    41   16   49 1   
    42   17   18 1   
    43   17   50 1   
    44   17   51 1   
    45   18   19 1   
    46   18   52 1   
    47   18   53 1   
    48   19   20 1   
    49   19   54 1   
    50   19   55 1   
    51   20   56 1   
    52   20   57 1   
    53   21   58 1   
    54   22   23 1   
    55   22   59 1   
    56   22   70 1   
    57   23   26 2   
    58   23   27 1   
    59   24   60 1   
    60   24   61 1   
    61   25   62 1   
    62   25   63 1   
    63   25   64 1   
    64   27   28 ar  
    65   27   30 ar  
    66   28   29 ar  
    67   28   65 1   
    68   29   32 ar  
    69   29   66 1   
    70   30   31 ar  
    71   30   67 1   
    72   31   32 ar  
    73   31   68 1   
@<TRIPOS>SUBSTRUCTURE
     1 3KU         1 TEMP              0 ****  ****    0 ROOT
