@<TRIPOS>MOLECULE
3KV
   49    50     1     0     0
SMALL
bcc


@<TRIPOS>ATOM
      1 C4          0.7370   -0.2990   -0.2870 c3        1 3KV     -0.119000
      2 C5          1.6280    0.9070   -0.1940 cx        1 3KV     -0.070000
      3 C6          2.2760    1.2540    1.1500 cx        1 3KV     -0.102000
      4 C7          3.0710    0.7100    0.0400 cu        1 3KV     -0.176000
      5 C8          4.2250    0.3530   -0.4760 c2        1 3KV     -0.077000
      6 C10         6.4540    1.2800   -0.3510 c1        1 3KV     -0.234000
      7 C13         9.5200    2.3390   -1.7540 c3        1 3KV     -0.141000
      8 C15        11.6620    2.8340   -3.0310 c2        1 3KV      0.290000
      9 C20        10.2760    2.0470   -0.4720 c3        1 3KV     -0.208000
     10 O1         11.8410    2.0210   -3.9920 o         1 3KV     -0.578500
     11 O2         12.6050    3.3780   -2.3800 o         1 3KV     -0.578500
     12 C14        10.2630    3.1820   -2.6950 c1        1 3KV     -0.086000
     13 C12         8.1530    2.9610   -1.4520 c3        1 3KV     -0.055000
     14 C11         7.2330    2.0420   -0.8500 c1        1 3KV     -0.104000
     15 C9          5.5270    0.3690    0.2660 c3        1 3KV      0.049000
     16 C19         6.1010   -1.0410    0.3190 c3        1 3KV     -0.202000
     17 C18         1.1880    2.0340   -1.0730 c3        1 3KV     -0.179000
     18 C3          0.9750   -1.2690    0.8510 c3        1 3KV     -0.155000
     19 C2          0.8730   -0.5710    2.1880 c3        1 3KV     -0.144000
     20 C1          1.9750    0.4700    2.4090 c3        1 3KV     -0.019000
     21 C16         3.2420   -0.2140    2.9080 c3        1 3KV     -0.204000
     22 H1         -0.1270   -0.0650    2.2570 hc        1 3KV      0.075000
     23 H2         -0.3340    0.0370   -0.2740 hc        1 3KV      0.079500
     24 H5          2.4160    2.3370    1.3610 hc        1 3KV      0.122000
     25 H6          4.2910    0.0130   -1.5250 ha        1 3KV      0.134000
     26 H7          5.3440    0.7150    1.3290 hc        1 3KV      0.100000
     27 H8          2.3080    2.1620    3.7490 hc        1 3KV      0.074000
     28 H9          1.2180    0.8730    4.4110 hc        1 3KV      0.074000
     29 H10         0.6080    2.0110    3.1380 hc        1 3KV      0.074000
     30 H11        10.3540    2.9690    0.1530 hc        1 3KV      0.077333
     31 H12         9.7520    1.2600    0.1200 hc        1 3KV      0.077333
     32 H13        11.3120    1.7040   -0.7190 hc        1 3KV      0.077333
     33 H15         9.3520    1.3650   -2.3120 hc        1 3KV      0.125000
     34 H16         7.7160    3.3470   -2.4160 hc        1 3KV      0.105500
     35 H18         8.2950    3.8470   -0.7720 hc        1 3KV      0.105500
     36 H20         7.0710   -1.0370    0.8730 hc        1 3KV      0.077000
     37 H21         5.3880   -1.7220    0.8420 hc        1 3KV      0.077000
     38 H22         6.2820   -1.4310   -0.7100 hc        1 3KV      0.077000
     39 H23         1.1210    1.6900   -2.1340 hc        1 3KV      0.076667
     40 H24         1.9090    2.8860   -1.0230 hc        1 3KV      0.076667
     41 H25         0.1820    2.4000   -0.7540 hc        1 3KV      0.076667
     42 H26         0.9170   -0.8130   -1.2680 hc        1 3KV      0.079500
     43 H27         0.2170   -2.0940    0.8010 hc        1 3KV      0.080500
     44 H28         1.9910   -1.7340    0.7440 hc        1 3KV      0.080500
     45 H29         0.9210   -1.3300    3.0120 hc        1 3KV      0.075000
     46 H30         3.0290   -0.7940    3.8380 hc        1 3KV      0.074000
     47 H31         4.0260    0.5480    3.1350 hc        1 3KV      0.074000
     48 H32         3.6390   -0.9100    2.1300 hc        1 3KV      0.074000
     49 C17         1.4980    1.4380    3.4910 c3        1 3KV     -0.204000
@<TRIPOS>BOND
     1    1    2 1   
     2    1   18 1   
     3    1   23 1   
     4    1   42 1   
     5    2    3 1   
     6    2    4 1   
     7    2   17 1   
     8    3    4 1   
     9    3   20 1   
    10    3   24 1   
    11    4    5 1   
    12    5   15 1   
    13    5   25 1   
    14    6   14 1   
    15    6   15 1   
    16    7    9 1   
    17    7   12 1   
    18    7   13 1   
    19    7   33 1   
    20    8   10 1   
    21    8   11 1   
    22    8   12 1   
    23    9   30 1   
    24    9   31 1   
    25    9   32 1   
    26   13   14 1   
    27   13   34 1   
    28   13   35 1   
    29   15   16 1   
    30   15   26 1   
    31   16   36 1   
    32   16   37 1   
    33   16   38 1   
    34   17   39 1   
    35   17   40 1   
    36   17   41 1   
    37   18   19 1   
    38   18   43 1   
    39   18   44 1   
    40   19   20 1   
    41   19   22 1   
    42   19   45 1   
    43   20   21 1   
    44   20   49 1   
    45   21   46 1   
    46   21   47 1   
    47   21   48 1   
    48   27   49 1   
    49   28   49 1   
    50   29   49 1   
@<TRIPOS>SUBSTRUCTURE
     1 3KV         1 TEMP              0 ****  ****    0 ROOT
