@<TRIPOS>MOLECULE
3KW
   73    77     1     0     0
SMALL
bcc


@<TRIPOS>ATOM
      1 C1         -0.0570    0.0350   -0.1510 c         1 3KW      0.693500
      2 C2          1.4590   -0.0190    0.2130 c3        1 3KW      0.113200
      3 N3          1.4880    0.0280    1.6910 nh        1 3KW     -0.799200
      4 C4          0.1070    0.0150    2.1730 c2        1 3KW      0.611800
      5 N5         -0.7870    0.0030    1.0470 n         1 3KW     -0.411300
      6 O6         -0.5460    0.0760   -1.2830 o         1 3KW     -0.587500
      7 C7          2.0720   -1.2910   -0.3980 c3        1 3KW     -0.095400
      8 C8          1.7280    2.5520    0.0830 c3        1 3KW     -0.053700
      9 C9          1.4460   -2.5770    0.0950 c3        1 3KW     -0.084400
     10 C10         1.9950   -3.7890   -0.6450 c3        1 3KW     -0.060700
     11 C11         1.5950    3.5240   -1.0840 c3        1 3KW     -0.078400
     12 C12         1.1170    4.8980   -0.5830 c3        1 3KW      0.188500
     13 C13         2.1270    5.4380    0.4440 c3        1 3KW     -0.111400
     14 C14         2.2820    4.4680    1.5940 c3        1 3KW     -0.074400
     15 C15         2.7110    3.0990    1.1100 c3        1 3KW     -0.075400
     16 C16         1.7440   -5.0530    0.1670 c3        1 3KW     -0.073900
     17 C17         2.2610   -6.2810   -0.5520 c3        1 3KW     -0.076400
     18 C18         1.6600   -6.4070   -1.9360 c3        1 3KW     -0.077400
     19 C19         1.8920   -5.1490   -2.7480 c3        1 3KW     -0.076400
     20 C20         1.3700   -3.9230   -2.0270 c3        1 3KW     -0.073900
     21 N21        -0.3180    0.0700    3.3990 n2        1 3KW     -0.826100
     22 N22         0.8750    5.7930   -1.7100 nh        1 3KW     -0.810900
     23 C23         2.1700    1.1880   -0.4290 c3        1 3KW     -0.058400
     24 C24        -2.1970    0.1950    1.1690 c3        1 3KW      0.100300
     25 C25         0.1480    6.9810   -1.4280 ca        1 3KW      0.626200
     26 C26        -1.1800    6.8570   -0.8560 ca        1 3KW     -0.247300
     27 C27        -1.9350    7.9840   -0.6790 ca        1 3KW     -0.070000
     28 N28         0.6650    8.1720   -1.7820 nb        1 3KW     -0.726000
     29 C29        -0.1060    9.2990   -1.6170 ca        1 3KW      0.429600
     30 C30        -1.4190    9.2560   -1.0570 ca        1 3KW     -0.171300
     31 C31        -2.1610   10.4520   -0.8990 ca        1 3KW     -0.101000
     32 C32        -1.6260   11.6580   -1.2810 ca        1 3KW     -0.140000
     33 C33        -0.3260   11.7140   -1.8380 ca        1 3KW     -0.118000
     34 C34         0.4210   10.5760   -2.0070 ca        1 3KW     -0.176300
     35 H1          3.1730   -1.3000   -0.1820 hc        1 3KW      0.065200
     36 H2          1.9420   -1.2180   -1.5120 hc        1 3KW      0.065200
     37 H3          0.7180    2.4580    0.5740 hc        1 3KW      0.055700
     38 H4          1.6480   -2.7060    1.1920 hc        1 3KW      0.044700
     39 H5          0.3320   -2.5330   -0.0370 hc        1 3KW      0.044700
     40 H6          3.1080   -3.6640   -0.7690 hc        1 3KW      0.047700
     41 H7          0.8610    3.1170   -1.8270 hc        1 3KW      0.053200
     42 H8          2.5850    3.6280   -1.5990 hc        1 3KW      0.053200
     43 H9          0.1310    4.7450   -0.0500 h1        1 3KW      0.062700
     44 H10         3.1200    5.5980   -0.0510 hc        1 3KW      0.048200
     45 H11         1.7770    6.4300    0.8320 hc        1 3KW      0.048200
     46 H12         3.0450    4.8650    2.3140 hc        1 3KW      0.043200
     47 H13         1.3110    4.3830    2.1490 hc        1 3KW      0.043200
     48 H14         2.7790    2.3970    1.9800 hc        1 3KW      0.046700
     49 H15         3.7310    3.1690    0.6480 hc        1 3KW      0.046700
     50 H16         2.2480   -4.9650    1.1650 hc        1 3KW      0.042200
     51 H17         0.6430   -5.1600    0.3530 hc        1 3KW      0.042200
     52 H18         2.0160   -7.1960    0.0490 hc        1 3KW      0.039950
     53 H19         3.3790   -6.2230   -0.6340 hc        1 3KW      0.039950
     54 H20         2.1130   -7.2850   -2.4650 hc        1 3KW      0.040200
     55 H21         0.5580   -6.5970   -1.8490 hc        1 3KW      0.040200
     56 H22         2.9890   -5.0290   -2.9450 hc        1 3KW      0.039950
     57 H23         1.3790   -5.2430   -3.7410 hc        1 3KW      0.039950
     58 H24         1.5950   -3.0090   -2.6350 hc        1 3KW      0.042200
     59 H25         0.2550   -3.9940   -1.9260 hc        1 3KW      0.042200
     60 H26         0.3960    0.0670    4.0960 hn        1 3KW      0.406400
     61 H28         1.7250    5.9680   -2.2170 hn        1 3KW      0.395800
     62 H29         1.9670    1.1160   -1.5330 hc        1 3KW      0.059700
     63 H30         3.2740    1.0670   -0.2760 hc        1 3KW      0.059700
     64 H31        -2.6530    0.1660    0.1430 h1        1 3KW      0.055700
     65 H32        -2.4240    1.1830    1.6540 h1        1 3KW      0.055700
     66 H33        -2.6350   -0.6230    1.8020 h1        1 3KW      0.055700
     67 H34        -1.5720    5.8650   -0.5930 ha        1 3KW      0.149000
     68 H35        -2.9480    7.9260   -0.2520 ha        1 3KW      0.138000
     69 H36        -3.1710   10.3930   -0.4660 ha        1 3KW      0.132000
     70 H37        -2.1970   12.5900   -1.1610 ha        1 3KW      0.133000
     71 H38         0.0810   12.6910   -2.1380 ha        1 3KW      0.133000
     72 H39         1.4320   10.6240   -2.4420 ha        1 3KW      0.148000
     73 H40         2.0370   -0.7090    2.0870 hn        1 3KW      0.395800
@<TRIPOS>BOND
     1    1    2 1   
     2    1    5 1   
     3    1    6 2   
     4    2    3 1   
     5    2    7 1   
     6    2   23 1   
     7    3    4 1   
     8    3   73 1   
     9    4    5 1   
    10    4   21 2   
    11    5   24 1   
    12    7    9 1   
    13    7   35 1   
    14    7   36 1   
    15    8   11 1   
    16    8   15 1   
    17    8   23 1   
    18    8   37 1   
    19    9   10 1   
    20    9   38 1   
    21    9   39 1   
    22   10   16 1   
    23   10   20 1   
    24   10   40 1   
    25   11   12 1   
    26   11   41 1   
    27   11   42 1   
    28   12   13 1   
    29   12   22 1   
    30   12   43 1   
    31   13   14 1   
    32   13   44 1   
    33   13   45 1   
    34   14   15 1   
    35   14   46 1   
    36   14   47 1   
    37   15   48 1   
    38   15   49 1   
    39   16   17 1   
    40   16   50 1   
    41   16   51 1   
    42   17   18 1   
    43   17   52 1   
    44   17   53 1   
    45   18   19 1   
    46   18   54 1   
    47   18   55 1   
    48   19   20 1   
    49   19   56 1   
    50   19   57 1   
    51   20   58 1   
    52   20   59 1   
    53   21   60 1   
    54   22   25 1   
    55   22   61 1   
    56   23   62 1   
    57   23   63 1   
    58   24   64 1   
    59   24   65 1   
    60   24   66 1   
    61   25   26 ar  
    62   25   28 ar  
    63   26   27 ar  
    64   26   67 1   
    65   27   30 ar  
    66   27   68 1   
    67   28   29 ar  
    68   29   30 ar  
    69   29   34 ar  
    70   30   31 ar  
    71   31   32 ar  
    72   31   69 1   
    73   32   33 ar  
    74   32   70 1   
    75   33   34 ar  
    76   33   71 1   
    77   34   72 1   
@<TRIPOS>SUBSTRUCTURE
     1 3KW         1 TEMP              0 ****  ****    0 ROOT
