@<TRIPOS>MOLECULE
3KW
   73    77     1     0     0
SMALL
bcc


@<TRIPOS>ATOM
      1 C1         -0.0150    0.0860   -0.2510 c         1 3KW      0.692500
      2 C2          1.4760   -0.0000    0.1970 c3        1 3KW      0.112200
      3 N3          1.4220   -0.0090    1.6760 nh        1 3KW     -0.797200
      4 C4          0.0230    0.1410    2.0780 c2        1 3KW      0.609800
      5 N5         -0.8040    0.2150    0.9020 n         1 3KW     -0.410300
      6 O6         -0.4420    0.0700   -1.4080 o         1 3KW     -0.586500
      7 C7          2.0860   -1.2990   -0.3650 c3        1 3KW     -0.058400
      8 C8          1.8530    2.5550    0.0890 c3        1 3KW     -0.071700
      9 C9          1.3850   -2.5570    0.0980 c3        1 3KW     -0.077400
     10 C10         1.9490   -3.7960   -0.5840 c3        1 3KW     -0.062700
     11 C11         1.6150    3.4940   -1.0890 c3        1 3KW     -0.074400
     12 C12         1.1700    4.8790   -0.5860 c3        1 3KW      0.186500
     13 C13         2.2600    5.4530    0.3360 c3        1 3KW     -0.112400
     14 C14         2.5230    4.5160    1.4940 c3        1 3KW     -0.075400
     15 C15         2.9200    3.1380    1.0080 c3        1 3KW     -0.077400
     16 C16         1.5890   -5.0390    0.2200 c3        1 3KW     -0.074400
     17 C17         2.1180   -6.2950   -0.4400 c3        1 3KW     -0.076400
     18 C18         1.6250   -6.4200   -1.8670 c3        1 3KW     -0.076400
     19 C19         1.9660   -5.1830   -2.6720 c3        1 3KW     -0.076400
     20 C20         1.4320   -3.9300   -2.0100 c3        1 3KW     -0.074400
     21 N21        -0.4710    0.1520    3.2790 n2        1 3KW     -0.825100
     22 N22         0.8260    5.7410   -1.7130 nh        1 3KW     -0.809900
     23 C23         2.2560    1.1760   -0.4160 c3        1 3KW     -0.093400
     24 C24        -2.2290    0.1240    0.9480 c3        1 3KW      0.099300
     25 C25         0.1020    6.9240   -1.3970 ca        1 3KW      0.623200
     26 C26        -1.1880    6.7870   -0.7470 ca        1 3KW     -0.247300
     27 C27        -1.9450    7.9050   -0.5330 ca        1 3KW     -0.070000
     28 N28         0.5830    8.1180   -1.7870 nb        1 3KW     -0.723000
     29 C29        -0.1910    9.2380   -1.5830 ca        1 3KW      0.427600
     30 C30        -1.4680    9.1810   -0.9470 ca        1 3KW     -0.170300
     31 C31        -2.2150   10.3690   -0.7520 ca        1 3KW     -0.102000
     32 C32        -1.7180   11.5790   -1.1710 ca        1 3KW     -0.138000
     33 C33        -0.4540   11.6470   -1.8030 ca        1 3KW     -0.117000
     34 C34         0.2960   10.5180   -2.0100 ca        1 3KW     -0.176300
     35 H1          3.1680   -1.3430   -0.0710 hc        1 3KW      0.057200
     36 H2          2.0320   -1.2260   -1.4840 hc        1 3KW      0.057200
     37 H3          0.8880    2.4840    0.6660 hc        1 3KW      0.053700
     38 H4          0.2860   -2.4790   -0.1180 hc        1 3KW      0.050700
     39 H5          1.5030   -2.6670    1.2080 hc        1 3KW      0.050700
     40 H6          3.0720   -3.7120   -0.6190 hc        1 3KW      0.045700
     41 H7          2.5560    3.5900   -1.6890 hc        1 3KW      0.057700
     42 H8          0.8230    3.0610   -1.7550 hc        1 3KW      0.057700
     43 H9          0.2330    4.7370    0.0320 h1        1 3KW      0.063700
     44 H10         1.9350    6.4520    0.7280 hc        1 3KW      0.051200
     45 H11         3.2050    5.6080   -0.2470 hc        1 3KW      0.051200
     46 H12         1.6040    4.4400    2.1330 hc        1 3KW      0.044700
     47 H13         3.3430    4.9360    2.1330 hc        1 3KW      0.044700
     48 H14         3.0820    2.4640    1.8880 hc        1 3KW      0.039700
     49 H15         3.8930    3.2020    0.4530 hc        1 3KW      0.039700
     50 H16         0.4740   -5.1060    0.3190 hc        1 3KW      0.041450
     51 H17         2.0160   -4.9530    1.2540 hc        1 3KW      0.041450
     52 H18         1.7940   -7.1920    0.1490 hc        1 3KW      0.038450
     53 H19         3.2400   -6.2770   -0.4340 hc        1 3KW      0.038450
     54 H20         0.5130   -6.5710   -1.8660 hc        1 3KW      0.038700
     55 H21         2.0870   -7.3210   -2.3470 hc        1 3KW      0.038700
     56 H22         3.0790   -5.1040   -2.7820 hc        1 3KW      0.038450
     57 H23         1.5320   -5.2740   -3.7020 hc        1 3KW      0.038450
     58 H24         1.7380   -3.0330   -2.6080 hc        1 3KW      0.041450
     59 H25         0.3110   -3.9600   -1.9980 hc        1 3KW      0.041450
     60 H26         0.2010    0.1030    4.0140 hn        1 3KW      0.406400
     61 H28         1.6330    5.9210   -2.2850 hn        1 3KW      0.395800
     62 H29         2.0960    1.1170   -1.5280 hc        1 3KW      0.068200
     63 H30         3.3500    1.0080   -0.2280 hc        1 3KW      0.068200
     64 H31        -2.5520   -0.8420    1.4220 h1        1 3KW      0.055367
     65 H32        -2.6400    0.9750    1.5540 h1        1 3KW      0.055367
     66 H33        -2.6240    0.1800   -0.1010 h1        1 3KW      0.055367
     67 H34        -1.5510    5.7900   -0.4580 ha        1 3KW      0.149000
     68 H35        -2.9310    7.8380   -0.0470 ha        1 3KW      0.139000
     69 H36        -3.1970   10.3000   -0.2600 ha        1 3KW      0.132000
     70 H37        -2.2940   12.5040   -1.0230 ha        1 3KW      0.134000
     71 H38        -0.0780   12.6280   -2.1320 ha        1 3KW      0.134000
     72 H39         1.2790   10.5760   -2.5040 ha        1 3KW      0.148000
     73 H40         2.0100    0.6910    2.0830 hn        1 3KW      0.395800
@<TRIPOS>BOND
     1    1    2 1   
     2    1    5 1   
     3    1    6 2   
     4    2    3 1   
     5    2    7 1   
     6    2   23 1   
     7    3    4 1   
     8    3   73 1   
     9    4    5 1   
    10    4   21 2   
    11    5   24 1   
    12    7    9 1   
    13    7   35 1   
    14    7   36 1   
    15    8   11 1   
    16    8   15 1   
    17    8   23 1   
    18    8   37 1   
    19    9   10 1   
    20    9   38 1   
    21    9   39 1   
    22   10   16 1   
    23   10   20 1   
    24   10   40 1   
    25   11   12 1   
    26   11   41 1   
    27   11   42 1   
    28   12   13 1   
    29   12   22 1   
    30   12   43 1   
    31   13   14 1   
    32   13   44 1   
    33   13   45 1   
    34   14   15 1   
    35   14   46 1   
    36   14   47 1   
    37   15   48 1   
    38   15   49 1   
    39   16   17 1   
    40   16   50 1   
    41   16   51 1   
    42   17   18 1   
    43   17   52 1   
    44   17   53 1   
    45   18   19 1   
    46   18   54 1   
    47   18   55 1   
    48   19   20 1   
    49   19   56 1   
    50   19   57 1   
    51   20   58 1   
    52   20   59 1   
    53   21   60 1   
    54   22   25 1   
    55   22   61 1   
    56   23   62 1   
    57   23   63 1   
    58   24   64 1   
    59   24   65 1   
    60   24   66 1   
    61   25   26 ar  
    62   25   28 ar  
    63   26   27 ar  
    64   26   67 1   
    65   27   30 ar  
    66   27   68 1   
    67   28   29 ar  
    68   29   30 ar  
    69   29   34 ar  
    70   30   31 ar  
    71   31   32 ar  
    72   31   69 1   
    73   32   33 ar  
    74   32   70 1   
    75   33   34 ar  
    76   33   71 1   
    77   34   72 1   
@<TRIPOS>SUBSTRUCTURE
     1 3KW         1 TEMP              0 ****  ****    0 ROOT
