@<TRIPOS>MOLECULE
3KW
   73    77     1     0     0
SMALL
bcc


@<TRIPOS>ATOM
      1 C1         -0.0560    0.0350   -0.1440 c         1 3KW      0.693500
      2 C2          1.4620   -0.0180    0.2120 c3        1 3KW      0.113200
      3 N3          1.4980    0.0300    1.6900 nu        1 3KW     -0.799200
      4 C4          0.1210    0.0180    2.1790 c2        1 3KW      0.611800
      5 N5         -0.7800    0.0050    1.0580 n         1 3KW     -0.411300
      6 O6         -0.5510    0.0750   -1.2730 o         1 3KW     -0.587500
      7 C7          2.0710   -1.2910   -0.4010 c3        1 3KW     -0.095400
      8 C8          1.7300    2.5520    0.0780 c3        1 3KW     -0.053700
      9 C9          1.4480   -2.5760    0.0970 c3        1 3KW     -0.084400
     10 C10         1.9930   -3.7890   -0.6440 c3        1 3KW     -0.060700
     11 C11         1.5910    3.5230   -1.0890 c3        1 3KW     -0.078400
     12 C12         1.1160    4.8970   -0.5880 c3        1 3KW      0.188500
     13 C13         2.1310    5.4390    0.4330 c3        1 3KW     -0.111400
     14 C14         2.2930    4.4700    1.5840 c3        1 3KW     -0.074400
     15 C15         2.7190    3.1010    1.0980 c3        1 3KW     -0.075400
     16 C16         1.7440   -5.0520    0.1710 c3        1 3KW     -0.073900
     17 C17         2.2580   -6.2820   -0.5490 c3        1 3KW     -0.076400
     18 C18         1.6500   -6.4080   -1.9310 c3        1 3KW     -0.077400
     19 C19         1.8780   -5.1520   -2.7450 c3        1 3KW     -0.076400
     20 C20         1.3610   -3.9250   -2.0230 c3        1 3KW     -0.073900
     21 N21        -0.2980    0.0750    3.4080 n2        1 3KW     -0.826100
     22 N22         0.8680    5.7910   -1.7150 nu        1 3KW     -0.810900
     23 C23         2.1690    1.1870   -0.4350 c3        1 3KW     -0.058400
     24 C24        -2.1890    0.1980    1.1870 c3        1 3KW      0.100300
     25 C25         0.1420    6.9800   -1.4300 ca        1 3KW      0.626200
     26 C26        -1.1820    6.8580   -0.8480 ca        1 3KW     -0.247300
     27 C27        -1.9340    7.9850   -0.6690 ca        1 3KW     -0.070000
     28 N28         0.6580    8.1700   -1.7900 nb        1 3KW     -0.726000
     29 C29        -0.1110    9.2980   -1.6220 ca        1 3KW      0.429600
     30 C30        -1.4200    9.2560   -1.0530 ca        1 3KW     -0.171300
     31 C31        -2.1610   10.4530   -0.8920 ca        1 3KW     -0.101000
     32 C32        -1.6280   11.6570   -1.2810 ca        1 3KW     -0.140000
     33 C33        -0.3320   11.7120   -1.8460 ca        1 3KW     -0.118000
     34 C34         0.4130   10.5730   -2.0180 ca        1 3KW     -0.176300
     35 H1          3.1730   -1.3000   -0.1900 hc        1 3KW      0.065200
     36 H2          1.9370   -1.2200   -1.5140 hc        1 3KW      0.065200
     37 H3          0.7240    2.4590    0.5740 hc        1 3KW      0.055700
     38 H4          1.6550   -2.7040    1.1930 hc        1 3KW      0.044700
     39 H5          0.3330   -2.5320   -0.0290 hc        1 3KW      0.044700
     40 H6          3.1050   -3.6660   -0.7730 hc        1 3KW      0.047700
     41 H7          0.8530    3.1150   -1.8280 hc        1 3KW      0.053200
     42 H8          2.5780    3.6270   -1.6110 hc        1 3KW      0.053200
     43 H9          0.1330    4.7450   -0.0490 h1        1 3KW      0.062700
     44 H10         3.1220    5.5980   -0.0680 hc        1 3KW      0.048200
     45 H11         1.7840    6.4310    0.8220 hc        1 3KW      0.048200
     46 H12         1.3250    4.3860    2.1440 hc        1 3KW      0.043200
     47 H13         3.0610    4.8680    2.2980 hc        1 3KW      0.043200
     48 H14         2.7930    2.4000    1.9690 hc        1 3KW      0.046700
     49 H15         3.7370    3.1700    0.6310 hc        1 3KW      0.046700
     50 H16         0.6440   -5.1590    0.3620 hc        1 3KW      0.042200
     51 H17         2.2540   -4.9640    1.1650 hc        1 3KW      0.042200
     52 H18         2.0140   -7.1960    0.0530 hc        1 3KW      0.039950
     53 H19         3.3750   -6.2240   -0.6370 hc        1 3KW      0.039950
     54 H20         0.5480   -6.5980   -1.8380 hc        1 3KW      0.040200
     55 H21         2.1000   -7.2880   -2.4610 hc        1 3KW      0.040200
     56 H22         1.3610   -5.2460   -3.7360 hc        1 3KW      0.039950
     57 H23         2.9750   -5.0320   -2.9480 hc        1 3KW      0.039950
     58 H24         0.2460   -3.9950   -1.9170 hc        1 3KW      0.042200
     59 H25         1.5840   -3.0110   -2.6330 hc        1 3KW      0.042200
     60 H26         0.4190    0.0720    4.1010 hn        1 3KW      0.406400
     61 H28         1.7140    5.9650   -2.2270 hn        1 3KW      0.395800
     62 H29         3.2750    1.0670   -0.2880 hc        1 3KW      0.059700
     63 H30         1.9610    1.1140   -1.5380 hc        1 3KW      0.059700
     64 H31        -2.4130    1.1860    1.6710 h1        1 3KW      0.055700
     65 H32        -2.6240   -0.6190    1.8240 h1        1 3KW      0.055700
     66 H33        -2.6500    0.1670    0.1640 h1        1 3KW      0.055700
     67 H34        -1.5720    5.8660   -0.5810 ha        1 3KW      0.149000
     68 H35        -2.9450    7.9290   -0.2350 ha        1 3KW      0.138000
     69 H36        -3.1680   10.3950   -0.4520 ha        1 3KW      0.132000
     70 H37        -2.1990   12.5900   -1.1590 ha        1 3KW      0.133000
     71 H38         0.0730   12.6890   -2.1510 ha        1 3KW      0.133000
     72 H39         1.4210   10.6200   -2.4600 ha        1 3KW      0.148000
     73 H40         2.0490   -0.7070    2.0840 hn        1 3KW      0.395800
@<TRIPOS>BOND
     1    1    2 1   
     2    1    5 1   
     3    1    6 2   
     4    2    3 1   
     5    2    7 1   
     6    2   23 1   
     7    3    4 1   
     8    3   73 1   
     9    4    5 1   
    10    4   21 2   
    11    5   24 1   
    12    7    9 1   
    13    7   35 1   
    14    7   36 1   
    15    8   11 1   
    16    8   15 1   
    17    8   23 1   
    18    8   37 1   
    19    9   10 1   
    20    9   38 1   
    21    9   39 1   
    22   10   16 1   
    23   10   20 1   
    24   10   40 1   
    25   11   12 1   
    26   11   41 1   
    27   11   42 1   
    28   12   13 1   
    29   12   22 1   
    30   12   43 1   
    31   13   14 1   
    32   13   44 1   
    33   13   45 1   
    34   14   15 1   
    35   14   46 1   
    36   14   47 1   
    37   15   48 1   
    38   15   49 1   
    39   16   17 1   
    40   16   50 1   
    41   16   51 1   
    42   17   18 1   
    43   17   52 1   
    44   17   53 1   
    45   18   19 1   
    46   18   54 1   
    47   18   55 1   
    48   19   20 1   
    49   19   56 1   
    50   19   57 1   
    51   20   58 1   
    52   20   59 1   
    53   21   60 1   
    54   22   25 1   
    55   22   61 1   
    56   23   62 1   
    57   23   63 1   
    58   24   64 1   
    59   24   65 1   
    60   24   66 1   
    61   25   26 ar  
    62   25   28 ar  
    63   26   27 ar  
    64   26   67 1   
    65   27   30 ar  
    66   27   68 1   
    67   28   29 ar  
    68   29   30 ar  
    69   29   34 ar  
    70   30   31 ar  
    71   31   32 ar  
    72   31   69 1   
    73   32   33 ar  
    74   32   70 1   
    75   33   34 ar  
    76   33   71 1   
    77   34   72 1   
@<TRIPOS>SUBSTRUCTURE
     1 3KW         1 TEMP              0 ****  ****    0 ROOT
