@<TRIPOS>MOLECULE
3KX
   42    44     1     0     0
SMALL
bcc


@<TRIPOS>ATOM
      1 O          -0.1350    0.4280    0.0580 o         1 3KX     -0.638500
      2 C           1.0940    0.2280    0.1230 c         1 3KX      0.706700
      3 C11         1.8840    0.0440    1.3450 cc        1 3KX     -0.188400
      4 C12         1.1920    0.0800    2.6270 ca        1 3KX     -0.022800
      5 C17         0.1480    0.9900    2.8530 ca        1 3KX     -0.104500
      6 C16        -0.5020    1.0250    4.0840 ca        1 3KX     -0.138000
      7 C15        -0.1240    0.1540    5.1050 ca        1 3KX     -0.128000
      8 C14         0.9090   -0.7570    4.8880 ca        1 3KX     -0.138000
      9 C13         1.5630   -0.7960    3.6590 ca        1 3KX     -0.104500
     10 C10         3.2450   -0.1580    1.2190 cd        1 3KX      0.210100
     11 O1          3.9980   -0.3380    2.3520 oh        1 3KX     -0.480100
     12 C9          3.8860   -0.1880   -0.0630 cd        1 3KX     -0.319000
     13 C1          3.1330   -0.0230   -1.2040 cc        1 3KX      0.103400
     14 N           1.7760    0.1780   -1.1150 n         1 3KX     -0.443100
     15 C2          3.7920   -0.0500   -2.5550 c3        1 3KX     -0.057200
     16 C3          3.9720   -1.4710   -3.0750 c3        1 3KX     -0.062700
     17 C8          2.6540   -2.0580   -3.5580 c3        1 3KX     -0.075900
     18 C7          2.8480   -3.4520   -4.1190 c3        1 3KX     -0.076400
     19 C6          3.8760   -3.4620   -5.2310 c3        1 3KX     -0.078400
     20 C5          5.1890   -2.8650   -4.7660 c3        1 3KX     -0.076400
     21 C4          4.9950   -1.4720   -4.2050 c3        1 3KX     -0.075900
     22 H1         -0.1700    1.6670    2.0440 ha        1 3KX      0.143000
     23 H2         -1.3200    1.7430    4.2480 ha        1 3KX      0.128000
     24 H3         -0.6400    0.1830    6.0760 ha        1 3KX      0.127000
     25 H4          1.2100   -1.4490    5.6880 ha        1 3KX      0.128000
     26 H5          2.3830   -1.5130    3.4970 ha        1 3KX      0.143000
     27 H6          4.9320   -0.3690    2.0920 ho        1 3KX      0.423000
     28 H7          4.9700   -0.3450   -0.1280 ha        1 3KX      0.150000
     29 H8          1.2370    0.2790   -1.9490 hn        1 3KX      0.333500
     30 H9          4.8000    0.4370   -2.4540 hc        1 3KX      0.064200
     31 H10         3.2080    0.5510   -3.3030 hc        1 3KX      0.064200
     32 H11         4.3660   -2.1140   -2.2370 hc        1 3KX      0.059700
     33 H12         2.2160   -1.3940   -4.3490 hc        1 3KX      0.041950
     34 H13         1.9250   -2.1000   -2.7070 hc        1 3KX      0.041950
     35 H14         1.8690   -3.8350   -4.5080 hc        1 3KX      0.043200
     36 H15         3.1780   -4.1420   -3.2980 hc        1 3KX      0.043200
     37 H16         4.0440   -4.5140   -5.5790 hc        1 3KX      0.042200
     38 H17         3.4880   -2.8750   -6.1050 hc        1 3KX      0.042200
     39 H18         5.9080   -2.8230   -5.6260 hc        1 3KX      0.043200
     40 H19         5.6410   -3.5260   -3.9800 hc        1 3KX      0.043200
     41 H20         4.6490   -0.7830   -5.0190 hc        1 3KX      0.041950
     42 H21         5.9750   -1.0830   -3.8240 hc        1 3KX      0.041950
@<TRIPOS>BOND
     1    1    2 2   
     2    2    3 1   
     3    2   14 1   
     4    3    4 1   
     5    3   10 2   
     6    4    5 ar  
     7    4    9 ar  
     8    5    6 ar  
     9    5   22 1   
    10    6    7 ar  
    11    6   23 1   
    12    7    8 ar  
    13    7   24 1   
    14    8    9 ar  
    15    8   25 1   
    16    9   26 1   
    17   10   11 1   
    18   10   12 1   
    19   11   27 1   
    20   12   13 2   
    21   12   28 1   
    22   13   14 1   
    23   13   15 1   
    24   14   29 1   
    25   15   16 1   
    26   15   30 1   
    27   15   31 1   
    28   16   17 1   
    29   16   21 1   
    30   16   32 1   
    31   17   18 1   
    32   17   33 1   
    33   17   34 1   
    34   18   19 1   
    35   18   35 1   
    36   18   36 1   
    37   19   20 1   
    38   19   37 1   
    39   19   38 1   
    40   20   21 1   
    41   20   39 1   
    42   20   40 1   
    43   21   41 1   
    44   21   42 1   
@<TRIPOS>SUBSTRUCTURE
     1 3KX         1 TEMP              0 ****  ****    0 ROOT
