@<TRIPOS>MOLECULE
3KX
   42    44     1     0     0
SMALL
bcc


@<TRIPOS>ATOM
      1 O          -0.1390    0.4130    0.0610 o         1 3KX     -0.638500
      2 C           1.0910    0.2200    0.1260 c         1 3KX      0.706700
      3 C11         1.8840    0.0410    1.3460 cc        1 3KX     -0.188400
      4 C12         1.1930    0.0750    2.6290 ca        1 3KX     -0.022800
      5 C17         0.1440    0.9800    2.8550 ca        1 3KX     -0.104500
      6 C16        -0.5050    1.0130    4.0870 ca        1 3KX     -0.138000
      7 C15        -0.1210    0.1450    5.1090 ca        1 3KX     -0.128000
      8 C14         0.9170   -0.7600    4.8920 ca        1 3KX     -0.138000
      9 C13         1.5700   -0.7970    3.6620 ca        1 3KX     -0.104500
     10 C10         3.2450   -0.1540    1.2190 cd        1 3KX      0.210100
     11 O1          4.0010   -0.3290    2.3510 oh        1 3KX     -0.480100
     12 C9          3.8850   -0.1820   -0.0630 cd        1 3KX     -0.319000
     13 C1          3.1300   -0.0230   -1.2040 cc        1 3KX      0.103400
     14 N           1.7720    0.1720   -1.1130 ns        1 3KX     -0.443100
     15 C2          3.7870   -0.0480   -2.5550 c3        1 3KX     -0.057200
     16 C3          3.9700   -1.4680   -3.0760 c3        1 3KX     -0.062700
     17 C8          2.6530   -2.0570   -3.5610 c3        1 3KX     -0.075900
     18 C7          2.8500   -3.4500   -4.1230 c3        1 3KX     -0.076400
     19 C6          3.8790   -3.4570   -5.2340 c3        1 3KX     -0.078400
     20 C5          5.1900   -2.8590   -4.7680 c3        1 3KX     -0.076400
     21 C4          4.9940   -1.4670   -4.2050 c3        1 3KX     -0.075900
     22 H1         -0.1790    1.6530    2.0460 ha        1 3KX      0.143000
     23 H2         -1.3260    1.7260    4.2510 ha        1 3KX      0.128000
     24 H3         -0.6360    0.1730    6.0800 ha        1 3KX      0.127000
     25 H4          1.2230   -1.4490    5.6930 ha        1 3KX      0.128000
     26 H5          2.3930   -1.5100    3.5010 ha        1 3KX      0.143000
     27 H6          4.9340   -0.3550    2.0910 ho        1 3KX      0.423000
     28 H7          4.9690   -0.3330   -0.1300 ha        1 3KX      0.150000
     29 H8          1.2320    0.2680   -1.9470 hn        1 3KX      0.333500
     30 H9          4.7940    0.4410   -2.4550 hc        1 3KX      0.064200
     31 H10         3.2020    0.5530   -3.3020 hc        1 3KX      0.064200
     32 H11         4.3640   -2.1110   -2.2390 hc        1 3KX      0.059700
     33 H12         2.2150   -1.3920   -4.3520 hc        1 3KX      0.041950
     34 H13         1.9240   -2.1000   -2.7110 hc        1 3KX      0.041950
     35 H14         3.1800   -4.1400   -3.3030 hc        1 3KX      0.043200
     36 H15         1.8720   -3.8340   -4.5130 hc        1 3KX      0.043200
     37 H16         3.4900   -2.8700   -6.1080 hc        1 3KX      0.042200
     38 H17         4.0480   -4.5090   -5.5830 hc        1 3KX      0.042200
     39 H18         5.6430   -3.5200   -3.9820 hc        1 3KX      0.043200
     40 H19         5.9100   -2.8150   -5.6260 hc        1 3KX      0.043200
     41 H20         4.6480   -0.7770   -5.0190 hc        1 3KX      0.041950
     42 H21         5.9730   -1.0770   -3.8240 hc        1 3KX      0.041950
@<TRIPOS>BOND
     1    1    2 2   
     2    2    3 1   
     3    2   14 1   
     4    3    4 1   
     5    3   10 2   
     6    4    5 ar  
     7    4    9 ar  
     8    5    6 ar  
     9    5   22 1   
    10    6    7 ar  
    11    6   23 1   
    12    7    8 ar  
    13    7   24 1   
    14    8    9 ar  
    15    8   25 1   
    16    9   26 1   
    17   10   11 1   
    18   10   12 1   
    19   11   27 1   
    20   12   13 2   
    21   12   28 1   
    22   13   14 1   
    23   13   15 1   
    24   14   29 1   
    25   15   16 1   
    26   15   30 1   
    27   15   31 1   
    28   16   17 1   
    29   16   21 1   
    30   16   32 1   
    31   17   18 1   
    32   17   33 1   
    33   17   34 1   
    34   18   19 1   
    35   18   35 1   
    36   18   36 1   
    37   19   20 1   
    38   19   37 1   
    39   19   38 1   
    40   20   21 1   
    41   20   39 1   
    42   20   40 1   
    43   21   41 1   
    44   21   42 1   
@<TRIPOS>SUBSTRUCTURE
     1 3KX         1 TEMP              0 ****  ****    0 ROOT
