@<TRIPOS>MOLECULE
3KY
   48    50     1     0     0
SMALL
bcc


@<TRIPOS>ATOM
      1 O1         -0.1400    0.4680    0.1280 o         1 3KY     -0.638500
      2 C19         1.0870    0.2550    0.1810 c         1 3KY      0.706700
      3 C12         1.8870    0.0560    1.3940 cc        1 3KY     -0.188400
      4 C13         1.2070    0.0920    2.6820 ca        1 3KY     -0.022800
      5 C18         0.1730    1.0110    2.9220 ca        1 3KY     -0.104500
      6 C17        -0.4650    1.0470    4.1600 ca        1 3KY     -0.138000
      7 C16        -0.0870    0.1670    5.1730 ca        1 3KY     -0.128000
      8 C15         0.9350   -0.7530    4.9420 ca        1 3KY     -0.138000
      9 C14         1.5780   -0.7930    3.7070 ca        1 3KY     -0.104500
     10 C           3.2440   -0.1610    1.2550 cd        1 3KY      0.210100
     11 O           4.0060   -0.3550    2.3800 oh        1 3KY     -0.480100
     12 N           1.7580    0.2050   -1.0640 n         1 3KY     -0.443100
     13 C2          3.1120   -0.0110   -1.1670 cc        1 3KY      0.104400
     14 C1          3.8740   -0.1910   -0.0330 cd        1 3KY     -0.319000
     15 C3          3.7580   -0.0380   -2.5230 c3        1 3KY     -0.057200
     16 C4          3.8970   -1.4560   -3.0640 c3        1 3KY     -0.061700
     17 C11         4.9120   -1.4710   -4.1990 c3        1 3KY     -0.075400
     18 C10         5.0720   -2.8600   -4.7780 c3        1 3KY     -0.067900
     19 C7          3.7530   -3.4720   -5.2490 c3        1 3KY     -0.053000
     20 C9          3.9900   -4.9390   -5.5890 c3        1 3KY     -0.086600
     21 C8          3.2510   -2.7640   -6.4980 c3        1 3KY     -0.086600
     22 C6          2.7140   -3.3900   -4.1310 c3        1 3KY     -0.067900
     23 C5          2.5640   -1.9990   -3.5550 c3        1 3KY     -0.075400
     24 H1         -0.1450    1.6950    2.1200 ha        1 3KY      0.143000
     25 H2         -1.2740    1.7720    4.3340 ha        1 3KY      0.128000
     26 H3         -0.5930    0.1960    6.1480 ha        1 3KY      0.127000
     27 H4          1.2360   -1.4520    5.7360 ha        1 3KY      0.128000
     28 H5          2.3890   -1.5170    3.5340 ha        1 3KY      0.143000
     29 H6          4.9360   -0.3950    2.1110 ho        1 3KY      0.423000
     30 H7          1.2130    0.3150   -1.8920 hn        1 3KY      0.333500
     31 H8          4.9550   -0.3590   -0.1080 ha        1 3KY      0.150000
     32 H9          4.7800    0.4210   -2.4250 hc        1 3KY      0.064200
     33 H10         3.1840    0.5890   -3.2570 hc        1 3KY      0.064200
     34 H11         4.2740   -2.1210   -2.2370 hc        1 3KY      0.059700
     35 H12         5.9050   -1.1150   -3.8180 hc        1 3KY      0.041950
     36 H13         4.5850   -0.7570   -5.0010 hc        1 3KY      0.041950
     37 H14         5.5210   -3.5310   -3.9990 hc        1 3KY      0.043700
     38 H15         5.7860   -2.8200   -5.6420 hc        1 3KY      0.043700
     39 H16         4.3600   -5.4950   -4.6940 hc        1 3KY      0.035200
     40 H17         3.0390   -5.4120   -5.9340 hc        1 3KY      0.035200
     41 H18         4.7490   -5.0280   -6.4020 hc        1 3KY      0.035200
     42 H19         2.2970   -3.2280   -6.8470 hc        1 3KY      0.035200
     43 H20         4.0050   -2.8450   -7.3170 hc        1 3KY      0.035200
     44 H21         3.0640   -1.6820   -6.2950 hc        1 3KY      0.035200
     45 H22         3.0130   -4.0960   -3.3100 hc        1 3KY      0.043700
     46 H23         1.7220   -3.7350   -4.5260 hc        1 3KY      0.043700
     47 H24         1.8350   -2.0350   -2.7030 hc        1 3KY      0.041950
     48 H25         2.1410   -1.3090   -4.3320 hc        1 3KY      0.041950
@<TRIPOS>BOND
     1    1    2 2   
     2    2    3 1   
     3    2   12 1   
     4    3    4 1   
     5    3   10 2   
     6    4    5 ar  
     7    4    9 ar  
     8    5    6 ar  
     9    5   24 1   
    10    6    7 ar  
    11    6   25 1   
    12    7    8 ar  
    13    7   26 1   
    14    8    9 ar  
    15    8   27 1   
    16    9   28 1   
    17   10   11 1   
    18   10   14 1   
    19   11   29 1   
    20   12   13 1   
    21   12   30 1   
    22   13   14 2   
    23   13   15 1   
    24   14   31 1   
    25   15   16 1   
    26   15   32 1   
    27   15   33 1   
    28   16   17 1   
    29   16   23 1   
    30   16   34 1   
    31   17   18 1   
    32   17   35 1   
    33   17   36 1   
    34   18   19 1   
    35   18   37 1   
    36   18   38 1   
    37   19   20 1   
    38   19   21 1   
    39   19   22 1   
    40   20   39 1   
    41   20   40 1   
    42   20   41 1   
    43   21   42 1   
    44   21   43 1   
    45   21   44 1   
    46   22   23 1   
    47   22   45 1   
    48   22   46 1   
    49   23   47 1   
    50   23   48 1   
@<TRIPOS>SUBSTRUCTURE
     1 3KY         1 TEMP              0 ****  ****    0 ROOT
