@<TRIPOS>MOLECULE
3KY
   48    50     1     0     0
SMALL
bcc


@<TRIPOS>ATOM
      1 O1         -0.1340    0.4850    0.1280 o         1 3KY     -0.638500
      2 C19         1.0920    0.2650    0.1800 c         1 3KY      0.706700
      3 C12         1.8910    0.0600    1.3930 cc        1 3KY     -0.188400
      4 C13         1.2120    0.0980    2.6810 ca        1 3KY     -0.022800
      5 C18         0.1840    1.0230    2.9230 ca        1 3KY     -0.104500
      6 C17        -0.4540    1.0610    4.1610 ca        1 3KY     -0.138000
      7 C16        -0.0800    0.1770    5.1730 ca        1 3KY     -0.128000
      8 C15         0.9360   -0.7480    4.9400 ca        1 3KY     -0.138000
      9 C14         1.5790   -0.7900    3.7050 ca        1 3KY     -0.104500
     10 C           3.2470   -0.1640    1.2520 cd        1 3KY      0.210100
     11 O           4.0080   -0.3630    2.3770 oh        1 3KY     -0.480100
     12 N           1.7620    0.2120   -1.0650 ns        1 3KY     -0.443100
     13 C2          3.1140   -0.0110   -1.1690 cc        1 3KY      0.104400
     14 C1          3.8760   -0.1950   -0.0350 cd        1 3KY     -0.319000
     15 C3          3.7600   -0.0390   -2.5260 c3        1 3KY     -0.057200
     16 C4          3.8960   -1.4580   -3.0650 c3        1 3KY     -0.061700
     17 C11         4.9100   -1.4760   -4.2010 c3        1 3KY     -0.075400
     18 C10         5.0670   -2.8660   -4.7780 c3        1 3KY     -0.067900
     19 C7          3.7470   -3.4770   -5.2470 c3        1 3KY     -0.053000
     20 C9          3.9820   -4.9460   -5.5840 c3        1 3KY     -0.086600
     21 C8          3.2440   -2.7710   -6.4970 c3        1 3KY     -0.086600
     22 C6          2.7090   -3.3920   -4.1270 c3        1 3KY     -0.067900
     23 C5          2.5620   -1.9990   -3.5540 c3        1 3KY     -0.075400
     24 H1         -0.1310    1.7100    2.1210 ha        1 3KY      0.143000
     25 H2         -1.2580    1.7900    4.3360 ha        1 3KY      0.128000
     26 H3         -0.5860    0.2080    6.1480 ha        1 3KY      0.127000
     27 H4          1.2340   -1.4500    5.7330 ha        1 3KY      0.128000
     28 H5          2.3850   -1.5190    3.5300 ha        1 3KY      0.143000
     29 H6          4.9380   -0.4070    2.1080 ho        1 3KY      0.423000
     30 H7          1.2170    0.3260   -1.8930 hn        1 3KY      0.333500
     31 H8          4.9560   -0.3690   -0.1120 ha        1 3KY      0.150000
     32 H9          3.1870    0.5880   -3.2600 hc        1 3KY      0.064200
     33 H10         4.7820    0.4180   -2.4290 hc        1 3KY      0.064200
     34 H11         4.2740   -2.1230   -2.2380 hc        1 3KY      0.059700
     35 H12         5.9040   -1.1210   -3.8220 hc        1 3KY      0.041950
     36 H13         4.5830   -0.7630   -5.0040 hc        1 3KY      0.041950
     37 H14         5.5170   -3.5370   -3.9980 hc        1 3KY      0.043700
     38 H15         5.7810   -2.8280   -5.6430 hc        1 3KY      0.043700
     39 H16         4.7400   -5.0370   -6.3980 hc        1 3KY      0.035200
     40 H17         3.0300   -5.4180   -5.9260 hc        1 3KY      0.035200
     41 H18         4.3520   -5.5000   -4.6880 hc        1 3KY      0.035200
     42 H19         2.2890   -3.2340   -6.8430 hc        1 3KY      0.035200
     43 H20         3.0600   -1.6890   -6.2950 hc        1 3KY      0.035200
     44 H21         3.9980   -2.8550   -7.3160 hc        1 3KY      0.035200
     45 H22         3.0080   -4.0960   -3.3060 hc        1 3KY      0.043700
     46 H23         1.7170   -3.7360   -4.5210 hc        1 3KY      0.043700
     47 H24         2.1390   -1.3110   -4.3320 hc        1 3KY      0.041950
     48 H25         1.8330   -2.0330   -2.7010 hc        1 3KY      0.041950
@<TRIPOS>BOND
     1    1    2 2   
     2    2    3 1   
     3    2   12 1   
     4    3    4 1   
     5    3   10 2   
     6    4    5 ar  
     7    4    9 ar  
     8    5    6 ar  
     9    5   24 1   
    10    6    7 ar  
    11    6   25 1   
    12    7    8 ar  
    13    7   26 1   
    14    8    9 ar  
    15    8   27 1   
    16    9   28 1   
    17   10   11 1   
    18   10   14 1   
    19   11   29 1   
    20   12   13 1   
    21   12   30 1   
    22   13   14 2   
    23   13   15 1   
    24   14   31 1   
    25   15   16 1   
    26   15   32 1   
    27   15   33 1   
    28   16   17 1   
    29   16   23 1   
    30   16   34 1   
    31   17   18 1   
    32   17   35 1   
    33   17   36 1   
    34   18   19 1   
    35   18   37 1   
    36   18   38 1   
    37   19   20 1   
    38   19   21 1   
    39   19   22 1   
    40   20   39 1   
    41   20   40 1   
    42   20   41 1   
    43   21   42 1   
    44   21   43 1   
    45   21   44 1   
    46   22   23 1   
    47   22   45 1   
    48   22   46 1   
    49   23   47 1   
    50   23   48 1   
@<TRIPOS>SUBSTRUCTURE
     1 3KY         1 TEMP              0 ****  ****    0 ROOT
