@<TRIPOS>MOLECULE
3KZ
   58    58     1     0     0
SMALL
bcc


@<TRIPOS>ATOM
      1 C26        -1.2210    0.9880    0.4230 c3        1 3KZ     -0.254000
      2 C27         2.9370   -0.8160    0.6820 c1        1 3KZ      0.247000
      3 C25        -1.1880   -0.0760    1.3870 c1        1 3KZ     -0.017000
      4 C28         1.7220   -0.4250    1.0190 c2        1 3KZ     -0.478000
      5 C3         -1.7820   -1.3900    4.0440 ca        1 3KZ     -0.083000
      6 C4         -1.4270    0.6050    5.9770 ca        1 3KZ     -0.158000
      7 C24        -0.2850   -0.2320    2.4650 c2        1 3KZ     -0.115000
      8 C2         -0.9480   -0.3000    3.7790 ca        1 3KZ     -0.031000
      9 C1         -0.7830    0.7120    4.7410 ca        1 3KZ     -0.036000
     10 C5         -2.2480   -0.4960    6.2800 ca        1 3KZ      0.021000
     11 C6         -2.4260   -1.4880    5.2790 ca        1 3KZ      0.019000
     12 C29         1.0630   -0.4470    2.3170 c2        1 3KZ      0.119000
     13 C9         -3.8490   -1.6550    7.6470 c2        1 3KZ     -0.134000
     14 C14        -3.2300    1.5670    8.5860 c2        1 3KZ      0.166000
     15 C8         -3.5980   -2.8850    6.7920 c3        1 3KZ      0.019000
     16 C22        -0.6700    2.9500    3.6490 c3        1 3KZ     -0.243000
     17 C21         1.3890    5.5780    3.2000 cu        1 3KZ     -0.523000
     18 C19         4.6170    5.0280    6.3250 c1        1 3KZ     -0.238000
     19 C12         0.0580    1.9130    4.4700 c3        1 3KZ     -0.121000
     20 C13        -2.5380    0.2000    8.6440 c3        1 3KZ     -0.020000
     21 C18         3.8770    4.0890    6.3970 c1        1 3KZ     -0.166000
     22 C17        -2.8330   -0.3980   10.0200 c3        1 3KZ     -0.214000
     23 C23         2.9990    2.9660    6.4780 c3        1 3KZ     -0.134000
     24 N16        -6.0990   -1.2690    8.5540 n1        1 3KZ     -0.054000
     25 N10        -2.8840   -0.6570    7.5310 nh        1 3KZ     -0.210000
     26 N11        -5.1810   -1.3310    7.8920 n2        1 3KZ      0.085000
     27 N20         2.1300    5.6840    4.4430 n4        1 3KZ     -0.079000
     28 O15        -2.5870    2.6070    8.7110 o         1 3KZ     -0.278000
     29 O7         -3.2910   -2.5620    5.4340 os        1 3KZ     -0.208000
     30 F30         1.8400   -0.8070    3.3690 f         1 3KZ     -0.101000
     31 H1         -0.3430    1.6850    0.4110 hc        1 3KZ      0.117333
     32 H2         -2.1430    1.5930    0.6650 hc        1 3KZ      0.117333
     33 H3         -1.3720    0.5590   -0.6030 hc        1 3KZ      0.117333
     34 H4          1.1030   -0.0080    0.1920 ha        1 3KZ      0.204000
     35 H5         -1.9480   -2.1660    3.2800 ha        1 3KZ      0.169000
     36 H6         -1.2960    1.4190    6.7100 ha        1 3KZ      0.146000
     37 H7         -2.7340   -3.4400    7.2490 h1        1 3KZ      0.119000
     38 H8         -4.4900   -3.5590    6.7100 h1        1 3KZ      0.119000
     39 H9         -1.5850    3.3020    4.1820 hc        1 3KZ      0.093333
     40 H10        -0.9810    2.5160    2.6670 hc        1 3KZ      0.093333
     41 H11         0.0000    3.8340    3.4540 hc        1 3KZ      0.093333
     42 H12         1.8610    5.5960    2.2220 hx        1 3KZ      0.123000
     43 H13         3.0960    5.9760    4.5070 hn        1 3KZ      0.196500
     44 H14         5.2880    5.8480    6.2770 ha        1 3KZ      0.226000
     45 H15         0.9920    1.5940    3.9300 hc        1 3KZ      0.082500
     46 H16        -1.4170    0.3750    8.5850 h1        1 3KZ      0.125000
     47 H17         0.3840    2.3740    5.4430 hc        1 3KZ      0.082500
     48 H18        -2.4350   -1.4390   10.0900 hc        1 3KZ      0.094667
     49 H19        -2.3320    0.2340   10.7920 hc        1 3KZ      0.094667
     50 H20        -3.9270   -0.4210   10.2330 hc        1 3KZ      0.094667
     51 H21         2.6790    2.6350    5.4540 hc        1 3KZ      0.106333
     52 H22         2.0820    3.2210    7.0710 hc        1 3KZ      0.106333
     53 H23         3.5140    2.1060    6.9800 hc        1 3KZ      0.106333
     54 H24         1.9160    4.9910    5.1460 hn        1 3KZ      0.196500
     55 H25         1.5210    7.7260    3.9850 hx        1 3KZ      0.094500
     56 H26         0.1530    6.7100    4.6790 hx        1 3KZ      0.094500
     57 H27        -4.3320    1.5580    8.4520 h4        1 3KZ      0.104000
     58 C31         1.0990    6.7000    4.0960 cx        1 3KZ     -0.096000
@<TRIPOS>BOND
     1    1    3 1   
     2    1   31 1   
     3    1   32 1   
     4    1   33 1   
     5    2    4 1   
     6    3    7 1   
     7    4   12 1   
     8    4   34 1   
     9    5    8 1   
    10    5   11 1   
    11    5   35 1   
    12    6    9 1   
    13    6   10 1   
    14    6   36 1   
    15    7    8 1   
    16    7   12 1   
    17    8    9 1   
    18    9   19 1   
    19   10   11 1   
    20   10   25 1   
    21   11   29 1   
    22   12   30 1   
    23   13   15 1   
    24   13   25 1   
    25   13   26 1   
    26   14   20 1   
    27   14   28 1   
    28   14   57 1   
    29   15   29 1   
    30   15   37 1   
    31   15   38 1   
    32   16   19 1   
    33   16   39 1   
    34   16   40 1   
    35   16   41 1   
    36   17   27 1   
    37   17   42 1   
    38   17   58 1   
    39   18   21 1   
    40   18   44 1   
    41   19   45 1   
    42   19   47 1   
    43   20   22 1   
    44   20   25 1   
    45   20   46 1   
    46   21   23 1   
    47   22   48 1   
    48   22   49 1   
    49   22   50 1   
    50   23   51 1   
    51   23   52 1   
    52   23   53 1   
    53   24   26 1   
    54   27   43 1   
    55   27   54 1   
    56   27   58 1   
    57   55   58 1   
    58   56   58 1   
@<TRIPOS>SUBSTRUCTURE
     1 3KZ         1 TEMP              0 ****  ****    0 ROOT
