@<TRIPOS>MOLECULE
3KZ
   58    58     1     0     0
SMALL
bcc


@<TRIPOS>ATOM
      1 C26        -1.4230    0.6460   -0.2940 c3        1 3KZ     -0.245000
      2 C27         2.7610   -0.9450    0.0990 c1        1 3KZ      0.271000
      3 C25        -1.3930   -0.2680    0.8110 c1        1 3KZ     -0.038000
      4 C28         1.5260   -0.5990    0.4190 c2        1 3KZ     -0.493000
      5 C3         -2.0460   -1.3960    3.4470 ca        1 3KZ     -0.086000
      6 C4         -1.4920    0.4890    5.4380 ca        1 3KZ     -0.156000
      7 C24        -0.4740   -0.3470    1.8770 c2        1 3KZ     -0.124000
      8 C2         -1.1160   -0.3760    3.2040 ca        1 3KZ     -0.023000
      9 C1         -0.8540    0.5800    4.1960 ca        1 3KZ     -0.051000
     10 C5         -2.4090   -0.5390    5.7160 ca        1 3KZ      0.024000
     11 C6         -2.6850   -1.4780    4.6840 ca        1 3KZ      0.027000
     12 C29         0.8780   -0.5580    1.7200 c2        1 3KZ      0.138000
     13 C9         -4.1050   -1.5860    7.0560 c2        1 3KZ     -0.136000
     14 C14        -3.2430    1.5280    8.0780 c2        1 3KZ      0.167000
     15 C8         -3.9680   -2.8090    6.1660 c3        1 3KZ      0.020000
     16 C22        -0.6400    3.0450    3.9460 c3        1 3KZ     -0.179000
     17 C21         0.3000    4.2110    3.7000 c3        1 3KZ     -0.227000
     18 C19         3.5790    5.5710    7.5230 c1        1 3KZ     -0.213000
     19 C12         0.0900    1.7160    3.9880 c3        1 3KZ     -0.126000
     20 C13        -2.6370    0.1190    8.1010 c3        1 3KZ     -0.020000
     21 C18         4.0530    5.4060    8.6110 c1        1 3KZ     -0.228000
     22 C17        -2.9530   -0.5020    9.4600 c3        1 3KZ     -0.215000
     23 C23         4.6210    5.2140    9.9060 c3        1 3KZ     -0.102000
     24 N16        -6.3120   -1.0120    7.9710 n1        1 3KZ     -0.047000
     25 N10        -3.0510   -0.6800    6.9670 nh        1 3KZ     -0.209000
     26 N11        -5.4000   -1.1450    7.3110 n2        1 3KZ      0.085000
     27 N20         1.1860    4.5590    4.8710 n4        1 3KZ      0.161000
     28 O15        -2.5480    2.5170    7.8540 o         1 3KZ     -0.280000
     29 O7         -3.6390   -2.4750    4.8150 os        1 3KZ     -0.207000
     30 F30         1.6650   -0.8730    2.7780 f         1 3KZ     -0.095000
     31 H1         -0.5640    1.3600   -0.3880 hc        1 3KZ      0.114000
     32 H2         -2.3710    1.2460   -0.1840 hc        1 3KZ      0.114000
     33 H3         -1.5240    0.0590   -1.2480 hc        1 3KZ      0.114000
     34 H4          0.8830   -0.2900   -0.4370 ha        1 3KZ      0.205000
     35 H5         -2.2870   -2.1260    2.6580 ha        1 3KZ      0.174000
     36 H6         -1.2740    1.2600    6.1970 ha        1 3KZ      0.152000
     37 H7         -3.1550   -3.4530    6.6000 h1        1 3KZ      0.121500
     38 H8         -4.9170   -3.3990    6.0700 h1        1 3KZ      0.121500
     39 H9         -1.2130    3.1950    4.9000 hc        1 3KZ      0.098000
     40 H10        -1.3930    3.0270    3.1130 hc        1 3KZ      0.098000
     41 H11        -0.2960    5.1330    3.4550 hx        1 3KZ      0.113500
     42 H12         0.9730    3.9940    2.8270 hx        1 3KZ      0.113500
     43 H13         1.7300    3.7220    5.0920 hn        1 3KZ      0.201000
     44 H14         3.1540    5.7210    6.5450 ha        1 3KZ      0.272000
     45 H15         0.6670    1.5750    3.0340 hc        1 3KZ      0.092500
     46 H16        -1.5080    0.2240    8.0310 h1        1 3KZ      0.125000
     47 H17         0.8390    1.7150    4.8260 hc        1 3KZ      0.092500
     48 H18        -2.4250    0.0900   10.2480 hc        1 3KZ      0.095000
     49 H19        -2.5950   -1.5590    9.5030 hc        1 3KZ      0.095000
     50 H20        -4.0470   -0.4880    9.6770 hc        1 3KZ      0.095000
     51 H21         5.1670    6.1350   10.2380 hc        1 3KZ      0.084000
     52 H22         3.8220    4.9880   10.6590 hc        1 3KZ      0.084000
     53 H23         5.3470    4.3600    9.8960 hc        1 3KZ      0.084000
     54 H24         2.9320    5.4620    4.0540 hx        1 3KZ      0.115000
     55 H25         1.6300    6.6360    4.7270 hx        1 3KZ      0.115000
     56 H26         0.5720    4.7590    5.6630 hn        1 3KZ      0.201000
     57 H27        -4.3290    1.5960    8.2960 h4        1 3KZ      0.105000
     58 C31         2.0620    5.6360    4.6860 c2        1 3KZ     -0.788000
@<TRIPOS>BOND
     1    1    3 1   
     2    1   31 1   
     3    1   32 1   
     4    1   33 1   
     5    2    4 1   
     6    3    7 1   
     7    4   12 1   
     8    4   34 1   
     9    5    8 1   
    10    5   11 1   
    11    5   35 1   
    12    6    9 1   
    13    6   10 1   
    14    6   36 1   
    15    7    8 1   
    16    7   12 1   
    17    8    9 1   
    18    9   19 1   
    19   10   11 1   
    20   10   25 1   
    21   11   29 1   
    22   12   30 1   
    23   13   15 1   
    24   13   25 1   
    25   13   26 1   
    26   14   20 1   
    27   14   28 1   
    28   14   57 1   
    29   15   29 1   
    30   15   37 1   
    31   15   38 1   
    32   16   17 1   
    33   16   19 1   
    34   16   39 1   
    35   16   40 1   
    36   17   27 1   
    37   17   41 1   
    38   17   42 1   
    39   18   21 1   
    40   18   44 1   
    41   19   45 1   
    42   19   47 1   
    43   20   22 1   
    44   20   25 1   
    45   20   46 1   
    46   21   23 1   
    47   22   48 1   
    48   22   49 1   
    49   22   50 1   
    50   23   51 1   
    51   23   52 1   
    52   23   53 1   
    53   24   26 1   
    54   27   43 1   
    55   27   56 1   
    56   27   58 1   
    57   54   58 1   
    58   55   58 1   
@<TRIPOS>SUBSTRUCTURE
     1 3KZ         1 TEMP              0 ****  ****    0 ROOT
