@<TRIPOS>MOLECULE
3L0
   57    61     1     0     0
SMALL
bcc


@<TRIPOS>ATOM
      1 C1         -0.1250    1.2980    0.3560 c3        1 3L0      0.139100
      2 N2          1.0780    0.5110    0.3500 n3        1 3L0     -0.702600
      3 C3          1.6360    0.1690    1.6760 cy        1 3L0      0.143800
      4 C4          3.0400    0.7640    1.2580 cy        1 3L0      0.153200
      5 C5          4.0420   -0.3440    0.9840 c3        1 3L0     -0.114100
      6 C6          2.3120    1.2100   -0.0700 cy        1 3L0      0.143800
      7 N7          3.4910    1.8580    2.1120 nh        1 3L0     -0.618000
      8 C8          3.8650    1.4380    3.4460 c3        1 3L0      0.165100
      9 C9          4.4560    2.7290    1.5020 ca        1 3L0      0.122600
     10 C10         5.8050    2.3420    1.3610 ca        1 3L0     -0.184000
     11 C11         6.7540    3.1830    0.7570 ca        1 3L0      0.129600
     12 N12         8.1100    2.8290    0.6250 nh        1 3L0     -0.642000
     13 C13         8.5350    1.4440    0.7680 c3        1 3L0      0.169500
     14 C15         8.8700    1.0650    2.2130 c3        1 3L0     -0.110100
     15 C16         9.7720    1.0850   -0.0830 c         1 3L0      0.668500
     16 O17        10.1210   -0.0930   -0.2510 o         1 3L0     -0.606500
     17 N18        10.5050    2.1360   -0.6360 n         1 3L0     -0.321900
     18 N19        10.1170    3.4130   -0.6190 n2        1 3L0     -0.487300
     19 C20         8.9720    3.7360   -0.0360 c2        1 3L0      0.508200
     20 C21         8.5360    5.1940   -0.0210 c3        1 3L0      0.112100
     21 O22         7.1600    5.3320   -0.3640 os        1 3L0     -0.312900
     22 C23         6.3150    4.4550    0.3030 ca        1 3L0      0.062100
     23 C24         4.9910    4.8560    0.4550 ca        1 3L0     -0.107000
     24 C25         4.0520    4.0080    1.0550 cp        1 3L0     -0.024000
     25 C26         2.6820    4.5080    1.2000 cp        1 3L0     -0.029000
     26 C27         1.9910    4.9730    0.0710 ca        1 3L0     -0.109500
     27 C28         0.7020    5.4870    0.1980 ca        1 3L0     -0.136000
     28 C29         0.0920    5.5450    1.4520 ca        1 3L0     -0.127000
     29 C30         0.7750    5.0850    2.5770 ca        1 3L0     -0.136000
     30 C31         2.0640    4.5680    2.4550 ca        1 3L0     -0.109500
     31 H1         -0.9540    0.6710    0.7780 h1        1 3L0      0.036033
     32 H2         -0.3750    1.5680   -0.7030 h1        1 3L0      0.036033
     33 H3         -0.0530    2.2450    0.9570 h1        1 3L0      0.036033
     34 H5          1.6490   -0.9350    1.8340 h1        1 3L0      0.061450
     35 H6          1.1510    0.6750    2.5450 h1        1 3L0      0.061450
     36 H7          4.9150    0.0480    0.4080 hc        1 3L0      0.044033
     37 H8          3.5560   -1.1480    0.3800 hc        1 3L0      0.044033
     38 H9          4.4110   -0.7930    1.9380 hc        1 3L0      0.044033
     39 H10         2.7400    0.7490   -0.9900 h1        1 3L0      0.061450
     40 H11         2.2210    2.3180   -0.1970 h1        1 3L0      0.061450
     41 H12         3.0330    0.8190    3.8710 h1        1 3L0      0.035700
     42 H13         4.8140    0.8350    3.4860 h1        1 3L0      0.035700
     43 H14         4.0010    2.3550    4.0790 h1        1 3L0      0.035700
     44 H15         6.1140    1.3530    1.7390 ha        1 3L0      0.144000
     45 H16         7.7020    0.7650    0.4020 h1        1 3L0      0.086700
     46 H17         9.1810   -0.0080    2.2340 hc        1 3L0      0.058367
     47 H18         9.7040    1.6910    2.6110 hc        1 3L0      0.058367
     48 H19         7.9800    1.2020    2.8720 hc        1 3L0      0.058367
     49 H20        11.3250    1.9580   -1.1820 hn        1 3L0      0.361500
     50 H21         9.0680    5.8020   -0.8020 h1        1 3L0      0.086700
     51 H22         8.7160    5.6160    1.0040 h1        1 3L0      0.086700
     52 H23         4.6860    5.8510    0.0940 ha        1 3L0      0.160000
     53 H24         2.4720    4.9300   -0.9180 ha        1 3L0      0.137000
     54 H25         0.1670    5.8480   -0.6920 ha        1 3L0      0.131500
     55 H26        -0.9240    5.9540    1.5510 ha        1 3L0      0.131000
     56 H27         0.2970    5.1310    3.5670 ha        1 3L0      0.131500
     57 H28         2.5970    4.2020    3.3450 ha        1 3L0      0.137000
@<TRIPOS>BOND
     1    1    2 1   
     2    1   31 1   
     3    1   32 1   
     4    1   33 1   
     5    2    3 1   
     6    2    6 1   
     7    3    4 1   
     8    3   34 1   
     9    3   35 1   
    10    4    5 1   
    11    4    6 1   
    12    4    7 1   
    13    5   36 1   
    14    5   37 1   
    15    5   38 1   
    16    6   39 1   
    17    6   40 1   
    18    7    8 1   
    19    7    9 1   
    20    8   41 1   
    21    8   42 1   
    22    8   43 1   
    23    9   10 ar  
    24    9   24 ar  
    25   10   11 ar  
    26   10   44 1   
    27   11   12 1   
    28   11   22 ar  
    29   12   13 1   
    30   12   19 1   
    31   13   14 1   
    32   13   15 1   
    33   13   45 1   
    34   14   46 1   
    35   14   47 1   
    36   14   48 1   
    37   15   16 2   
    38   15   17 1   
    39   17   18 1   
    40   17   49 1   
    41   18   19 2   
    42   19   20 1   
    43   20   21 1   
    44   20   50 1   
    45   20   51 1   
    46   21   22 1   
    47   22   23 ar  
    48   23   24 ar  
    49   23   52 1   
    50   24   25 1   
    51   25   26 ar  
    52   25   30 ar  
    53   26   27 ar  
    54   26   53 1   
    55   27   28 ar  
    56   27   54 1   
    57   28   29 ar  
    58   28   55 1   
    59   29   30 ar  
    60   29   56 1   
    61   30   57 1   
@<TRIPOS>SUBSTRUCTURE
     1 3L0         1 TEMP              0 ****  ****    0 ROOT
