@<TRIPOS>MOLECULE
3L0
   57    61     1     0     0
SMALL
bcc


@<TRIPOS>ATOM
      1 C1         -0.1300    1.3080    0.3530 c3        1 3L0      0.139100
      2 N2          1.0710    0.5190    0.3440 n3        1 3L0     -0.702600
      3 C3          1.6300    0.1720    1.6680 cy        1 3L0      0.143800
      4 C4          3.0340    0.7650    1.2500 cy        1 3L0      0.153200
      5 C5          4.0340   -0.3430    0.9720 c3        1 3L0     -0.114100
      6 C6          2.3060    1.2170   -0.0750 cy        1 3L0      0.143800
      7 N7          3.4890    1.8560    2.1080 nh        1 3L0     -0.618000
      8 C8          3.8630    1.4310    3.4400 c3        1 3L0      0.165100
      9 C9          4.4550    2.7270    1.4990 ca        1 3L0      0.122600
     10 C10         5.8030    2.3380    1.3560 ca        1 3L0     -0.184000
     11 C11         6.7530    3.1780    0.7550 ca        1 3L0      0.129600
     12 N12         8.1080    2.8230    0.6200 nh        1 3L0     -0.642000
     13 C13         8.5300    1.4360    0.7590 c3        1 3L0      0.169500
     14 C15         8.8660    1.0520    2.2030 c3        1 3L0     -0.110100
     15 C16         9.7670    1.0770   -0.0950 c         1 3L0      0.668500
     16 O17        10.1130   -0.1010   -0.2660 o         1 3L0     -0.606500
     17 N18        10.5020    2.1280   -0.6450 ns        1 3L0     -0.321900
     18 N19        10.1150    3.4060   -0.6230 n2        1 3L0     -0.487300
     19 C20         8.9720    3.7300   -0.0390 c2        1 3L0      0.508200
     20 C21         8.5380    5.1880   -0.0180 c3        1 3L0      0.112100
     21 O22         7.1620    5.3310   -0.3600 os        1 3L0     -0.312900
     22 C23         6.3160    4.4530    0.3050 ca        1 3L0      0.062100
     23 C24         4.9940    4.8560    0.4590 ca        1 3L0     -0.107000
     24 C25         4.0520    4.0080    1.0570 cp        1 3L0     -0.024000
     25 C26         2.6840    4.5100    1.2040 cp        1 3L0     -0.029000
     26 C27         1.9930    4.9810    0.0770 ca        1 3L0     -0.109500
     27 C28         0.7060    5.4970    0.2070 ca        1 3L0     -0.136000
     28 C29         0.0970    5.5520    1.4610 ca        1 3L0     -0.127000
     29 C30         0.7790    5.0870    2.5850 ca        1 3L0     -0.136000
     30 C31         2.0670    4.5680    2.4600 ca        1 3L0     -0.109500
     31 H1         -0.9600    0.6820    0.7740 h1        1 3L0      0.036033
     32 H2         -0.3810    1.5820   -0.7050 h1        1 3L0      0.036033
     33 H3         -0.0560    2.2530    0.9570 h1        1 3L0      0.036033
     34 H5          1.6410   -0.9330    1.8220 h1        1 3L0      0.061450
     35 H6          1.1470    0.6760    2.5380 h1        1 3L0      0.061450
     36 H7          4.9070    0.0490    0.3960 hc        1 3L0      0.044033
     37 H8          4.4040   -0.7960    1.9240 hc        1 3L0      0.044033
     38 H9          3.5460   -1.1450    0.3660 hc        1 3L0      0.044033
     39 H10         2.2170    2.3250   -0.1990 h1        1 3L0      0.061450
     40 H11         2.7330    0.7580   -0.9980 h1        1 3L0      0.061450
     41 H12         4.0010    2.3450    4.0750 h1        1 3L0      0.035700
     42 H13         3.0290    0.8120    3.8640 h1        1 3L0      0.035700
     43 H14         4.8100    0.8260    3.4770 h1        1 3L0      0.035700
     44 H15         6.1100    1.3470    1.7310 ha        1 3L0      0.144000
     45 H16         7.6960    0.7600    0.3910 h1        1 3L0      0.086700
     46 H17         9.7020    1.6750    2.6020 hc        1 3L0      0.058367
     47 H18         7.9760    1.1880    2.8620 hc        1 3L0      0.058367
     48 H19         9.1750   -0.0220    2.2200 hc        1 3L0      0.058367
     49 H20        11.3210    1.9500   -1.1920 hn        1 3L0      0.361500
     50 H21         8.7200    5.6070    1.0080 h1        1 3L0      0.086700
     51 H22         9.0720    5.7980   -0.7970 h1        1 3L0      0.086700
     52 H23         4.6900    5.8530    0.1010 ha        1 3L0      0.160000
     53 H24         2.4740    4.9390   -0.9120 ha        1 3L0      0.137000
     54 H25         0.1700    5.8620   -0.6810 ha        1 3L0      0.131500
     55 H26        -0.9180    5.9620    1.5630 ha        1 3L0      0.131000
     56 H27         0.3020    5.1300    3.5750 ha        1 3L0      0.131500
     57 H28         2.6000    4.1970    3.3490 ha        1 3L0      0.137000
@<TRIPOS>BOND
     1    1    2 1   
     2    1   31 1   
     3    1   32 1   
     4    1   33 1   
     5    2    3 1   
     6    2    6 1   
     7    3    4 1   
     8    3   34 1   
     9    3   35 1   
    10    4    5 1   
    11    4    6 1   
    12    4    7 1   
    13    5   36 1   
    14    5   37 1   
    15    5   38 1   
    16    6   39 1   
    17    6   40 1   
    18    7    8 1   
    19    7    9 1   
    20    8   41 1   
    21    8   42 1   
    22    8   43 1   
    23    9   10 ar  
    24    9   24 ar  
    25   10   11 ar  
    26   10   44 1   
    27   11   12 1   
    28   11   22 ar  
    29   12   13 1   
    30   12   19 1   
    31   13   14 1   
    32   13   15 1   
    33   13   45 1   
    34   14   46 1   
    35   14   47 1   
    36   14   48 1   
    37   15   16 2   
    38   15   17 1   
    39   17   18 1   
    40   17   49 1   
    41   18   19 2   
    42   19   20 1   
    43   20   21 1   
    44   20   50 1   
    45   20   51 1   
    46   21   22 1   
    47   22   23 ar  
    48   23   24 ar  
    49   23   52 1   
    50   24   25 1   
    51   25   26 ar  
    52   25   30 ar  
    53   26   27 ar  
    54   26   53 1   
    55   27   28 ar  
    56   27   54 1   
    57   28   29 ar  
    58   28   55 1   
    59   29   30 ar  
    60   29   56 1   
    61   30   57 1   
@<TRIPOS>SUBSTRUCTURE
     1 3L0         1 TEMP              0 ****  ****    0 ROOT
