@<TRIPOS>MOLECULE
3L0
   57    61     1     0     0
SMALL
bcc


@<TRIPOS>ATOM
      1 C1         -0.1320    1.3200    0.3480 c3        1 3L0      0.139100
      2 N2          1.0670    0.5290    0.3340 n3        1 3L0     -0.702600
      3 C3          1.6260    0.1740    1.6560 cy        1 3L0      0.143800
      4 C4          3.0310    0.7670    1.2410 cy        1 3L0      0.153200
      5 C5          4.0300   -0.3420    0.9580 c3        1 3L0     -0.114100
      6 C6          2.3040    1.2270   -0.0810 cy        1 3L0      0.143800
      7 N7          3.4880    1.8520    2.1050 nh        1 3L0     -0.618000
      8 C8          3.8620    1.4200    3.4350 c3        1 3L0      0.165100
      9 C9          4.4550    2.7250    1.5010 ca        1 3L0      0.122600
     10 C10         5.8030    2.3340    1.3550 ca        1 3L0     -0.184000
     11 C11         6.7540    3.1760    0.7580 ca        1 3L0      0.129600
     12 N12         8.1090    2.8190    0.6210 nh        1 3L0     -0.642000
     13 C13         8.5280    1.4300    0.7510 c3        1 3L0      0.169500
     14 C15         8.8640    1.0380    2.1930 c3        1 3L0     -0.110100
     15 C16         9.7630    1.0750   -0.1050 c         1 3L0      0.668500
     16 O17        10.1070   -0.1040   -0.2830 o         1 3L0     -0.606500
     17 N18        10.5000    2.1270   -0.6500 n         1 3L0     -0.321900
     18 N19        10.1160    3.4060   -0.6200 n2        1 3L0     -0.487300
     19 C20         8.9730    3.7280   -0.0340 c2        1 3L0      0.508200
     20 C21         8.5430    5.1870   -0.0050 c3        1 3L0      0.112100
     21 O22         7.1660    5.3340   -0.3450 os        1 3L0     -0.312900
     22 C23         6.3190    4.4540    0.3150 ca        1 3L0      0.062100
     23 C24         4.9970    4.8590    0.4710 ca        1 3L0     -0.107000
     24 C25         4.0550    4.0090    1.0650 cp        1 3L0     -0.024000
     25 C26         2.6870    4.5130    1.2150 cp        1 3L0     -0.029000
     26 C27         1.9970    4.9900    0.0910 ca        1 3L0     -0.109500
     27 C28         0.7110    5.5070    0.2240 ca        1 3L0     -0.136000
     28 C29         0.1020    5.5570    1.4790 ca        1 3L0     -0.127000
     29 C30         0.7840    5.0850    2.6000 ca        1 3L0     -0.136000
     30 C31         2.0710    4.5640    2.4720 ca        1 3L0     -0.109500
     31 H1         -0.3830    1.6000   -0.7090 h1        1 3L0      0.036033
     32 H2         -0.0560    2.2620    0.9570 h1        1 3L0      0.036033
     33 H3         -0.9630    0.6940    0.7650 h1        1 3L0      0.036033
     34 H5          1.6350   -0.9320    1.8050 h1        1 3L0      0.061450
     35 H6          1.1440    0.6750    2.5300 h1        1 3L0      0.061450
     36 H7          4.3980   -0.8010    1.9070 hc        1 3L0      0.044033
     37 H8          3.5390   -1.1390    0.3470 hc        1 3L0      0.044033
     38 H9          4.9030    0.0510    0.3840 hc        1 3L0      0.044033
     39 H10         2.7300    0.7720   -1.0060 h1        1 3L0      0.061450
     40 H11         2.2170    2.3360   -0.1990 h1        1 3L0      0.061450
     41 H12         4.0010    2.3300    4.0750 h1        1 3L0      0.035700
     42 H13         4.8080    0.8130    3.4680 h1        1 3L0      0.035700
     43 H14         3.0270    0.8000    3.8560 h1        1 3L0      0.035700
     44 H15         6.1080    1.3410    1.7240 ha        1 3L0      0.144000
     45 H16         7.6930    0.7580    0.3800 h1        1 3L0      0.086700
     46 H17         9.7010    1.6570    2.5950 hc        1 3L0      0.058367
     47 H18         7.9750    1.1720    2.8530 hc        1 3L0      0.058367
     48 H19         9.1710   -0.0370    2.2040 hc        1 3L0      0.058367
     49 H20        11.3180    1.9510   -1.1980 hn        1 3L0      0.361500
     50 H21         8.7250    5.6000    1.0230 h1        1 3L0      0.086700
     51 H22         9.0770    5.8000   -0.7810 h1        1 3L0      0.086700
     52 H23         4.6960    5.8580    0.1190 ha        1 3L0      0.160000
     53 H24         2.4780    4.9530   -0.8980 ha        1 3L0      0.137000
     54 H25         0.1750    5.8780   -0.6620 ha        1 3L0      0.131500
     55 H26        -0.9130    5.9680    1.5830 ha        1 3L0      0.131000
     56 H27         0.3070    5.1240    3.5900 ha        1 3L0      0.131500
     57 H28         2.6040    4.1890    3.3580 ha        1 3L0      0.137000
@<TRIPOS>BOND
     1    1    2 1   
     2    1   31 1   
     3    1   32 1   
     4    1   33 1   
     5    2    3 1   
     6    2    6 1   
     7    3    4 1   
     8    3   34 1   
     9    3   35 1   
    10    4    5 1   
    11    4    6 1   
    12    4    7 1   
    13    5   36 1   
    14    5   37 1   
    15    5   38 1   
    16    6   39 1   
    17    6   40 1   
    18    7    8 1   
    19    7    9 1   
    20    8   41 1   
    21    8   42 1   
    22    8   43 1   
    23    9   10 ar  
    24    9   24 ar  
    25   10   11 ar  
    26   10   44 1   
    27   11   12 1   
    28   11   22 ar  
    29   12   13 1   
    30   12   19 1   
    31   13   14 1   
    32   13   15 1   
    33   13   45 1   
    34   14   46 1   
    35   14   47 1   
    36   14   48 1   
    37   15   16 2   
    38   15   17 1   
    39   17   18 1   
    40   17   49 1   
    41   18   19 2   
    42   19   20 1   
    43   20   21 1   
    44   20   50 1   
    45   20   51 1   
    46   21   22 1   
    47   22   23 ar  
    48   23   24 ar  
    49   23   52 1   
    50   24   25 1   
    51   25   26 ar  
    52   25   30 ar  
    53   26   27 ar  
    54   26   53 1   
    55   27   28 ar  
    56   27   54 1   
    57   28   29 ar  
    58   28   55 1   
    59   29   30 ar  
    60   29   56 1   
    61   30   57 1   
@<TRIPOS>SUBSTRUCTURE
     1 3L0         1 TEMP              0 ****  ****    0 ROOT
