@<TRIPOS>MOLECULE
3L1
   31    33     1     0     0
SMALL
bcc


@<TRIPOS>ATOM
      1 N6          4.1390    1.8940   -0.7200 nh        1 3L1     -0.953500
      2 C6          3.4080    0.7650   -0.4490 ca        1 3L1      0.755200
      3 N1          3.9600   -0.4870   -0.5850 nb        1 3L1     -0.795000
      4 C2          3.1550   -1.5580   -0.3540 ca        1 3L1      0.683900
      5 N3          1.8530   -1.6110    0.0090 nb        1 3L1     -0.743000
      6 C4          1.3000   -0.3700    0.1600 ca        1 3L1      0.451800
      7 C5          2.0320    0.8750   -0.0530 ca        1 3L1     -0.228200
      8 N7          1.1940    1.9730    0.1920 nc        1 3L1     -0.555100
      9 C8          0.0120    1.4430    0.5360 cd        1 3L1      0.418700
     10 N9          0.0050    0.0250    0.5250 na        1 3L1     -0.297000
     11 C1'        -1.0780   -0.8490    0.9330 c3        1 3L1      0.262800
     12 O4'        -2.2330   -0.0650    1.2560 os        1 3L1     -0.389600
     13 C2'        -1.5190   -1.8690   -0.1410 c3        1 3L1     -0.150400
     14 C3'        -2.8450   -1.3300   -0.6900 c3        1 3L1      0.115100
     15 O3'        -3.9110   -2.2470   -0.5290 oh        1 3L1     -0.588800
     16 C4'        -3.1780   -0.0970    0.1790 c3        1 3L1      0.133100
     17 C5'        -3.1010    1.1820   -0.6550 c3        1 3L1      0.105400
     18 O5'        -3.2570    2.2770    0.2300 oh        1 3L1     -0.588800
     19 HN6         5.1140    1.8260   -0.8810 hn        1 3L1      0.444300
     20 HN6A        3.7520    2.7720   -0.4760 hn        1 3L1      0.444300
     21 H2          3.6530   -2.5450   -0.4820 h5        1 3L1      0.050100
     22 H8         -0.9000    1.9980    0.8110 h5        1 3L1      0.100800
     23 H1'        -0.7780   -1.3550    1.8990 h2        1 3L1      0.101700
     24 H2'        -0.7610   -1.9960   -0.9510 hc        1 3L1      0.084700
     25 H2'A       -1.6730   -2.8620    0.3530 hc        1 3L1      0.084700
     26 H3'        -2.7510   -1.0530   -1.7760 h1        1 3L1      0.051700
     27 HO3'       -3.6710   -3.0450   -1.0170 ho        1 3L1      0.409000
     28 H4'        -4.1820   -0.1870    0.6770 h1        1 3L1      0.113700
     29 H5'        -2.1070    1.2580   -1.1740 h1        1 3L1      0.035200
     30 H5'A       -3.9220    1.1710   -1.4210 h1        1 3L1      0.035200
     31 HO5'       -3.3330    3.0650   -0.3210 ho        1 3L1      0.405000
@<TRIPOS>BOND
     1    1    2 1   
     2    1   19 1   
     3    1   20 1   
     4    2    3 ar  
     5    2    7 ar  
     6    3    4 ar  
     7    4    5 ar  
     8    4   21 1   
     9    5    6 ar  
    10    6    7 ar  
    11    6   10 1   
    12    7    8 1   
    13    8    9 2   
    14    9   10 1   
    15    9   22 1   
    16   10   11 1   
    17   11   12 1   
    18   11   13 1   
    19   11   23 1   
    20   12   16 1   
    21   13   14 1   
    22   13   24 1   
    23   13   25 1   
    24   14   15 1   
    25   14   16 1   
    26   14   26 1   
    27   15   27 1   
    28   16   17 1   
    29   16   28 1   
    30   17   18 1   
    31   17   29 1   
    32   17   30 1   
    33   18   31 1   
@<TRIPOS>SUBSTRUCTURE
     1 3L1         1 TEMP              0 ****  ****    0 ROOT
