@<TRIPOS>MOLECULE
3L1
   31    27     1     0     0
SMALL
bcc


@<TRIPOS>ATOM
      1 N6         -5.2780    0.2790    1.6160 n3        1 3L1     -0.355000
      2 C6         -3.8890    0.0420    1.7010 c2        1 3L1      0.242000
      3 N1         -3.6450   -0.2570    2.9860 n2        1 3L1     -0.268000
      4 C2         -2.3570   -0.4720    3.4080 c1        1 3L1      0.028000
      5 N3         -1.3190   -0.3830    2.5190 n1        1 3L1     -0.210000
      6 C4         -1.5650   -0.0790    1.2080 c1        1 3L1      0.082000
      7 C5         -2.8290    0.1330    0.7910 c1        1 3L1     -0.247000
      8 N7         -2.7900    0.4320   -0.5250 n1        1 3L1     -0.157500
      9 C8         -1.5030    0.4040   -0.9200 c1        1 3L1     -0.057000
     10 N9         -0.7450    0.0890    0.1490 n1        1 3L1     -0.157500
     11 C1'         0.6220   -0.3690    0.1630 c2        1 3L1      0.166000
     12 O4'         0.9350   -0.8840   -0.9770 os        1 3L1     -0.275000
     13 C2'         1.5960    0.8440    0.3450 c3        1 3L1     -0.234000
     14 C3'         2.6610    0.6810   -0.7470 c3        1 3L1      0.008000
     15 O3'         4.0400    0.8150   -0.1560 oh        1 3L1     -0.310000
     16 C4'         2.4820   -0.5300   -1.2180 c3        1 3L1     -0.024000
     17 C5'         2.7910   -0.5600   -2.6780 c3        1 3L1     -0.029000
     18 O5'         3.0390   -1.8820   -3.0770 oh        1 3L1     -0.317000
     19 HN6        -5.8170    0.0860    2.3230 hn        1 3L1      0.244000
     20 HN6A       -5.6410    0.6170    0.8400 hn        1 3L1      0.244000
     21 H2         -2.1810   -0.6890    4.3430 ha        1 3L1      0.190000
     22 H8         -1.1830    0.5140   -1.8330 DU        1 3L1      0.197000
     23 H1'         0.7560   -1.0280    0.8850 h4        1 3L1      0.164000
     24 H2'         2.0060    0.8160    1.2190 hc        1 3L1      0.118500
     25 H2'A        1.1090    1.6930    0.2230 hc        1 3L1      0.118500
     26 H3'         2.5260    1.3500   -1.4610 h1        1 3L1      0.087000
     27 HO3'        4.3870    1.6210   -0.3810 ho        1 3L1      0.207000
     28 H4'         3.0440   -1.1590   -0.7460 h1        1 3L1      0.150000
     29 H5'         2.0200   -0.2020   -3.1850 h1        1 3L1      0.089000
     30 H5'A        3.5770   -0.0150   -2.8550 h1        1 3L1      0.089000
     31 HO5'        3.1530   -1.9090   -3.9610 ho        1 3L1      0.216000
@<TRIPOS>BOND
     1    1    2 1   
     2    1   19 1   
     3    1   20 1   
     4    2    3 1   
     5    2    7 1   
     6    3    4 1   
     7    4   21 1   
     8    5    6 1   
     9    8    9 1   
    10    9   10 1   
    11   11   12 1   
    12   11   13 1   
    13   11   23 1   
    14   12   16 1   
    15   13   14 1   
    16   13   24 1   
    17   13   25 1   
    18   14   15 1   
    19   14   16 1   
    20   14   26 1   
    21   15   27 1   
    22   16   17 1   
    23   16   28 1   
    24   17   18 1   
    25   17   29 1   
    26   17   30 1   
    27   18   31 1   
@<TRIPOS>SUBSTRUCTURE
     1 3L1         1 TEMP              0 ****  ****    0 ROOT
