@<TRIPOS>MOLECULE
3L1
   31    33     1     0     0
SMALL
bcc


@<TRIPOS>ATOM
      1 N6          0.0120    0.0930   -0.9810 nv        1 3L1     -0.953500
      2 C6          1.3510    0.1920   -0.7000 ca        1 3L1      0.755200
      3 N1          1.7860    0.6600    0.5180 nb        1 3L1     -0.795000
      4 C2          3.1280    0.7840    0.7010 ca        1 3L1      0.683900
      5 N3          4.1540    0.5090   -0.1370 nb        1 3L1     -0.743000
      6 C4          3.7300    0.0300   -1.3460 ca        1 3L1      0.451800
      7 C5          2.3250   -0.1580   -1.6940 ca        1 3L1     -0.228200
      8 N7          2.2180   -0.6730   -2.9950 nc        1 3L1     -0.555100
      9 C8          3.4810   -0.7980   -3.4280 cd        1 3L1      0.418700
     10 N9          4.4470   -0.3770   -2.4800 na        1 3L1     -0.297000
     11 C1'         5.8890   -0.4680   -2.5990 c3        1 3L1      0.262800
     12 O4'         6.2350   -0.9520   -3.9020 os        1 3L1     -0.389600
     13 C2'         6.6340    0.8740   -2.4110 c3        1 3L1     -0.150400
     14 C3'         7.0570    1.3010   -3.8220 c3        1 3L1      0.115100
     15 O3'         8.4600    1.4590   -3.9420 oh        1 3L1     -0.588800
     16 C4'         6.6570    0.1290   -4.7440 c3        1 3L1      0.133100
     17 C5'         5.5360    0.5540   -5.6930 c3        1 3L1      0.105400
     18 O5'         5.1100   -0.6020   -6.3920 oh        1 3L1     -0.588800
     19 HN6        -0.6570    0.2240   -0.2630 hn        1 3L1      0.444300
     20 HN6A       -0.2580   -0.3770   -1.8100 hn        1 3L1      0.444300
     21 H2          3.4230    1.1690    1.7020 h5        1 3L1      0.050100
     22 H8          3.8020   -1.1810   -4.4110 h5        1 3L1      0.100800
     23 H1'         6.2540   -1.2580   -1.8770 h2        1 3L1      0.101700
     24 H2'         6.0030    1.6520   -1.9190 hc        1 3L1      0.084700
     25 H2'A        7.5330    0.6950   -1.7690 hc        1 3L1      0.084700
     26 H3'         6.5470    2.2550   -4.1260 h1        1 3L1      0.051700
     27 HO3'        8.7190    2.1460   -3.3160 ho        1 3L1      0.409000
     28 H4'         7.5320   -0.2780   -5.3200 h1        1 3L1      0.113700
     29 H5'         5.9320    1.3250   -6.4060 h1        1 3L1      0.035200
     30 H5'A        4.6720    0.9850   -5.1180 h1        1 3L1      0.035200
     31 HO5'        4.4960   -0.3000   -7.0720 ho        1 3L1      0.405000
@<TRIPOS>BOND
     1    1    2 1   
     2    1   19 1   
     3    1   20 1   
     4    2    3 ar  
     5    2    7 ar  
     6    3    4 ar  
     7    4    5 ar  
     8    4   21 1   
     9    5    6 ar  
    10    6    7 ar  
    11    6   10 1   
    12    7    8 1   
    13    8    9 2   
    14    9   10 1   
    15    9   22 1   
    16   10   11 1   
    17   11   12 1   
    18   11   13 1   
    19   11   23 1   
    20   12   16 1   
    21   13   14 1   
    22   13   24 1   
    23   13   25 1   
    24   14   15 1   
    25   14   16 1   
    26   14   26 1   
    27   15   27 1   
    28   16   17 1   
    29   16   28 1   
    30   17   18 1   
    31   17   29 1   
    32   17   30 1   
    33   18   31 1   
@<TRIPOS>SUBSTRUCTURE
     1 3L1         1 TEMP              0 ****  ****    0 ROOT
