@<TRIPOS>MOLECULE
3L1
   32    34     1     0     0
SMALL
bcc


@<TRIPOS>ATOM
      1 N6          0.0060   -0.1290   -0.5980 n4        1 3L1     -0.813300
      2 C6          1.4540    0.0700   -0.4070 ca        1 3L1      0.508200
      3 N1          1.9220    0.4560    0.8080 nb        1 3L1     -0.679000
      4 C2          3.2720    0.6150    0.9200 ca        1 3L1      0.666900
      5 N3          4.2320    0.4390   -0.0260 nb        1 3L1     -0.624000
      6 C4          3.7540    0.0530   -1.2320 ca        1 3L1      0.448800
      7 C5          2.3080   -0.1560   -1.4990 ca        1 3L1     -0.128200
      8 N7          2.1170   -0.5520   -2.8230 nc        1 3L1     -0.600100
      9 C8          3.3580   -0.5930   -3.3550 cd        1 3L1      0.522700
     10 N9          4.3800   -0.2320   -2.4530 na        1 3L1     -0.277000
     11 C1'         5.8300   -0.2860   -2.6690 c3        1 3L1      0.261800
     12 O4'         6.0860   -0.8230   -3.9620 os        1 3L1     -0.397600
     13 C2'         6.5380    1.0810   -2.5740 c3        1 3L1     -0.152400
     14 C3'         7.0020    1.4050   -4.0010 c3        1 3L1      0.127100
     15 O3'         8.4110    1.5040   -4.0790 oh        1 3L1     -0.578800
     16 C4'         6.5980    0.1860   -4.8530 c3        1 3L1      0.083100
     17 C5'         5.5410    0.5270   -5.9030 c3        1 3L1      0.110400
     18 O5'         4.7100   -0.5810   -6.1800 oh        1 3L1     -0.604800
     19 HN6        -0.1590   -1.1170   -0.8280 hn        1 3L1      0.477467
     20 HN6A       -0.3010    0.4540   -1.3870 hn        1 3L1      0.477467
     21 H2          3.6300    0.9310    1.9290 h5        1 3L1      0.098100
     22 H8          3.6000   -0.8740   -4.4040 h5        1 3L1      0.144800
     23 H1'         6.2430   -1.0380   -1.9290 h2        1 3L1      0.117700
     24 H2'         5.8780    1.8850   -2.1680 hc        1 3L1      0.090200
     25 H2'A        7.4220    0.9790   -1.8930 hc        1 3L1      0.090200
     26 H3'         6.5240    2.3480   -4.3800 h1        1 3L1      0.062700
     27 HO3'        8.6640    2.3410   -3.6710 ho        1 3L1      0.420000
     28 H4'         7.5010   -0.2910   -5.3290 h1        1 3L1      0.118700
     29 H5'         6.0510    0.8830   -6.8370 h1        1 3L1      0.064700
     30 H5'A        4.8330    1.3200   -5.5390 h1        1 3L1      0.064700
     31 HO5'        5.2780   -1.3110   -6.4610 ho        1 3L1      0.423000
     32 H63        -0.5210    0.1220    0.2480 hn        1 3L1      0.477467
@<TRIPOS>BOND
     1    1    2 1   
     2    1   19 1   
     3    1   20 1   
     4    1   32 1   
     5    2    3 ar  
     6    2    7 ar  
     7    3    4 ar  
     8    4    5 ar  
     9    4   21 1   
    10    5    6 ar  
    11    6    7 ar  
    12    6   10 1   
    13    7    8 1   
    14    8    9 2   
    15    9   10 1   
    16    9   22 1   
    17   10   11 1   
    18   11   12 1   
    19   11   13 1   
    20   11   23 1   
    21   12   16 1   
    22   13   14 1   
    23   13   24 1   
    24   13   25 1   
    25   14   15 1   
    26   14   16 1   
    27   14   26 1   
    28   15   27 1   
    29   16   17 1   
    30   16   28 1   
    31   17   18 1   
    32   17   29 1   
    33   17   30 1   
    34   18   31 1   
@<TRIPOS>SUBSTRUCTURE
     1 3L1         1 TEMP              0 ****  ****    0 ROOT
