@<TRIPOS>MOLECULE
3L1
   31    33     1     0     0
SMALL
bcc


@<TRIPOS>ATOM
      1 N6          0.0370    0.1100   -0.9200 nh        1 3L1     -0.953500
      2 C6          1.3810    0.1970   -0.6570 ca        1 3L1      0.755200
      3 N1          1.8360    0.6530    0.5580 nb        1 3L1     -0.795000
      4 C2          3.1810    0.7660    0.7240 ca        1 3L1      0.683900
      5 N3          4.1940    0.4900   -0.1310 nb        1 3L1     -0.743000
      6 C4          3.7490    0.0240   -1.3370 ca        1 3L1      0.451800
      7 C5          2.3380   -0.1520   -1.6680 ca        1 3L1     -0.228200
      8 N7          2.2090   -0.6560   -2.9710 nc        1 3L1     -0.555100
      9 C8          3.4650   -0.7860   -3.4220 cd        1 3L1      0.418700
     10 N9          4.4470   -0.3800   -2.4840 na        1 3L1     -0.297000
     11 C1'         5.8870   -0.4790   -2.6240 c3        1 3L1      0.262800
     12 O4'         6.2110   -0.9550   -3.9360 os        1 3L1     -0.389600
     13 C2'         6.6440    0.8560   -2.4370 c3        1 3L1     -0.150400
     14 C3'         7.0510    1.2910   -3.8490 c3        1 3L1      0.115100
     15 O3'         8.4530    1.4390   -3.9880 oh        1 3L1     -0.588800
     16 C4'         6.6290    0.1290   -4.7760 c3        1 3L1      0.133100
     17 C5'         5.4980    0.5690   -5.7050 c3        1 3L1      0.105400
     18 O5'         5.0540   -0.5780   -6.4070 oh        1 3L1     -0.588800
     19 HN6        -0.2480   -0.3520   -1.7490 hn        1 3L1      0.444300
     20 HN6A       -0.6210    0.2400   -0.1920 hn        1 3L1      0.444300
     21 H2          3.4930    1.1420    1.7230 h5        1 3L1      0.050100
     22 H8          3.7700   -1.1640   -4.4130 h5        1 3L1      0.100800
     23 H1'         6.2560   -1.2780   -1.9140 h2        1 3L1      0.101700
     24 H2'         6.0250    1.6340   -1.9300 hc        1 3L1      0.084700
     25 H2'A        7.5510    0.6650   -1.8080 hc        1 3L1      0.084700
     26 H3'         6.5440    2.2510   -4.1390 h1        1 3L1      0.051700
     27 HO3'        8.7260    2.1190   -3.3600 ho        1 3L1      0.409000
     28 H4'         7.4940   -0.2800   -5.3660 h1        1 3L1      0.113700
     29 H5'         4.6450    1.0020   -5.1140 h1        1 3L1      0.035200
     30 H5'A        5.8900    1.3430   -6.4180 h1        1 3L1      0.035200
     31 HO5'        4.4330   -0.2660   -7.0760 ho        1 3L1      0.405000
@<TRIPOS>BOND
     1    1    2 1   
     2    1   19 1   
     3    1   20 1   
     4    2    3 ar  
     5    2    7 ar  
     6    3    4 ar  
     7    4    5 ar  
     8    4   21 1   
     9    5    6 ar  
    10    6    7 ar  
    11    6   10 1   
    12    7    8 1   
    13    8    9 2   
    14    9   10 1   
    15    9   22 1   
    16   10   11 1   
    17   11   12 1   
    18   11   13 1   
    19   11   23 1   
    20   12   16 1   
    21   13   14 1   
    22   13   24 1   
    23   13   25 1   
    24   14   15 1   
    25   14   16 1   
    26   14   26 1   
    27   15   27 1   
    28   16   17 1   
    29   16   28 1   
    30   17   18 1   
    31   17   29 1   
    32   17   30 1   
    33   18   31 1   
@<TRIPOS>SUBSTRUCTURE
     1 3L1         1 TEMP              0 ****  ****    0 ROOT
