@<TRIPOS>MOLECULE
3L2
   70    74     1     0     0
SMALL
bcc


@<TRIPOS>ATOM
      1 O           0.4780   -0.0980   -0.0400 os        1 3L2     -0.437900
      2 C1         -2.6950   -0.1660   -1.0120 c3        1 3L2     -0.085700
      3 O6         -4.2660   -2.5740    0.5960 o         1 3L2     -0.530000
      4 C23        -4.2340   -1.3430    0.6200 c         1 3L2      0.610100
      5 C24        -4.1450   -0.3940   -0.5580 c3        1 3L2      0.106100
      6 O7         -4.8210    0.8170   -0.3000 oh        1 3L2     -0.580800
      7 C          -2.0860   -1.4730   -1.4730 c3        1 3L2     -0.103100
      8 O5         -4.3120   -0.7040    1.8260 os        1 3L2     -0.453900
      9 C22        -4.5100   -1.5410    2.9820 c3        1 3L2      0.137400
     10 C15        -4.9580   -0.6930    4.1900 c3        1 3L2     -0.050000
     11 C20        -5.6620    0.6100    3.7210 c3        1 3L2      0.184300
     12 C19        -7.0790    0.4070    3.2910 c2        1 3L2     -0.161200
     13 C18        -7.7960   -0.6960    3.5350 c2        1 3L2     -0.098400
     14 C21        -9.1910   -0.8560    3.0590 c3        1 3L2     -0.060900
     15 C17        -7.2430   -1.8540    4.2860 c3        1 3L2     -0.047200
     16 C16        -5.9460   -1.5370    5.0040 c3        1 3L2     -0.075400
     17 O4         -5.7320    1.6580    4.7080 os        1 3L2     -0.402600
     18 C12        -4.5270    1.8680    5.4300 c3        1 3L2      0.158100
     19 C11        -3.3110    2.0390    4.5070 c3        1 3L2     -0.115400
     20 C14        -3.7190   -0.3410    5.0700 c3        1 3L2     -0.039000
     21 C25        -2.9670   -1.5320    5.6110 c3        1 3L2     -0.097100
     22 C13        -4.2070    0.5830    6.1860 cx        1 3L2      0.038800
     23 O8         -3.4260    0.7120    7.3850 os        1 3L2     -0.388600
     24 C26        -4.7630    0.2060    7.5060 cx        1 3L2      0.079400
     25 C10        -2.7970    0.6100    4.2360 c3        1 3L2      0.144100
     26 O3         -1.4440    0.5810    4.7110 os        1 3L2     -0.420900
     27 C9         -0.5410   -0.2170    4.0570 c         1 3L2      0.640300
     28 O2         -0.9530   -0.9640    3.1640 o         1 3L2     -0.555000
     29 C8          0.8190   -0.0170    4.5720 ce        1 3L2     -0.181200
     30 C7          1.9450   -0.4940    4.0300 cf        1 3L2     -0.060000
     31 C6          2.1180   -1.3580    2.8780 cf        1 3L2     -0.076000
     32 C5          1.8410   -1.1010    1.5950 ce        1 3L2     -0.168200
     33 C4          1.1980    0.1260    1.1070 c         1 3L2      0.640300
     34 O1          1.2440    1.2730    1.5580 o         1 3L2     -0.540000
     35 C3         -0.4760    0.8960   -0.4360 c3        1 3L2      0.137400
     36 C2         -1.8580    0.5000    0.0660 c3        1 3L2     -0.114400
     37 H1         -2.7560    0.5380   -1.8920 hc        1 3L2      0.065700
     38 H2         -4.7270   -0.8630   -1.4080 h1        1 3L2      0.107700
     39 H3         -4.4420    1.2080    0.4980 ho        1 3L2      0.416000
     40 H4         -2.1670   -2.2510   -0.6730 hc        1 3L2      0.050033
     41 H5         -2.6120   -1.8470   -2.3840 hc        1 3L2      0.050033
     42 H6         -1.0040   -1.3300   -1.7120 hc        1 3L2      0.050033
     43 H7         -5.2850   -2.3120    2.7260 h1        1 3L2      0.069700
     44 H8         -3.5350   -2.0580    3.1820 h1        1 3L2      0.069700
     45 H9         -5.0790    1.0350    2.8490 h1        1 3L2      0.057700
     46 H10        -7.5100    1.2660    2.7520 ha        1 3L2      0.137000
     47 H11        -9.2870   -1.7910    2.4540 hc        1 3L2      0.044367
     48 H12        -9.5110    0.0090    2.4290 hc        1 3L2      0.044367
     49 H13        -9.8860   -0.9320    3.9330 hc        1 3L2      0.044367
     50 H14        -7.9970   -2.1940    5.0480 hc        1 3L2      0.052700
     51 H15        -7.1000   -2.7120    3.5730 hc        1 3L2      0.052700
     52 H16        -5.4590   -2.5040    5.2950 hc        1 3L2      0.052700
     53 H17        -6.1930   -0.9750    5.9430 hc        1 3L2      0.052700
     54 H18        -4.7280    2.7550    6.0810 h1        1 3L2      0.099700
     55 H19        -3.5900    2.5510    3.5570 hc        1 3L2      0.075700
     56 H20        -2.5230    2.6410    5.0270 hc        1 3L2      0.075700
     57 H21        -2.2170   -1.1740    6.3630 hc        1 3L2      0.053367
     58 H22        -3.6540   -2.2470    6.1210 hc        1 3L2      0.053367
     59 H23        -2.4140   -2.0650    4.8000 hc        1 3L2      0.053367
     60 H24        -4.8240   -0.8560    7.8090 h1        1 3L2      0.080700
     61 H25        -5.4700    0.8790    8.0270 h1        1 3L2      0.080700
     62 H26        -2.8220    0.3450    3.1460 h1        1 3L2      0.093700
     63 H27         0.8610    0.6130    5.4800 ha        1 3L2      0.163000
     64 H28         2.9070   -0.2420    4.5240 ha        1 3L2      0.145000
     65 H29         2.5770   -2.3350    3.1340 ha        1 3L2      0.145000
     66 H30         2.0480   -1.8470    0.8090 ha        1 3L2      0.160000
     67 H31        -0.1820    1.9050   -0.0460 h1        1 3L2      0.069700
     68 H32        -0.4160    0.8910   -1.5570 h1        1 3L2      0.069700
     69 H33        -1.7580   -0.1880    0.9500 hc        1 3L2      0.064200
     70 H34        -2.3820    1.4290    0.4170 hc        1 3L2      0.064200
@<TRIPOS>BOND
     1    1   33 1   
     2    1   35 1   
     3    2    5 1   
     4    2    7 1   
     5    2   36 1   
     6    2   37 1   
     7    3    4 2   
     8    4    5 1   
     9    4    8 1   
    10    5    6 1   
    11    5   38 1   
    12    6   39 1   
    13    7   40 1   
    14    7   41 1   
    15    7   42 1   
    16    8    9 1   
    17    9   10 1   
    18    9   43 1   
    19    9   44 1   
    20   10   11 1   
    21   10   16 1   
    22   10   20 1   
    23   11   12 1   
    24   11   17 1   
    25   11   45 1   
    26   12   13 2   
    27   12   46 1   
    28   13   14 1   
    29   13   15 1   
    30   14   47 1   
    31   14   48 1   
    32   14   49 1   
    33   15   16 1   
    34   15   50 1   
    35   15   51 1   
    36   16   52 1   
    37   16   53 1   
    38   17   18 1   
    39   18   19 1   
    40   18   22 1   
    41   18   54 1   
    42   19   25 1   
    43   19   55 1   
    44   19   56 1   
    45   20   21 1   
    46   20   22 1   
    47   20   25 1   
    48   21   57 1   
    49   21   58 1   
    50   21   59 1   
    51   22   23 1   
    52   22   24 1   
    53   23   24 1   
    54   24   60 1   
    55   24   61 1   
    56   25   26 1   
    57   25   62 1   
    58   26   27 1   
    59   27   28 2   
    60   27   29 1   
    61   29   30 2   
    62   29   63 1   
    63   30   31 1   
    64   30   64 1   
    65   31   32 2   
    66   31   65 1   
    67   32   33 1   
    68   32   66 1   
    69   33   34 2   
    70   35   36 1   
    71   35   67 1   
    72   35   68 1   
    73   36   69 1   
    74   36   70 1   
@<TRIPOS>SUBSTRUCTURE
     1 3L2         1 TEMP              0 ****  ****    0 ROOT
