@<TRIPOS>MOLECULE
3L2
   70    74     1     0     0
SMALL
bcc


@<TRIPOS>ATOM
      1 O           0.4490   -0.1190   -0.0790 os        1 3L2     -0.437900
      2 C1         -2.7330   -0.2020   -1.0200 c3        1 3L2     -0.085700
      3 O6         -4.2840   -2.5970    0.6240 o         1 3L2     -0.530000
      4 C23        -4.2540   -1.3670    0.6370 c         1 3L2      0.610100
      5 C24        -4.1780   -0.4280   -0.5510 c3        1 3L2      0.106100
      6 O7         -4.8540    0.7840   -0.2970 oh        1 3L2     -0.580800
      7 C          -2.1260   -1.5110   -1.4750 c3        1 3L2     -0.103100
      8 O5         -4.3210   -0.7170    1.8380 os        1 3L2     -0.453900
      9 C22        -4.5080   -1.5440    3.0030 c3        1 3L2      0.137400
     10 C15        -4.9460   -0.6860    4.2070 c3        1 3L2     -0.050000
     11 C20        -5.6550    0.6110    3.7340 c3        1 3L2      0.184300
     12 C19        -7.0770    0.4030    3.3190 c2        1 3L2     -0.161200
     13 C18        -7.7890   -0.7000    3.5800 c2        1 3L2     -0.098400
     14 C21        -9.1880   -0.8650    3.1190 c3        1 3L2     -0.060900
     15 C17        -7.2270   -1.8500    4.3350 c3        1 3L2     -0.047200
     16 C16        -5.9240   -1.5240    5.0380 c3        1 3L2     -0.075400
     17 O4         -5.7180    1.6680    4.7120 os        1 3L2     -0.402600
     18 C12        -4.5070    1.8860    5.4210 c3        1 3L2      0.158100
     19 C11        -3.2990    2.0510    4.4850 c3        1 3L2     -0.115400
     20 C14        -3.6980   -0.3250    5.0730 c3        1 3L2     -0.039000
     21 C25        -2.9390   -1.5090    5.6170 c3        1 3L2     -0.097100
     22 C13        -4.1770    0.6090    6.1860 cx        1 3L2      0.038800
     23 O8         -3.3860    0.7490    7.3750 os        1 3L2     -0.388600
     24 C26        -4.7210    0.2420    7.5140 cx        1 3L2      0.079400
     25 C10        -2.7860    0.6210    4.2220 c3        1 3L2      0.144100
     26 O3         -1.4290    0.5980    4.6840 os        1 3L2     -0.420900
     27 C9         -0.5300   -0.2040    4.0280 c         1 3L2      0.640300
     28 O2         -0.9500   -0.9600    3.1460 o         1 3L2     -0.555000
     29 C8          0.8340    0.0020    4.5290 ce        1 3L2     -0.181200
     30 C7          1.9550   -0.4770    3.9810 cf        1 3L2     -0.060000
     31 C6          2.1190   -1.3510    2.8340 cf        1 3L2     -0.076000
     32 C5          1.8290   -1.1050    1.5520 ce        1 3L2     -0.168200
     33 C4          1.1790    0.1160    1.0590 c         1 3L2      0.640300
     34 O1          1.2280    1.2670    1.5000 o         1 3L2     -0.540000
     35 C3         -0.5110    0.8700   -0.4740 c3        1 3L2      0.137400
     36 C2         -1.8870    0.4760    0.0440 c3        1 3L2     -0.114400
     37 H1         -2.8030    0.4950   -1.9060 hc        1 3L2      0.065700
     38 H2         -4.7670   -0.9050   -1.3910 h1        1 3L2      0.107700
     39 H3         -4.4680    1.1830    0.4940 ho        1 3L2      0.416000
     40 H4         -2.1980   -2.2820   -0.6680 hc        1 3L2      0.050033
     41 H5         -1.0460   -1.3680   -1.7260 hc        1 3L2      0.050033
     42 H6         -2.6600   -1.8940   -2.3780 hc        1 3L2      0.050033
     43 H7         -5.2830   -2.3190    2.7610 h1        1 3L2      0.069700
     44 H8         -3.5290   -2.0570    3.1980 h1        1 3L2      0.069700
     45 H9         -5.0820    1.0290    2.8520 h1        1 3L2      0.057700
     46 H10        -7.5130    1.2560    2.7760 ha        1 3L2      0.137000
     47 H11        -9.5160   -0.0060    2.4830 hc        1 3L2      0.044367
     48 H12        -9.2880   -1.8060    2.5220 hc        1 3L2      0.044367
     49 H13        -9.8750   -0.9350    3.9990 hc        1 3L2      0.044367
     50 H14        -7.9730   -2.1840    5.1070 hc        1 3L2      0.052700
     51 H15        -7.0900   -2.7140    3.6290 hc        1 3L2      0.052700
     52 H16        -5.4330   -2.4880    5.3330 hc        1 3L2      0.052700
     53 H17        -6.1630   -0.9540    5.9750 hc        1 3L2      0.052700
     54 H18        -4.7030    2.7780    6.0660 h1        1 3L2      0.099700
     55 H19        -2.5080    2.6590    4.9920 hc        1 3L2      0.075700
     56 H20        -3.5880    2.5540    3.5330 hc        1 3L2      0.075700
     57 H21        -2.3930   -2.0490    4.8060 hc        1 3L2      0.053367
     58 H22        -2.1830   -1.1440    6.3590 hc        1 3L2      0.053367
     59 H23        -3.6210   -2.2210    6.1400 hc        1 3L2      0.053367
     60 H24        -5.4230    0.9180    8.0350 h1        1 3L2      0.080700
     61 H25        -4.7770   -0.8170    7.8270 h1        1 3L2      0.080700
     62 H26        -2.8210    0.3460    3.1340 h1        1 3L2      0.093700
     63 H27         0.8830    0.6390    5.4310 ha        1 3L2      0.163000
     64 H28         2.9220   -0.2200    4.4630 ha        1 3L2      0.145000
     65 H29         2.5830   -2.3250    3.0950 ha        1 3L2      0.145000
     66 H30         2.0310   -1.8580    0.7700 ha        1 3L2      0.160000
     67 H31        -0.4610    0.8550   -1.5960 h1        1 3L2      0.069700
     68 H32        -0.2140    1.8830   -0.0960 h1        1 3L2      0.069700
     69 H33        -1.7770   -0.2040    0.9330 hc        1 3L2      0.064200
     70 H34        -2.4090    1.4060    0.3920 hc        1 3L2      0.064200
@<TRIPOS>BOND
     1    1   33 1   
     2    1   35 1   
     3    2    5 1   
     4    2    7 1   
     5    2   36 1   
     6    2   37 1   
     7    3    4 2   
     8    4    5 1   
     9    4    8 1   
    10    5    6 1   
    11    5   38 1   
    12    6   39 1   
    13    7   40 1   
    14    7   41 1   
    15    7   42 1   
    16    8    9 1   
    17    9   10 1   
    18    9   43 1   
    19    9   44 1   
    20   10   11 1   
    21   10   16 1   
    22   10   20 1   
    23   11   12 1   
    24   11   17 1   
    25   11   45 1   
    26   12   13 2   
    27   12   46 1   
    28   13   14 1   
    29   13   15 1   
    30   14   47 1   
    31   14   48 1   
    32   14   49 1   
    33   15   16 1   
    34   15   50 1   
    35   15   51 1   
    36   16   52 1   
    37   16   53 1   
    38   17   18 1   
    39   18   19 1   
    40   18   22 1   
    41   18   54 1   
    42   19   25 1   
    43   19   55 1   
    44   19   56 1   
    45   20   21 1   
    46   20   22 1   
    47   20   25 1   
    48   21   57 1   
    49   21   58 1   
    50   21   59 1   
    51   22   23 1   
    52   22   24 1   
    53   23   24 1   
    54   24   60 1   
    55   24   61 1   
    56   25   26 1   
    57   25   62 1   
    58   26   27 1   
    59   27   28 2   
    60   27   29 1   
    61   29   30 2   
    62   29   63 1   
    63   30   31 1   
    64   30   64 1   
    65   31   32 2   
    66   31   65 1   
    67   32   33 1   
    68   32   66 1   
    69   33   34 2   
    70   35   36 1   
    71   35   67 1   
    72   35   68 1   
    73   36   69 1   
    74   36   70 1   
@<TRIPOS>SUBSTRUCTURE
     1 3L2         1 TEMP              0 ****  ****    0 ROOT
