@<TRIPOS>MOLECULE
3L5
   51    52     1     0     0
SMALL
bcc


@<TRIPOS>ATOM
      1 OAE         0.0000    0.0000    0.0000 o         1 3L5     -0.531833
      2 PBB         1.4800    0.0000    0.0000 p5        1 3L5      0.551700
      3 OAF         2.0160    0.0000    1.5180 o         1 3L5     -0.531833
      4 OAC         2.0180   -1.3150   -0.7590 o         1 3L5     -0.531833
      5 CAP         2.0890    1.4890   -0.8590 c3        1 3L5     -0.073600
      6 CAK         1.4800    1.5530   -2.2610 c3        1 3L5      0.250400
      7 OAU         1.9560    2.7210   -2.9340 os        1 3L5     -0.465600
      8 CAJ         1.4450    2.8770   -4.2590 c3        1 3L5      0.189400
      9 CAL         2.0190    4.1510   -4.8790 c3        1 3L5     -0.020200
     10 NAZ         3.4720    4.0060   -5.0390 nx        1 3L5     -0.018400
     11 CAN         3.7930    2.9630   -6.0220 c3        1 3L5      0.008800
     12 CAQ         5.2610    2.5580   -5.8750 c3        1 3L5     -0.075600
     13 PBC         5.6630    1.2720   -7.1030 p5        1 3L5      0.508700
     14 OAG         7.2360    0.9390   -7.0360 o         1 3L5     -0.588500
     15 OAH         4.8190   -0.0610   -6.7780 o         1 3L5     -0.588500
     16 OAD         5.3160    1.7570   -8.4580 o         1 3L5     -0.588500
     17 CAM         4.0910    5.2870   -5.4080 c3        1 3L5     -0.045200
     18 CAO         4.0700    6.2310   -4.2040 c3        1 3L5     -0.045700
     19 N9          4.7960    7.4590   -4.5330 na        1 3L5      0.247100
     20 C4          4.2870    8.5510   -5.1640 cc        1 3L5     -0.303000
     21 N3          3.0580    8.8850   -5.6730 na        1 3L5     -0.142600
     22 C2          2.8600   10.0930   -6.2630 cc        1 3L5     -0.130900
     23 N2          1.6180   10.3880   -6.7570 nz        1 3L5      0.323400
     24 N1          3.8170   10.9900   -6.3770 nd        1 3L5     -0.757100
     25 C6          5.0520   10.7550   -5.9110 c         1 3L5      0.648000
     26 O6          5.9320   11.5960   -6.0230 o         1 3L5     -0.690100
     27 C5          5.3260    9.4680   -5.2640 cd        1 3L5      0.198800
     28 N7          6.4180    8.9050   -4.6950 nd        1 3L5     -0.509000
     29 C8          6.1070    7.7180   -4.2570 cc        1 3L5      0.159400
     30 H3          1.8020    2.3710   -0.3000 hc        1 3L5      0.023200
     31 H4          3.1690    1.4450   -0.9360 hc        1 3L5      0.023200
     32 H5          0.4000    1.5950   -2.1840 h1        1 3L5      0.009200
     33 H6          1.7670    0.6710   -2.8200 h1        1 3L5      0.009200
     34 H7          0.3640    2.9470   -4.2230 h1        1 3L5      0.023200
     35 H8          1.7310    2.0220   -4.8600 h1        1 3L5      0.023200
     36 H9          1.5640    4.3180   -5.8480 hx        1 3L5      0.054200
     37 H10         1.8090    4.9940   -4.2320 hx        1 3L5      0.054200
     38 H12         3.6220    3.3440   -7.0220 hx        1 3L5      0.085200
     39 H13         3.1620    2.1000   -5.8520 hx        1 3L5      0.085200
     40 H14         5.8930    3.4230   -6.0390 hc        1 3L5      0.029200
     41 H15         5.4310    2.1710   -4.8780 hc        1 3L5      0.029200
     42 H18         5.1160    5.1170   -5.7160 hx        1 3L5      0.087200
     43 H19         3.5380    5.7330   -6.2260 hx        1 3L5      0.087200
     44 H20         3.0450    6.4740   -3.9530 h1        1 3L5      0.040700
     45 H21         4.5440    5.7470   -3.3580 h1        1 3L5      0.040700
     46 H22         2.2990    8.2350   -5.6070 hn        1 3L5      0.213800
     47 H23         0.9510   10.3780   -6.0110 hn        1 3L5      0.110467
     48 H24         1.6340   11.2960   -7.1780 hn        1 3L5      0.110467
     49 H25         6.7850    7.0420   -3.7500 h5        1 3L5      0.025100
     50 HAZ1        3.8520    3.7250   -4.1570 hn        1 3L5      0.280800
     51 H231        1.3610    9.7070   -7.4440 hn        1 3L5      0.110467
@<TRIPOS>BOND
     1    1    2 1   
     2    2    3 1   
     3    2    4 1   
     4    2    5 1   
     5    5    6 1   
     6    5   30 1   
     7    5   31 1   
     8    6    7 1   
     9    6   32 1   
    10    6   33 1   
    11    7    8 1   
    12    8    9 1   
    13    8   34 1   
    14    8   35 1   
    15    9   10 1   
    16    9   36 1   
    17    9   37 1   
    18   10   11 1   
    19   10   17 1   
    20   10   50 1   
    21   11   12 1   
    22   11   38 1   
    23   11   39 1   
    24   12   13 1   
    25   12   40 1   
    26   12   41 1   
    27   13   14 1   
    28   13   15 1   
    29   13   16 1   
    30   17   18 1   
    31   17   42 1   
    32   17   43 1   
    33   18   19 1   
    34   18   44 1   
    35   18   45 1   
    36   19   20 1   
    37   19   29 1   
    38   20   21 1   
    39   20   27 2   
    40   21   22 1   
    41   21   46 1   
    42   22   23 1   
    43   22   24 2   
    44   23   47 1   
    45   23   48 1   
    46   23   51 1   
    47   24   25 1   
    48   25   26 2   
    49   25   27 1   
    50   27   28 1   
    51   28   29 2   
    52   29   49 1   
@<TRIPOS>SUBSTRUCTURE
     1 3L5         1 TEMP              0 ****  ****    0 ROOT
