@<TRIPOS>MOLECULE
3L6
   47    48     1     0     0
SMALL
bcc


@<TRIPOS>ATOM
      1 NAA         0.0000    0.0000    0.0000 nz        1 3L6     -0.054600
      2 CAG         1.4700    0.0000    0.0000 c3        1 3L6     -0.023200
      3 CAI         1.9790    0.0000    1.4420 c3        1 3L6     -0.050400
      4 CAJ         3.5090   -0.0000    1.4430 c3        1 3L6     -0.015200
      5 NAV         3.9980   -0.0870    2.8260 nx        1 3L6     -0.014400
      6 CAL         5.4190   -0.4630    2.8590 c3        1 3L6      0.013800
      7 CAN         5.5820   -1.8870    2.3250 c3        1 3L6     -0.089600
      8 PAX         7.3440   -2.3540    2.3660 p5        1 3L6      0.541700
      9 OAD         8.1370   -1.3500    1.6220 o         1 3L6     -0.472833
     10 OAF         7.5320   -3.8000    1.6830 o         1 3L6     -0.472833
     11 OAE         7.8480   -2.4120    3.8930 o         1 3L6     -0.472833
     12 CAK         3.7710    1.1730    3.5450 c3        1 3L6     -0.049200
     13 CAM         3.8070    0.9130    5.0530 c3        1 3L6     -0.032700
     14 N9          3.5510    2.1650    5.7690 na        1 3L6      0.252100
     15 C4          2.3240    2.6880    6.0710 cc        1 3L6     -0.164200
     16 N3          1.0630    2.2980    5.8500 nc        1 3L6     -0.513100
     17 C2          0.0460    3.0200    6.2650 cd        1 3L6     -0.152200
     18 N2         -1.2300    2.5800    6.0150 nz        1 3L6      0.282400
     19 N1          0.2210    4.1930    6.9370 ns        1 3L6      0.000600
     20 C6          1.4660    4.6510    7.1970 c         1 3L6      0.542000
     21 O6          1.6320    5.7000    7.7960 o         1 3L6     -0.607500
     22 C5          2.5700    3.8840    6.7560 cd        1 3L6      0.201800
     23 N7          3.9140    4.0320    6.8380 nd        1 3L6     -0.469000
     24 C8          4.4950    3.0180    6.2650 cc        1 3L6      0.241400
     25 H1         -0.3340    0.8060    0.4900 hn        1 3L6      0.212467
     26 H2         -0.3340   -0.8280    0.4530 hn        1 3L6      0.212467
     27 H4          1.8310   -0.8850   -0.5110 hx        1 3L6      0.081200
     28 H5          1.8310    0.8850   -0.5110 hx        1 3L6      0.081200
     29 H6          1.6180    0.8850    1.9530 hc        1 3L6      0.035200
     30 H7          1.6180   -0.8840    1.9530 hc        1 3L6      0.035200
     31 H8          3.8700   -0.8510    0.8780 hx        1 3L6      0.098200
     32 H9          3.8710    0.9140    0.9890 hx        1 3L6      0.098200
     33 H11         5.9880    0.2210    2.2410 hx        1 3L6      0.093200
     34 H12         5.7810   -0.4170    3.8780 hx        1 3L6      0.093200
     35 H13         5.2200   -1.9340    1.3050 hc        1 3L6      0.031700
     36 H14         5.0130   -2.5720    2.9420 hc        1 3L6      0.031700
     37 H17         2.8030    1.5760    3.2710 hx        1 3L6      0.075700
     38 H18         4.5450    1.8840    3.2820 hx        1 3L6      0.075700
     39 H19         3.0470    0.1860    5.3120 h1        1 3L6      0.059200
     40 H20         4.7820    0.5310    5.3300 h1        1 3L6      0.059200
     41 H21        -1.6290    3.1190    5.2720 hn        1 3L6      0.174133
     42 H22        -1.2040    1.6150    5.7500 hn        1 3L6      0.174133
     43 H23        -0.5760    4.7180    7.2390 hn        1 3L6      0.172500
     44 H24         5.5660    2.8730    6.1920 h5        1 3L6      0.045100
     45 HAA3       -0.3340    0.0210   -0.9430 hn        1 3L6      0.212467
     46 HAV1        3.4790   -0.8050    3.2910 hn        1 3L6      0.253800
     47 H231       -1.7870    2.6840    6.8400 hn        1 3L6      0.174133
@<TRIPOS>BOND
     1    1    2 1   
     2    1   25 1   
     3    1   26 1   
     4    1   45 1   
     5    2    3 1   
     6    2   27 1   
     7    2   28 1   
     8    3    4 1   
     9    3   29 1   
    10    3   30 1   
    11    4    5 1   
    12    4   31 1   
    13    4   32 1   
    14    5    6 1   
    15    5   12 1   
    16    5   46 1   
    17    6    7 1   
    18    6   33 1   
    19    6   34 1   
    20    7    8 1   
    21    7   35 1   
    22    7   36 1   
    23    8    9 1   
    24    8   10 1   
    25    8   11 1   
    26   12   13 1   
    27   12   37 1   
    28   12   38 1   
    29   13   14 1   
    30   13   39 1   
    31   13   40 1   
    32   14   15 1   
    33   14   24 1   
    34   15   16 1   
    35   15   22 2   
    36   16   17 2   
    37   17   18 1   
    38   17   19 1   
    39   18   41 1   
    40   18   42 1   
    41   18   47 1   
    42   19   20 1   
    43   19   43 1   
    44   20   21 2   
    45   20   22 1   
    46   22   23 1   
    47   23   24 2   
    48   24   44 1   
@<TRIPOS>SUBSTRUCTURE
     1 3L6         1 TEMP              0 ****  ****    0 ROOT
