@<TRIPOS>MOLECULE
3L7
   46    47     1     0     0
SMALL
bcc


@<TRIPOS>ATOM
      1 OAD         1.7780    0.5620   -1.9680 o         1 3L7     -0.886500
      2 PBA         1.3640    1.1660   -0.6720 p5        1 3L7      2.036000
      3 OAE        -0.0060    0.9900   -0.1280 o         1 3L7     -0.886500
      4 OAB         2.4100    0.4020    0.3500 oh        1 3L7     -0.835000
      5 CAP         1.7800    2.7660   -0.5270 c2        1 3L7     -0.933000
      6 CAK         2.8030    3.5740   -0.8030 c2        1 3L7      0.113000
      7 OAU         4.0420    3.4180   -1.3600 os        1 3L7     -0.251000
      8 CAJ         4.3080    2.3320   -2.2540 c3        1 3L7     -0.078000
      9 CAL         4.5070    2.9010   -3.6570 c3        1 3L7     -0.148000
     10 NAY         5.7510    3.7430   -3.7990 nx        1 3L7      0.186000
     11 CAN         5.5540    4.7200   -4.9260 c3        1 3L7     -0.114000
     12 CAQ         4.7100    5.9190   -4.5950 c3        1 3L7     -0.841000
     13 PBB         4.4590    6.7820   -6.0450 p5        1 3L7      1.985000
     14 OAF         5.9960    7.1660   -6.4900 oh        1 3L7     -0.828000
     15 OAG         3.9100    8.1280   -5.7370 o         1 3L7     -0.872000
     16 OAC         3.8790    5.8900   -7.0740 o         1 3L7     -0.872000
     17 CAM         6.9100    2.9410   -3.9850 c2        1 3L7     -0.788000
     18 CAO         7.8970    2.7080   -2.9360 c3        1 3L7      0.137000
     19 N9          9.1120    3.5100   -2.9990 na        1 3L7     -0.183000
     20 C4         10.2730    3.3100   -2.2410 c2        1 3L7      0.060000
     21 N3         10.5380    2.4220   -1.2130 n2        1 3L7     -0.305000
     22 C2         11.7560    2.4880   -0.6900 c1        1 3L7     -0.187000
     23 N1         12.7330    3.3850   -1.1200 ns        1 3L7     -0.323000
     24 C6         12.5580    4.3210   -2.1550 c2        1 3L7      0.336000
     25 O6         13.5110    5.0860   -2.4700 o         1 3L7     -0.498000
     26 C5         11.2400    4.2760   -2.7520 c2        1 3L7     -0.315000
     27 N7         10.6730    5.0160   -3.7960 n2        1 3L7     -0.136000
     28 C8          9.4230    4.5330   -3.9220 c2        1 3L7     -0.128000
     29 H3          0.9480    3.2950   -0.0150 ha        1 3L7      0.137000
     30 H4          2.7690    4.6460   -0.4940 h4        1 3L7      0.104000
     31 H5          3.4640    1.5800   -2.2650 h1        1 3L7      0.149500
     32 H6          5.2540    1.8630   -1.8690 h1        1 3L7      0.149500
     33 H7          4.5970    2.0410   -4.3750 hx        1 3L7      0.116500
     34 H8          3.6110    3.5220   -3.9310 hx        1 3L7      0.116500
     35 H10         6.5750    5.0790   -5.2480 hx        1 3L7      0.137500
     36 H11         5.0870    4.1760   -5.7980 hx        1 3L7      0.137500
     37 H12         5.2130    6.5660   -3.8380 hc        1 3L7      0.111500
     38 H13         3.7220    5.6280   -4.1660 hc        1 3L7      0.111500
     39 H16         3.0050   -0.1660   -0.1270 ho        1 3L7      0.218000
     40 H17         7.0320    2.5180   -4.9780 hx        1 3L7      0.135000
     41 H18         8.2380    1.6310   -2.9970 h1        1 3L7      0.063000
     42 H19         7.4680    2.8690   -1.9020 h1        1 3L7      0.063000
     43 H20         6.1680    8.0950   -6.3900 ho        1 3L7      0.221000
     44 H21        13.6120    3.3640   -0.6680 hn        1 3L7      0.195000
     45 H22         8.6800    4.8640   -4.6540 h5        1 3L7      0.185000
     46 HAY1        5.8460    4.2790   -2.9290 hn        1 3L7      0.204000
@<TRIPOS>BOND
     1    1    2 1   
     2    2    3 1   
     3    2    4 1   
     4    2    5 1   
     5    4   39 1   
     6    5    6 1   
     7    5   29 1   
     8    6    7 1   
     9    6   30 1   
    10    7    8 1   
    11    8    9 1   
    12    8   31 1   
    13    8   32 1   
    14    9   10 1   
    15    9   33 1   
    16    9   34 1   
    17   10   11 1   
    18   10   17 1   
    19   10   46 1   
    20   11   12 1   
    21   11   35 1   
    22   11   36 1   
    23   12   13 1   
    24   12   37 1   
    25   12   38 1   
    26   13   14 1   
    27   13   15 1   
    28   13   16 1   
    29   14   43 1   
    30   17   18 1   
    31   17   40 1   
    32   18   19 1   
    33   18   41 1   
    34   18   42 1   
    35   19   20 1   
    36   19   28 1   
    37   20   21 1   
    38   20   26 1   
    39   21   22 1   
    40   22   23 1   
    41   23   24 1   
    42   23   44 1   
    43   24   25 1   
    44   24   26 1   
    45   26   27 1   
    46   27   28 1   
    47   28   45 1   
@<TRIPOS>SUBSTRUCTURE
     1 3L7         1 TEMP              0 ****  ****    0 ROOT
