@<TRIPOS>MOLECULE
3LA
   36    35     1     0     0
SMALL
bcc


@<TRIPOS>ATOM
      1 O21         2.2410    1.9050    1.9930 o         1 3LA     -0.832300
      2 O22         1.8490    1.5950   -0.1840 o         1 3LA     -0.832300
      3 C21         1.9430    1.1800    1.0010 c         1 3LA      0.924600
      4 C22         1.7290   -0.3400    1.2310 c3        1 3LA     -0.312400
      5 C23         0.7530   -0.6440    2.3140 c         1 3LA      0.600100
      6 C24         1.1950   -0.2690    3.7010 c3        1 3LA     -0.204400
      7 C25         0.1380   -0.5170    4.7510 c3        1 3LA     -0.067400
      8 C26         0.6210   -0.1010    6.1230 c3        1 3LA     -0.078400
      9 C27        -0.4410   -0.3360    7.1760 c3        1 3LA     -0.078400
     10 C28         0.0420    0.0790    8.5490 c3        1 3LA     -0.079400
     11 C29        -1.0200   -0.1550    9.6010 c3        1 3LA     -0.078400
     12 C30        -0.5370    0.2600   10.9740 c3        1 3LA     -0.079400
     13 C31        -1.5990    0.0260   12.0280 c3        1 3LA     -0.080400
     14 C32        -1.1230    0.4390   13.3970 c3        1 3LA     -0.091100
     15 O15        -0.3480   -1.1780    2.0980 o         1 3LA     -0.608100
     16 H221        1.3900   -0.7970    0.2680 hc        1 3LA      0.051700
     17 H222        2.7270   -0.7660    1.5060 hc        1 3LA      0.051700
     18 H241        1.4840    0.8240    3.6670 hc        1 3LA      0.088700
     19 H242        2.1250   -0.8470    3.9440 hc        1 3LA      0.088700
     20 H251       -0.1420   -1.6030    4.7560 hc        1 3LA      0.040700
     21 H252       -0.7890    0.0550    4.4820 hc        1 3LA      0.040700
     22 H261        1.5470   -0.6760    6.3880 hc        1 3LA      0.037700
     23 H262        0.9020    0.9860    6.1060 hc        1 3LA      0.037700
     24 H271       -1.3650    0.2420    6.9110 hc        1 3LA      0.036700
     25 H272       -0.7230   -1.4220    7.1890 hc        1 3LA      0.036700
     26 H281        0.3240    1.1650    8.5340 hc        1 3LA      0.038200
     27 H282        0.9670   -0.4980    8.8130 hc        1 3LA      0.038200
     28 H291       -1.3030   -1.2410    9.6150 hc        1 3LA      0.037200
     29 H292       -1.9450    0.4230    9.3370 hc        1 3LA      0.037200
     30 H301       -0.2550    1.3460   10.9610 hc        1 3LA      0.038200
     31 H302        0.3870   -0.3180   11.2390 hc        1 3LA      0.038200
     32 H311       -2.5230    0.6040   11.7610 hc        1 3LA      0.037200
     33 H312       -1.8820   -1.0600   12.0380 hc        1 3LA      0.037200
     34 H321       -1.9200    0.2580   14.1580 hc        1 3LA      0.029033
     35 H322       -0.8600    1.5240   13.4120 hc        1 3LA      0.029033
     36 H323       -0.2160   -0.1440   13.6900 hc        1 3LA      0.029033
@<TRIPOS>BOND
     1    1    3 1   
     2    2    3 1   
     3    3    4 1   
     4    4    5 1   
     5    4   16 1   
     6    4   17 1   
     7    5    6 1   
     8    5   15 2   
     9    6    7 1   
    10    6   18 1   
    11    6   19 1   
    12    7    8 1   
    13    7   20 1   
    14    7   21 1   
    15    8    9 1   
    16    8   22 1   
    17    8   23 1   
    18    9   10 1   
    19    9   24 1   
    20    9   25 1   
    21   10   11 1   
    22   10   26 1   
    23   10   27 1   
    24   11   12 1   
    25   11   28 1   
    26   11   29 1   
    27   12   13 1   
    28   12   30 1   
    29   12   31 1   
    30   13   14 1   
    31   13   32 1   
    32   13   33 1   
    33   14   34 1   
    34   14   35 1   
    35   14   36 1   
@<TRIPOS>SUBSTRUCTURE
     1 3LA         1 TEMP              0 ****  ****    0 ROOT
