@<TRIPOS>MOLECULE
3LA
   36    35     1     0     0
SMALL
bcc


@<TRIPOS>ATOM
      1 O21         2.3790    1.7860    2.0090 o         1 3LA     -0.832300
      2 O22         1.9690    1.5220   -0.1700 o         1 3LA     -0.832300
      3 C21         2.0310    1.0910    1.0120 c         1 3LA      0.924600
      4 C22         1.7100   -0.4110    1.2300 c3        1 3LA     -0.312400
      5 C23         0.7120   -0.6520    2.3100 c         1 3LA      0.600100
      6 C24         1.1780   -0.3200    3.7000 c3        1 3LA     -0.204400
      7 C25         0.1040   -0.4990    4.7460 c3        1 3LA     -0.067400
      8 C26         0.6140   -0.1310    6.1230 c3        1 3LA     -0.078400
      9 C27        -0.4640   -0.2960    7.1720 c3        1 3LA     -0.078400
     10 C28         0.0460    0.0700    8.5500 c3        1 3LA     -0.079400
     11 C29        -1.0330   -0.0930    9.5990 c3        1 3LA     -0.078400
     12 C30        -0.5230    0.2720   10.9760 c3        1 3LA     -0.079400
     13 C31        -1.6010    0.1100   12.0260 c3        1 3LA     -0.080400
     14 C32        -1.0970    0.4710   13.3990 c3        1 3LA     -0.091100
     15 O15        -0.4230   -1.1050    2.0890 o         1 3LA     -0.608100
     16 H221        1.3400   -0.8360    0.2630 hc        1 3LA      0.051700
     17 H222        2.6740   -0.9090    1.5020 hc        1 3LA      0.051700
     18 H241        1.5460    0.7490    3.6740 hc        1 3LA      0.088700
     19 H242        2.0630   -0.9660    3.9400 hc        1 3LA      0.088700
     20 H251       -0.2550   -1.5620    4.7430 hc        1 3LA      0.040700
     21 H252       -0.7780    0.1410    4.4820 hc        1 3LA      0.040700
     22 H261        1.4940   -0.7750    6.3840 hc        1 3LA      0.037700
     23 H262        0.9750    0.9320    6.1160 hc        1 3LA      0.037700
     24 H271       -1.3420    0.3520    6.9120 hc        1 3LA      0.036700
     25 H272       -0.8270   -1.3580    7.1750 hc        1 3LA      0.036700
     26 H281        0.4090    1.1320    8.5450 hc        1 3LA      0.038200
     27 H282        0.9240   -0.5770    8.8100 hc        1 3LA      0.038200
     28 H291       -1.3970   -1.1540    9.6010 hc        1 3LA      0.037200
     29 H292       -1.9110    0.5560    9.3390 hc        1 3LA      0.037200
     30 H301       -0.1590    1.3330   10.9730 hc        1 3LA      0.038200
     31 H302        0.3550   -0.3770   11.2360 hc        1 3LA      0.038200
     32 H311       -2.4780    0.7590   11.7640 hc        1 3LA      0.037200
     33 H312       -1.9660   -0.9520   12.0260 hc        1 3LA      0.037200
     34 H321       -1.9070    0.3450   14.1580 hc        1 3LA      0.029033
     35 H322       -0.7520    1.5330   13.4250 hc        1 3LA      0.029033
     36 H323       -0.2380   -0.1820   13.6880 hc        1 3LA      0.029033
@<TRIPOS>BOND
     1    1    3 1   
     2    2    3 1   
     3    3    4 1   
     4    4    5 1   
     5    4   16 1   
     6    4   17 1   
     7    5    6 1   
     8    5   15 2   
     9    6    7 1   
    10    6   18 1   
    11    6   19 1   
    12    7    8 1   
    13    7   20 1   
    14    7   21 1   
    15    8    9 1   
    16    8   22 1   
    17    8   23 1   
    18    9   10 1   
    19    9   24 1   
    20    9   25 1   
    21   10   11 1   
    22   10   26 1   
    23   10   27 1   
    24   11   12 1   
    25   11   28 1   
    26   11   29 1   
    27   12   13 1   
    28   12   30 1   
    29   12   31 1   
    30   13   14 1   
    31   13   32 1   
    32   13   33 1   
    33   14   34 1   
    34   14   35 1   
    35   14   36 1   
@<TRIPOS>SUBSTRUCTURE
     1 3LA         1 TEMP              0 ****  ****    0 ROOT
