@<TRIPOS>MOLECULE
3LA
   36    35     1     0     0
SMALL
bcc


@<TRIPOS>ATOM
      1 O21         3.7410   -1.2900   -1.9110 o         1 3LA     -0.832300
      2 O22         5.8020   -0.4900   -1.5920 o         1 3LA     -0.832300
      3 C21         4.6570   -0.8140   -1.1810 c         1 3LA      0.924600
      4 C22         4.3890   -0.6620    0.3400 c3        1 3LA     -0.312400
      5 C23         3.1380    0.0850    0.6500 c         1 3LA      0.600100
      6 C24         1.8630   -0.6120    0.2680 c3        1 3LA     -0.204400
      7 C25         0.6290    0.2220    0.5220 c3        1 3LA     -0.067400
      8 C26        -0.6250   -0.5120    0.0980 c3        1 3LA     -0.078400
      9 C27        -1.8620    0.3260    0.3410 c3        1 3LA     -0.078400
     10 C28        -3.1160   -0.4080   -0.0830 c3        1 3LA     -0.079400
     11 C29        -4.3530    0.4300    0.1590 c3        1 3LA     -0.078400
     12 C30        -5.6080   -0.3030   -0.2650 c3        1 3LA     -0.079400
     13 C31        -6.8460    0.5340   -0.0240 c3        1 3LA     -0.080400
     14 C32        -8.0970   -0.1920   -0.4440 c3        1 3LA     -0.091100
     15 O15         3.1380    1.2010    1.1940 o         1 3LA     -0.608100
     16 H221        4.3110   -1.6980    0.7570 hc        1 3LA      0.051700
     17 H222        5.2690   -0.1490    0.8030 hc        1 3LA      0.051700
     18 H241        1.9520   -0.8790   -0.8280 hc        1 3LA      0.088700
     19 H242        1.8020   -1.5770    0.8370 hc        1 3LA      0.088700
     20 H251        0.5690    0.4850    1.6110 hc        1 3LA      0.040700
     21 H252        0.7150    1.1880   -0.0410 hc        1 3LA      0.040700
     22 H261       -0.5530   -0.7750   -0.9900 hc        1 3LA      0.037700
     23 H262       -0.7070   -1.4770    0.6660 hc        1 3LA      0.037700
     24 H271       -1.9290    0.5910    1.4290 hc        1 3LA      0.036700
     25 H272       -1.7790    1.2890   -0.2290 hc        1 3LA      0.036700
     26 H281       -3.0470   -0.6720   -1.1710 hc        1 3LA      0.038200
     27 H282       -3.1980   -1.3710    0.4860 hc        1 3LA      0.038200
     28 H291       -4.4220    0.6960    1.2460 hc        1 3LA      0.037200
     29 H292       -4.2710    1.3930   -0.4110 hc        1 3LA      0.037200
     30 H301       -5.5390   -0.5680   -1.3530 hc        1 3LA      0.038200
     31 H302       -5.6900   -1.2670    0.3050 hc        1 3LA      0.038200
     32 H311       -6.9110    0.8000    1.0640 hc        1 3LA      0.037200
     33 H312       -6.7610    1.4980   -0.5930 hc        1 3LA      0.037200
     34 H321       -8.0610   -0.4440   -1.5320 hc        1 3LA      0.029033
     35 H322       -8.2120   -1.1430    0.1300 hc        1 3LA      0.029033
     36 H323       -8.9970    0.4430   -0.2580 hc        1 3LA      0.029033
@<TRIPOS>BOND
     1    1    3 1   
     2    2    3 1   
     3    3    4 1   
     4    4    5 1   
     5    4   16 1   
     6    4   17 1   
     7    5    6 1   
     8    5   15 2   
     9    6    7 1   
    10    6   18 1   
    11    6   19 1   
    12    7    8 1   
    13    7   20 1   
    14    7   21 1   
    15    8    9 1   
    16    8   22 1   
    17    8   23 1   
    18    9   10 1   
    19    9   24 1   
    20    9   25 1   
    21   10   11 1   
    22   10   26 1   
    23   10   27 1   
    24   11   12 1   
    25   11   28 1   
    26   11   29 1   
    27   12   13 1   
    28   12   30 1   
    29   12   31 1   
    30   13   14 1   
    31   13   32 1   
    32   13   33 1   
    33   14   34 1   
    34   14   35 1   
    35   14   36 1   
@<TRIPOS>SUBSTRUCTURE
     1 3LA         1 TEMP              0 ****  ****    0 ROOT
