@<TRIPOS>MOLECULE
3LA
   36    35     1     0     0
SMALL
bcc


@<TRIPOS>ATOM
      1 O21        -4.1440   -4.0750   -5.0380 o         1 3LA     -0.832300
      2 O22        -2.1750   -4.4020   -5.9170 o         1 3LA     -0.832300
      3 C21        -2.9030   -4.2380   -4.9030 c         1 3LA      0.924600
      4 C22        -2.2860   -4.2440   -3.5210 c3        1 3LA     -0.312400
      5 C23        -1.9790   -2.8230   -3.1010 c         1 3LA      0.600100
      6 C24        -1.5960   -2.5240   -1.6680 c3        1 3LA     -0.204400
      7 C25        -0.8360   -1.2170   -1.6110 c3        1 3LA     -0.067400
      8 C26        -0.5380   -0.8700   -0.1690 c3        1 3LA     -0.078400
      9 C27         0.2400    0.4270   -0.1130 c3        1 3LA     -0.078400
     10 C28         0.4980    0.7980    1.3300 c3        1 3LA     -0.079400
     11 C29         1.3060    2.0760    1.3850 c3        1 3LA     -0.078400
     12 C30         1.5830    2.4360    2.8290 c3        1 3LA     -0.079400
     13 C31         2.4290    3.6880    2.8830 c3        1 3LA     -0.080400
     14 C32         2.5990    4.1210    4.3230 c3        1 3LA     -0.091100
     15 O15        -2.0410   -1.9220   -3.9130 o         1 3LA     -0.608100
     16 H221       -2.9130   -4.6430   -2.8860 hc        1 3LA      0.051700
     17 H222       -1.4590   -4.7650   -3.5350 hc        1 3LA      0.051700
     18 H241       -1.0310   -3.2450   -1.3240 hc        1 3LA      0.088700
     19 H242       -2.4050   -2.4550   -1.1220 hc        1 3LA      0.088700
     20 H251       -1.3770   -0.5080   -2.0120 hc        1 3LA      0.040700
     21 H252        0.0030   -1.3070   -2.1050 hc        1 3LA      0.040700
     22 H261       -0.0080   -1.5860    0.2360 hc        1 3LA      0.037700
     23 H262       -1.3770   -0.7680    0.3220 hc        1 3LA      0.037700
     24 H271       -0.2780    1.1360   -0.5450 hc        1 3LA      0.036700
     25 H272        1.0920    0.3160   -0.5790 hc        1 3LA      0.036700
     26 H281        0.9960    0.0780    1.7680 hc        1 3LA      0.038200
     27 H282       -0.3550    0.9310    1.7900 hc        1 3LA      0.038200
     28 H291        2.1540    1.9460    0.9140 hc        1 3LA      0.037200
     29 H292        0.8030    2.7980    0.9600 hc        1 3LA      0.037200
     30 H301        2.0600    1.7000    3.2630 hc        1 3LA      0.038200
     31 H302        0.7360    2.5940    3.2930 hc        1 3LA      0.038200
     32 H311        1.9890    4.4010    2.3780 hc        1 3LA      0.037200
     33 H312        3.3070    3.5060    2.4920 hc        1 3LA      0.037200
     34 H321        1.7180    4.2910    4.7180 hc        1 3LA      0.029033
     35 H322        3.0510    3.4110    4.8260 hc        1 3LA      0.029033
     36 H323        3.1360    4.9390    4.3570 hc        1 3LA      0.029033
@<TRIPOS>BOND
     1    1    3 1   
     2    2    3 1   
     3    3    4 1   
     4    4    5 1   
     5    4   16 1   
     6    4   17 1   
     7    5    6 1   
     8    5   15 2   
     9    6    7 1   
    10    6   18 1   
    11    6   19 1   
    12    7    8 1   
    13    7   20 1   
    14    7   21 1   
    15    8    9 1   
    16    8   22 1   
    17    8   23 1   
    18    9   10 1   
    19    9   24 1   
    20    9   25 1   
    21   10   11 1   
    22   10   26 1   
    23   10   27 1   
    24   11   12 1   
    25   11   28 1   
    26   11   29 1   
    27   12   13 1   
    28   12   30 1   
    29   12   31 1   
    30   13   14 1   
    31   13   32 1   
    32   13   33 1   
    33   14   34 1   
    34   14   35 1   
    35   14   36 1   
@<TRIPOS>SUBSTRUCTURE
     1 3LA         1 TEMP              0 ****  ****    0 ROOT
