@<TRIPOS>MOLECULE
3LD
   28    29     1     0     0
SMALL
bcc


@<TRIPOS>ATOM
      1 C4          0.1310   -0.0260   -0.0170 ca        1 3LD     -0.125000
      2 C5          2.1310    0.0320    1.3380 ca        1 3LD     -0.125000
      3 C6          1.5270    0.0320    0.0760 ca        1 3LD     -0.090300
      4 C7          2.3470    1.7180   -4.2980 cc        1 3LD     -0.340200
      5 C8          3.0140    1.4900   -3.1190 cd        1 3LD      0.143800
      6 C10         4.5260    1.5110   -5.3940 cc        1 3LD      0.476600
      7 C1         -0.0410   -0.0800    2.3930 ca        1 3LD     -0.126000
      8 C2         -0.6480   -0.0810    1.1370 ca        1 3LD     -0.125500
      9 C3          1.3490   -0.0240    2.4910 ca        1 3LD     -0.125500
     10 C9          3.0540    1.7550   -5.5670 c         1 3LD      0.487000
     11 C11         2.3560    0.0810   -1.1590 c3        1 3LD     -0.035100
     12 C12         2.2960    1.4560   -1.8040 c3        1 3LD     -0.054200
     13 N13         5.1330    1.2940   -4.2290 nd        1 3LD     -0.492400
     14 N14         4.3960    1.3170   -3.1260 na        1 3LD     -0.403100
     15 O15         2.5330    1.9570   -6.6670 o         1 3LD     -0.521100
     16 O16         5.2400    1.5220   -6.5610 oh        1 3LD     -0.540600
     17 H1         -0.3490   -0.0310   -1.0070 ha        1 3LD      0.131000
     18 H2          3.2270    0.0720    1.4230 ha        1 3LD      0.131000
     19 H4         -0.6570   -0.1240    3.3030 ha        1 3LD      0.134000
     20 H5         -1.7440   -0.1280    1.0550 ha        1 3LD      0.134500
     21 H6          1.8310   -0.0250    3.4800 ha        1 3LD      0.134500
     22 H7          3.4200   -0.1810   -0.9150 hc        1 3LD      0.053700
     23 H8          1.9830   -0.6890   -1.8880 hc        1 3LD      0.053700
     24 H9          1.2220    1.7410   -1.9730 hc        1 3LD      0.073700
     25 H10         2.7370    2.2220   -1.1100 hc        1 3LD      0.073700
     26 H11         4.8890    1.0670   -2.2930 hn        1 3LD      0.477800
     27 H12         6.1810    1.3610   -6.3770 ho        1 3LD      0.430000
     28 H3          1.2610    1.8800   -4.3170 ha        1 3LD      0.168000
@<TRIPOS>BOND
     1    1    3 ar  
     2    1    8 ar  
     3    1   17 1   
     4    2    3 ar  
     5    2    9 ar  
     6    2   18 1   
     7    3   11 1   
     8    4    5 2   
     9    4   10 1   
    10    4   28 1   
    11    5   12 1   
    12    5   14 1   
    13    6   10 1   
    14    6   13 2   
    15    6   16 1   
    16    7    8 ar  
    17    7    9 ar  
    18    7   19 1   
    19    8   20 1   
    20    9   21 1   
    21   10   15 2   
    22   11   12 1   
    23   11   22 1   
    24   11   23 1   
    25   12   24 1   
    26   12   25 1   
    27   13   14 1   
    28   14   26 1   
    29   16   27 1   
@<TRIPOS>SUBSTRUCTURE
     1 3LD         1 TEMP              0 ****  ****    0 ROOT
