@<TRIPOS>MOLECULE
3LD
   28    29     1     0     0
SMALL
bcc


@<TRIPOS>ATOM
      1 C4          3.2160    1.1220    0.2630 ca        1 3LD     -0.125000
      2 C5          3.4970   -1.2760    0.1390 ca        1 3LD     -0.125000
      3 C6          2.6650   -0.1650    0.3150 ca        1 3LD     -0.090300
      4 C7         -1.8580    1.0930   -0.4690 cc        1 3LD     -0.340200
      5 C8         -1.0810   -0.0370   -0.3940 cd        1 3LD      0.143800
      6 C10        -3.7410   -0.3480    0.1380 cc        1 3LD      0.476600
      7 C1          5.4050    0.1810   -0.1410 ca        1 3LD     -0.126000
      8 C2          4.5800    1.2930    0.0350 ca        1 3LD     -0.125500
      9 C3          4.8620   -1.1020   -0.0880 ca        1 3LD     -0.125500
     10 C9         -3.2870    1.0410   -0.2100 c         1 3LD      0.487000
     11 C11         1.2080   -0.3420    0.5680 c3        1 3LD     -0.035100
     12 C12         0.3930    0.0040   -0.6670 c3        1 3LD     -0.054200
     13 N13        -2.9510   -1.4180    0.1990 nd        1 3LD     -0.492400
     14 N14        -1.6660   -1.2640   -0.0920 na        1 3LD     -0.403100
     15 O15        -4.0560    2.0050   -0.2600 o         1 3LD     -0.521100
     16 O16        -5.0790   -0.4530    0.4060 oh        1 3LD     -0.540600
     17 H1          2.5670    1.9990    0.4050 ha        1 3LD      0.131000
     18 H2          3.0750   -2.2910    0.1830 ha        1 3LD      0.131000
     19 H4          6.4810    0.3170   -0.3200 ha        1 3LD      0.134000
     20 H5          5.0060    2.3060   -0.0040 ha        1 3LD      0.134500
     21 H6          5.5100   -1.9800   -0.2240 ha        1 3LD      0.134500
     22 H7          1.0020   -1.4010    0.8780 hc        1 3LD      0.053700
     23 H8          0.8950    0.3210    1.4200 hc        1 3LD      0.053700
     24 H9          0.6450   -0.7050   -1.5010 hc        1 3LD      0.073700
     25 H10         0.6650    1.0370   -1.0150 hc        1 3LD      0.073700
     26 H11        -1.1080   -2.0810    0.0500 hn        1 3LD      0.477800
     27 H12        -5.3040   -1.3740    0.6210 ho        1 3LD      0.430000
     28 H3         -1.4250    2.0680   -0.7280 ha        1 3LD      0.168000
@<TRIPOS>BOND
     1    1    3 ar  
     2    1    8 ar  
     3    1   17 1   
     4    2    3 ar  
     5    2    9 ar  
     6    2   18 1   
     7    3   11 1   
     8    4    5 2   
     9    4   10 1   
    10    4   28 1   
    11    5   12 1   
    12    5   14 1   
    13    6   10 1   
    14    6   13 2   
    15    6   16 1   
    16    7    8 ar  
    17    7    9 ar  
    18    7   19 1   
    19    8   20 1   
    20    9   21 1   
    21   10   15 2   
    22   11   12 1   
    23   11   22 1   
    24   11   23 1   
    25   12   24 1   
    26   12   25 1   
    27   13   14 1   
    28   14   26 1   
    29   16   27 1   
@<TRIPOS>SUBSTRUCTURE
     1 3LD         1 TEMP              0 ****  ****    0 ROOT
