@<TRIPOS>MOLECULE
3LD
   28    29     1     0     0
SMALL
bcc


@<TRIPOS>ATOM
      1 C4          0.1200   -0.0040   -0.0220 ca        1 3LD     -0.125000
      2 C5          2.1210    0.0090    1.3320 ca        1 3LD     -0.125000
      3 C6          1.5160    0.0300    0.0710 ca        1 3LD     -0.090300
      4 C7          2.3620    1.7460   -4.2870 cc        1 3LD     -0.340200
      5 C8          3.0260    1.4900   -3.1130 cd        1 3LD      0.143800
      6 C10         4.5330    1.5030   -5.3910 cc        1 3LD      0.476600
      7 C1         -0.0520   -0.0740    2.3870 ca        1 3LD     -0.126000
      8 C2         -0.6600   -0.0550    1.1320 ca        1 3LD     -0.125500
      9 C3          1.3390   -0.0430    2.4850 ca        1 3LD     -0.125500
     10 C9          3.0670    1.7820   -5.5580 c         1 3LD      0.487000
     11 C11         2.3450    0.0750   -1.1650 c3        1 3LD     -0.035100
     12 C12         2.3110    1.4570   -1.7960 c3        1 3LD     -0.054200
     13 N13         5.1380    1.2590   -4.2300 nd        1 3LD     -0.492400
     14 N14         4.4040    1.2860   -3.1250 na        1 3LD     -0.403100
     15 O15         2.5480    2.0080   -6.6540 o         1 3LD     -0.521100
     16 O16         5.2450    1.5110   -6.5600 oh        1 3LD     -0.540600
     17 H1         -0.3610    0.0070   -1.0120 ha        1 3LD      0.131000
     18 H2          3.2180    0.0310    1.4160 ha        1 3LD      0.131000
     19 H4         -0.6680   -0.1150    3.2970 ha        1 3LD      0.134000
     20 H5         -1.7570   -0.0820    1.0510 ha        1 3LD      0.134500
     21 H6          1.8220   -0.0600    3.4740 ha        1 3LD      0.134500
     22 H7          3.4040   -0.2090   -0.9240 hc        1 3LD      0.053700
     23 H8          1.9570   -0.6800   -1.9010 hc        1 3LD      0.053700
     24 H9          1.2430    1.7650   -1.9600 hc        1 3LD      0.073700
     25 H10         2.7690    2.2070   -1.0960 hc        1 3LD      0.073700
     26 H11         4.8930    1.0160   -2.2960 hn        1 3LD      0.477800
     27 H12         6.1830    1.3270   -6.3800 ho        1 3LD      0.430000
     28 H3          1.2800    1.9320   -4.3020 ha        1 3LD      0.168000
@<TRIPOS>BOND
     1    1    3 ar  
     2    1    8 ar  
     3    1   17 1   
     4    2    3 ar  
     5    2    9 ar  
     6    2   18 1   
     7    3   11 1   
     8    4    5 2   
     9    4   10 1   
    10    4   28 1   
    11    5   12 1   
    12    5   14 1   
    13    6   10 1   
    14    6   13 2   
    15    6   16 1   
    16    7    8 ar  
    17    7    9 ar  
    18    7   19 1   
    19    8   20 1   
    20    9   21 1   
    21   10   15 2   
    22   11   12 1   
    23   11   22 1   
    24   11   23 1   
    25   12   24 1   
    26   12   25 1   
    27   13   14 1   
    28   14   26 1   
    29   16   27 1   
@<TRIPOS>SUBSTRUCTURE
     1 3LD         1 TEMP              0 ****  ****    0 ROOT
