@<TRIPOS>MOLECULE
3LD
   28    21     1     0     0
SMALL
bcc


@<TRIPOS>ATOM
      1 C4          0.4880   -2.7120   -0.0750 c1        1 3LD     -0.126250
      2 C5         -0.6210   -2.2940    2.0130 c1        1 3LD     -0.121000
      3 C6         -0.2210   -1.8620    0.7580 c1        1 3LD     -0.083000
      4 C7         -0.0060    2.9460    0.1540 c1        1 3LD     -0.320000
      5 C8          0.2220    1.6680   -0.5540 c1        1 3LD      0.065000
      6 C10        -0.3880    4.0770   -2.0730 c1        1 3LD     -0.013000
      7 C1          0.3980   -4.4290    1.6010 c1        1 3LD     -0.126250
      8 C2          0.7980   -3.9960    0.3470 c1        1 3LD     -0.126250
      9 C3         -0.3120   -3.5780    2.4340 c1        1 3LD     -0.126250
     10 C9         -0.3050    4.1400   -0.5990 c1        1 3LD      0.298000
     11 C11        -0.6430   -0.4900    0.2790 c2        1 3LD     -0.121000
     12 C12         0.5630    0.4210    0.2300 c3        1 3LD     -0.137000
     13 N13        -0.1630    2.8170   -2.7610 n1        1 3LD     -0.119000
     14 N14         0.1870    1.6270   -2.0070 n1        1 3LD     -0.203000
     15 O15        -0.4000    5.2090   -0.0300 o         1 3LD     -0.281000
     16 O16        -0.6800    5.2390   -2.8110 o         1 3LD     -0.206000
     17 H1          0.7700   -2.4080   -0.9580 ha        1 3LD      0.132750
     18 H2         -1.1210   -1.6950    2.5990 ha        1 3LD      0.134000
     19 H3          0.0500    2.9830    1.1280 ha        1 3LD      0.168000
     20 H4          0.6160   -5.3330    1.8980 ha        1 3LD      0.132750
     21 H5          1.2970   -4.5950   -0.2400 ha        1 3LD      0.132750
     22 H6         -0.5940   -3.8830    3.3180 ha        1 3LD      0.132750
     23 H7         -1.3070   -0.1200    0.8950 ha        1 3LD      0.092500
     24 H8         -1.0330   -0.5630   -0.6150 ha        1 3LD      0.092500
     25 H9          1.3060   -0.0450   -0.2050 hc        1 3LD      0.113500
     26 H10         0.8220    0.6680    1.1400 hc        1 3LD      0.113500
     27 H11         0.3270    0.8380   -2.4430 hn        1 3LD      0.272000
     28 H12        -0.0480    5.3690   -3.4230 ho        1 3LD      0.229000
@<TRIPOS>BOND
     1    1    8 1   
     2    1   17 1   
     3    2    3 1   
     4    2   18 1   
     5    4    5 1   
     6    4   19 1   
     7    5   12 1   
     8    6   10 1   
     9    6   13 1   
    10    7    9 1   
    11    7   20 1   
    12    8   21 1   
    13    9   22 1   
    14   10   15 1   
    15   11   12 1   
    16   11   23 1   
    17   11   24 1   
    18   12   25 1   
    19   12   26 1   
    20   14   27 1   
    21   16   28 1   
@<TRIPOS>SUBSTRUCTURE
     1 3LD         1 TEMP              0 ****  ****    0 ROOT
