@<TRIPOS>MOLECULE
3LG
   76    73     1     0     0
SMALL
bcc


@<TRIPOS>ATOM
      1 C1          2.2560   -2.1470   -0.1540 c1        1 3LG     -0.098000
      2 O1          2.9730   -1.3550    0.6210 os        1 3LG     -0.147000
      3 C2          4.1750   -1.8840    1.1580 c2        1 3LG      0.022000
      4 C3          4.7150   -3.1130    0.5060 c3        1 3LG     -0.129000
      5 C4          5.1270   -2.8660   -0.9550 c3        1 3LG     -0.014000
      6 O2          6.2150   -1.9580   -1.0330 os        1 3LG     -0.292000
      7 C5          4.6890   -1.2120    2.1940 c2        1 3LG     -0.234000
      8 C6          5.8810   -5.8680    2.6030 c1        1 3LG      0.178000
      9 C7          5.8760   -4.7780    1.9410 c1        1 3LG     -0.578000
     10 C8          5.8880   -3.6470    1.2600 c2        1 3LG      0.204000
     11 C20        -2.6700    0.1690   -4.2390 c3        1 3LG     -0.133000
     12 C21        -6.2810   -0.8050   -3.1270 c1        1 3LG     -0.193000
     13 N2         -6.9650   -1.7380   -3.0250 n1        1 3LG     -0.100000
     14 C22        -2.5140    0.9010   -6.8340 c1        1 3LG      0.039000
     15 C23        -1.3540    1.1840   -6.0040 c2        1 3LG      0.242000
     16 N3         -1.3830    0.7140   -4.6650 n         1 3LG     -0.258000
     17 C25         0.9300    1.5510   -4.2360 c3        1 3LG     -0.236000
     18 C26        -0.3190    0.8180   -3.7920 c2        1 3LG      0.167000
     19 C27        -0.3020    0.2250   -2.5270 c2        1 3LG     -0.331000
     20 C28         0.7520    0.3620   -1.6350 c1        1 3LG     -0.164000
     21 C29         1.7420    1.4320   -1.8690 c3        1 3LG     -0.069000
     22 C30         2.0050    1.7510   -3.2810 c1        1 3LG     -0.013000
     23 O7          2.9650    1.2180   -1.1730 oh        1 3LG     -0.308000
     24 C31         4.9110    0.1300   -3.6890 c2        1 3LG     -0.203000
     25 C32         5.7170   -0.6950   -3.0260 c2        1 3LG     -0.221000
     26 C33         5.8710   -0.6690   -1.5460 c3        1 3LG      0.003000
     27 N1         -6.5620    6.9950   -1.8990 n3        1 3LG     -0.170000
     28 C9         -6.2630    5.6010   -2.1470 c2        1 3LG      0.173000
     29 C10        -4.8940    5.5270   -2.4700 c2        1 3LG     -0.341000
     30 C11        -4.3100    6.9190   -2.3980 c3        1 3LG     -0.185000
     31 C12        -5.4910    7.7980   -2.0210 c1        1 3LG     -0.060000
     32 C13        -7.2170    4.5800   -2.0520 c2        1 3LG     -0.455000
     33 C14        -8.5960    4.6230   -2.1000 c1        1 3LG     -0.039000
     34 C15        -4.4890    3.1740   -3.1100 c2        1 3LG     -0.217000
     35 C16        -4.0940    4.4470   -2.8700 c2        1 3LG      0.025000
     36 C18        -9.0230    6.9930   -2.2810 c2        1 3LG      0.221000
     37 O3         -9.7900    7.7580   -2.8660 o         1 3LG     -0.327000
     38 O4         -9.3900    5.6610   -2.2940 os        1 3LG     -0.149000
     39 H11A        1.3690   -1.5470   -0.4960 ha        1 3LG      0.115000
     40 H12A        0.7390   -2.9310    1.5100 ha        1 3LG      0.004000
     41 H13A        1.1870   -3.4400    1.4660 ha        1 3LG      0.004000
     42 H41         4.2330   -2.5110   -1.5330 h1        1 3LG      0.106000
     43 H42         5.5060   -3.8280   -1.3950 h1        1 3LG      0.106000
     44 H5          4.1940   -0.3270    2.6150 ha        1 3LG      0.135500
     45 H6          5.6330   -1.5120    2.6640 ha        1 3LG      0.135500
     46 H7          6.8070   -3.0290    1.1840 ha        1 3LG      0.141000
     47 H8          3.8750   -3.8750    0.4810 hc        1 3LG      0.164000
     48 H20        -2.5130   -0.6280   -3.4530 h1        1 3LG      0.146500
     49 H211       -5.6330    0.0580   -3.2260 ha        1 3LG      0.279000
     50 H212       -3.1440   -0.3690   -5.1260 h1        1 3LG      0.146500
     51 HN2        -4.3730   -0.8050   -7.0050 ha        1 3LG      0.004000
     52 H221       -4.7950   -0.3400   -6.7490 ha        1 3LG      0.004000
     53 H222       -3.2710    1.6750   -7.0060 ha        1 3LG      0.126000
     54 H241       -5.4920    1.8860   -5.2850 ha        1 3LG      0.004000
     55 H242       -5.0800    1.5830   -5.7330 ha        1 3LG      0.004000
     56 H25         1.3810    1.0000   -5.1220 hc        1 3LG      0.185000
     57 H27        -1.1310   -0.4150   -2.1830 ha        1 3LG      0.152000
     58 H28         1.2820    2.3960   -1.4460 h1        1 3LG      0.155000
     59 H30         0.6650    2.5750   -4.6460 hc        1 3LG      0.185000
     60 H311        2.7590    0.6030   -0.4530 ho        1 3LG      0.222000
     61 H312        4.8430    0.1180   -4.7850 ha        1 3LG      0.132000
     62 H321        6.3450   -1.4410   -3.5410 ha        1 3LG      0.122000
     63 H322        4.2620    0.8720   -3.1900 ha        1 3LG      0.132000
     64 H331        4.9470   -0.2770   -1.0380 h1        1 3LG      0.102000
     65 H332        6.7550   -0.0340   -1.2610 h1        1 3LG      0.102000
     66 H11        -3.5150    7.0060   -1.6180 hc        1 3LG      0.107500
     67 H12        -3.8880    7.2500   -3.3780 hc        1 3LG      0.107500
     68 H13        -6.8100    3.5600   -1.9580 ha        1 3LG      0.140000
     69 H14        -5.4710    2.7050   -3.0340 h4        1 3LG      0.180000
     70 H16        -3.0220    4.6910   -3.0220 ha        1 3LG      0.110000
     71 H171       -7.8320    8.5720   -1.4090 h1        1 3LG      0.120500
     72 H172       -8.0220    7.0510   -0.3950 h1        1 3LG      0.120500
     73 O5         -0.3380    1.6900   -6.5310 o         1 3LG     -0.349000
     74 C24        -3.7540    1.0520   -3.6950 c1        1 3LG     -0.077000
     75 O6         -3.4450    2.3130   -3.5560 os        1 3LG     -0.121000
     76 C17        -7.8450    7.4440   -1.4400 c3        1 3LG     -0.060000
@<TRIPOS>BOND
     1    1    2 1   
     2    1   39 1   
     3    2    3 1   
     4    3    4 1   
     5    3    7 1   
     6    4    5 1   
     7    4   10 1   
     8    4   47 1   
     9    5    6 1   
    10    5   42 1   
    11    5   43 1   
    12    6   26 1   
    13    7   44 1   
    14    7   45 1   
    15    8    9 1   
    16    9   10 1   
    17   10   46 1   
    18   11   16 1   
    19   11   48 1   
    20   11   50 1   
    21   11   74 1   
    22   12   13 1   
    23   12   49 1   
    24   14   15 1   
    25   14   53 1   
    26   15   16 1   
    27   15   73 1   
    28   16   18 1   
    29   17   18 1   
    30   17   22 1   
    31   17   56 1   
    32   17   59 1   
    33   18   19 1   
    34   19   20 1   
    35   19   57 1   
    36   20   21 1   
    37   21   22 1   
    38   21   23 1   
    39   21   58 1   
    40   23   60 1   
    41   24   25 1   
    42   24   61 1   
    43   24   63 1   
    44   25   26 1   
    45   25   62 1   
    46   26   64 1   
    47   26   65 1   
    48   27   28 1   
    49   27   31 1   
    50   27   76 1   
    51   28   29 1   
    52   28   32 1   
    53   29   30 1   
    54   29   35 1   
    55   30   31 1   
    56   30   66 1   
    57   30   67 1   
    58   32   33 1   
    59   32   68 1   
    60   33   38 1   
    61   34   35 1   
    62   34   69 1   
    63   34   75 1   
    64   35   70 1   
    65   36   37 1   
    66   36   38 1   
    67   36   76 1   
    68   40   41 1   
    69   51   52 1   
    70   54   55 1   
    71   71   76 1   
    72   72   76 1   
    73   74   75 1   
@<TRIPOS>SUBSTRUCTURE
     1 3LG         1 TEMP              0 ****  ****    0 ROOT
