@<TRIPOS>MOLECULE
3LG
   76    69     1     0     0
SMALL
bcc


@<TRIPOS>ATOM
      1 C1         -3.9280    9.8080   -1.0360 c3        1 3LG     -0.075000
      2 O1         -3.5060    8.5040   -1.0950 os        1 3LG     -0.216000
      3 C2         -4.5660    7.5290   -0.8650 c2        1 3LG      0.078000
      4 C3         -4.3440    6.4560   -0.0430 c1        1 3LG     -0.135000
      5 C4         -3.0200    6.3520    0.7410 c2        1 3LG      0.023000
      6 O2         -2.9330    5.0830    1.3670 os        1 3LG     -0.278000
      7 C5         -5.7670    7.6470   -1.5300 c2        1 3LG     -0.204000
      8 C6         -6.7200    6.7140   -1.3740 c1        1 3LG     -0.096000
      9 C7         -6.4910    5.6000   -0.5210 c1        1 3LG     -0.160000
     10 C8         -5.3390    5.4810    0.1200 c2        1 3LG     -0.088000
     11 C20         0.2930   -2.5510   -0.7160 c3        1 3LG     -0.025000
     12 C21         0.0170   -3.4560   -2.1090 c3        1 3LG     -0.094000
     13 N2         -1.2890   -4.2140   -1.9200 n3        1 3LG     -0.285000
     14 C22        -1.5760   -4.7530   -0.9940 c3        1 3LG     -0.096000
     15 C23        -1.0630   -4.0390    0.0670 c2        1 3LG      0.268000
     16 N3         -0.7440   -2.3840   -0.1610 n         1 3LG     -0.273000
     17 O5         -1.0960   -4.4810    1.1340 o         1 3LG     -0.364000
     18 C24         1.2860   -3.3560    0.2300 c3        1 3LG     -0.041000
     19 O6          2.5950   -3.2060   -0.2330 os        1 3LG     -0.232000
     20 C25        -2.0870   -1.1830    1.4890 c1        1 3LG     -0.149000
     21 C26        -0.8210   -1.4900    0.9190 c1        1 3LG      0.034000
     22 C27         0.2980   -0.7410    1.2730 c1        1 3LG     -0.127000
     23 C28         0.1750    0.3470    2.2180 c1        1 3LG     -0.141000
     24 C29        -1.0740    0.6490    2.7800 c1        1 3LG      0.062000
     25 C30        -2.2110   -0.1100    2.4210 c1        1 3LG     -0.149000
     26 O7         -1.2290    1.8170    3.5670 os        1 3LG     -0.216000
     27 C31        -2.2730    2.7560    3.0670 c3        1 3LG     -0.020000
     28 C32        -1.9370    4.1720    3.4830 c3        1 3LG     -0.165000
     29 C33        -3.0000    5.1380    2.8850 c3        1 3LG     -0.026000
     30 N1          6.9760   -5.8840   -1.7230 n2        1 3LG     -0.107000
     31 C9          5.7350   -5.5430   -1.2200 c1        1 3LG     -0.030000
     32 C10         5.3110   -4.4500   -1.8670 c1        1 3LG     -0.066000
     33 C11         6.2500   -4.1070   -2.7520 c1        1 3LG     -0.279000
     34 C12         7.2890   -5.0170   -2.6500 c1        1 3LG     -0.017000
     35 C13         4.9180   -6.1540   -0.2460 c1        1 3LG     -0.113000
     36 C14         3.6940   -5.6330    0.0410 c1        1 3LG     -0.166000
     37 C15         3.2450   -4.4930   -0.6280 c2        1 3LG     -0.021000
     38 C16         4.0340   -3.9030   -1.5690 c2        1 3LG     -0.112000
     39 C17         8.2390   -6.1920   -0.9600 c2        1 3LG     -0.122000
     40 C18         9.0780   -7.1410   -1.7430 c2        1 3LG      0.340000
     41 O3          9.0710   -7.0940   -3.0930 o         1 3LG     -0.555500
     42 O4          9.7140   -8.0670   -1.1440 o         1 3LG     -0.555500
     43 H11A       -3.1240   10.4240   -0.8310 h1        1 3LG      0.082333
     44 H12A       -4.3130   10.0580   -1.8780 h1        1 3LG      0.082333
     45 H13A       -4.6300    9.9060   -0.2990 h1        1 3LG      0.082333
     46 H41        -2.9890    7.0890    1.4590 h4        1 3LG      0.103000
     47 H42        -2.2410    6.4700    0.1030 h4        1 3LG      0.103000
     48 H5         -5.9260    8.4030   -2.1090 ha        1 3LG      0.134000
     49 H6         -7.5350    6.7690   -1.8930 ha        1 3LG      0.131000
     50 H7         -7.1730    4.9300   -0.4090 ha        1 3LG      0.139000
     51 H8         -5.1510    4.6940    0.5910 ha        1 3LG      0.149000
     52 H20         0.6670   -1.7170   -0.9440 h1        1 3LG      0.140000
     53 H211       -0.0550   -2.8450   -2.8970 h1        1 3LG      0.102500
     54 H212        0.7270   -4.0650   -2.2400 h1        1 3LG      0.102500
     55 HN2        -1.9220   -3.7420   -2.1740 hn        1 3LG      0.157000
     56 H221       -1.4360   -5.6220   -0.9740 h1        1 3LG      0.117500
     57 H222       -2.5730   -4.7330   -0.9310 h1        1 3LG      0.117500
     58 H241        1.0330   -4.3430    0.2170 h1        1 3LG      0.099000
     59 H242        1.2220   -3.0250    1.1250 h1        1 3LG      0.099000
     60 H25        -2.8000   -1.5870    1.1980 ha        1 3LG      0.142500
     61 H27         1.0750   -0.9300    0.9230 ha        1 3LG      0.171000
     62 H28         0.8920    0.8240    2.4440 ha        1 3LG      0.151000
     63 H30        -3.1170    0.1080    2.8270 ha        1 3LG      0.142500
     64 H311       -2.3210    2.7030    2.0110 h1        1 3LG      0.081500
     65 H312       -3.0720    2.5250    3.4150 h1        1 3LG      0.081500
     66 H321       -1.0460    4.4120    3.1480 hc        1 3LG      0.106500
     67 H322       -1.9500    4.2430    4.4880 hc        1 3LG      0.106500
     68 H331       -3.9130    4.8580    3.1880 h1        1 3LG      0.072500
     69 H332       -2.8060    6.1360    3.2160 h1        1 3LG      0.072500
     70 H11         6.2140   -3.3700   -3.3460 DU        1 3LG      0.184500
     71 H12         8.1910   -4.9430   -3.1090 DU        1 3LG      0.184500
     72 H13         5.2860   -6.9880    0.3100 ha        1 3LG      0.135000
     73 H14         3.1460   -6.0200    0.8170 ha        1 3LG      0.123000
     74 H16         3.6900   -3.0740   -2.0900 ha        1 3LG      0.130000
     75 H171        8.7240   -5.3920   -0.8130 ha        1 3LG      0.082000
     76 H172        8.0210   -6.5700   -0.1500 ha        1 3LG      0.082000
@<TRIPOS>BOND
     1    1    2 1   
     2    1   43 1   
     3    1   44 1   
     4    1   45 1   
     5    2    3 1   
     6    3    4 1   
     7    3    7 1   
     8    4   10 1   
     9    5    6 1   
    10    5   46 1   
    11    5   47 1   
    12    6   29 1   
    13    7    8 1   
    14    7   48 1   
    15    8   49 1   
    16    9   10 1   
    17    9   50 1   
    18   10   51 1   
    19   11   12 1   
    20   11   16 1   
    21   11   18 1   
    22   11   52 1   
    23   12   13 1   
    24   12   53 1   
    25   12   54 1   
    26   13   14 1   
    27   13   55 1   
    28   14   15 1   
    29   14   56 1   
    30   14   57 1   
    31   15   16 1   
    32   15   17 1   
    33   16   21 1   
    34   18   19 1   
    35   18   58 1   
    36   18   59 1   
    37   19   37 1   
    38   20   25 1   
    39   20   60 1   
    40   21   22 1   
    41   22   61 1   
    42   23   24 1   
    43   23   62 1   
    44   24   26 1   
    45   25   63 1   
    46   26   27 1   
    47   27   28 1   
    48   27   64 1   
    49   27   65 1   
    50   28   29 1   
    51   28   66 1   
    52   28   67 1   
    53   29   68 1   
    54   29   69 1   
    55   30   31 1   
    56   30   34 1   
    57   31   35 1   
    58   32   38 1   
    59   33   34 1   
    60   35   72 1   
    61   36   37 1   
    62   36   73 1   
    63   37   38 1   
    64   38   74 1   
    65   39   40 1   
    66   39   75 1   
    67   39   76 1   
    68   40   41 1   
    69   40   42 1   
@<TRIPOS>SUBSTRUCTURE
     1 3LG         1 TEMP              0 ****  ****    0 ROOT
