@<TRIPOS>MOLECULE
3LG
   76    80     1     0     0
SMALL
bcc


@<TRIPOS>ATOM
      1 C1         18.6940   44.4250  125.8920 c3        1 3LG      0.103700
      2 O1         18.5240   45.0200  127.1770 os        1 3LG     -0.342900
      3 C2         19.6790   45.3520  127.8560 ca        1 3LG      0.138100
      4 C3         19.4870   45.9610  129.1170 ca        1 3LG     -0.157300
      5 C4         18.1020   46.2300  129.6010 c3        1 3LG      0.180700
      6 O2         18.0090   46.4130  131.0090 os        1 3LG     -0.426600
      7 C5         20.9710   45.1200  127.3640 ca        1 3LG     -0.199000
      8 C6         22.0720   45.4970  128.1300 ca        1 3LG     -0.092000
      9 C7         21.8950   46.0990  129.3750 ca        1 3LG     -0.175000
     10 C8         20.6080   46.3280  129.8600 ca        1 3LG     -0.093000
     11 C20        17.6630   37.7850  128.5660 c3        1 3LG      0.069700
     12 C21        17.9280   36.4550  127.8100 c3        1 3LG      0.140800
     13 N2         17.4910   35.2680  128.5090 n3        1 3LG     -0.797200
     14 C22        18.0760   35.1900  129.8250 c3        1 3LG      0.087800
     15 C23        18.1360   36.4900  130.6370 c         1 3LG      0.668500
     16 N3         17.9440   37.7080  129.9930 n         1 3LG     -0.383000
     17 C25        18.8910   39.2060  131.7030 ca        1 3LG     -0.101500
     18 C26        17.9000   38.9200  130.7360 ca        1 3LG      0.015600
     19 C27        16.8710   39.8600  130.5270 ca        1 3LG     -0.101500
     20 C28        16.8370   41.0530  131.2440 ca        1 3LG     -0.170500
     21 C29        17.8280   41.3220  132.1920 ca        1 3LG      0.118100
     22 C30        18.8570   40.3900  132.4240 ca        1 3LG     -0.170500
     23 O7         17.9060   42.4640  132.9660 os        1 3LG     -0.330900
     24 C31        16.8350   43.4030  132.8690 c3        1 3LG      0.133400
     25 C32        16.9650   44.3160  131.6660 c3        1 3LG     -0.149400
     26 C33        18.1750   45.2280  131.7760 c3        1 3LG      0.129400
     27 N1         20.6790   41.8270  122.7150 na        1 3LG     -0.013400
     28 C9         19.8680   41.0440  123.5490 ca        1 3LG     -0.098200
     29 C10        20.2700   41.2840  124.9240 ca        1 3LG     -0.063800
     30 C11        21.3430   42.2370  124.8710 cc        1 3LG     -0.292200
     31 C12        21.5600   42.5400  123.5180 cd        1 3LG     -0.039100
     32 C13        18.8320   40.1460  123.2500 ca        1 3LG     -0.098000
     33 C14        18.2030   39.4910  124.2940 ca        1 3LG     -0.165000
     34 C15        18.5970   39.7330  125.6320 ca        1 3LG      0.074100
     35 C16        19.6150   40.6200  125.9630 ca        1 3LG     -0.171000
     36 C18        21.7060   42.5470  120.4750 c         1 3LG      0.922600
     37 O3         21.8380   42.1040  119.3050 o         1 3LG     -0.820300
     38 O4         22.3860   43.4750  120.9880 o         1 3LG     -0.820300
     39 H11A       19.2020   45.1370  125.1980 h1        1 3LG      0.057367
     40 H12A       19.2690   43.4660  125.9630 h1        1 3LG      0.057367
     41 H13A       17.6430   44.2300  125.5590 h1        1 3LG      0.057367
     42 H41        17.7380   47.2120  129.1860 h1        1 3LG      0.061200
     43 H42        17.4090   45.4090  129.2710 h1        1 3LG      0.061200
     44 H5         21.1230   44.6390  126.3850 ha        1 3LG      0.161000
     45 H6         23.0860   45.3150  127.7440 ha        1 3LG      0.133000
     46 H7         22.7670   46.3940  129.9740 ha        1 3LG      0.126000
     47 H8         20.4590   46.8040  130.8430 ha        1 3LG      0.138000
     48 H20        16.5650   38.0380  128.4430 h1        1 3LG      0.056700
     49 H211       17.4020   36.5270  126.8180 h1        1 3LG      0.079700
     50 H212       19.0320   36.3540  127.6120 h1        1 3LG      0.079700
     51 HN2        16.4880   35.2430  128.5650 hn        1 3LG      0.359800
     52 H221       17.5230   34.4330  130.4470 h1        1 3LG      0.084200
     53 H222       19.1440   34.8420  129.7130 h1        1 3LG      0.084200
     54 H241       19.5470   38.6010  127.7360 h1        1 3LG      0.054200
     55 H242       18.4000   39.8670  128.4060 h1        1 3LG      0.054200
     56 H25        19.6870   38.4710  131.9080 ha        1 3LG      0.146500
     57 H27        16.0820   39.6720  129.7820 ha        1 3LG      0.146500
     58 H28        16.0290   41.7710  131.0470 ha        1 3LG      0.144000
     59 H30        19.6270   40.6120  133.1760 ha        1 3LG      0.144000
     60 H311       15.8460   42.8750  132.8630 h1        1 3LG      0.053200
     61 H312       16.9380   43.9870  133.8260 h1        1 3LG      0.053200
     62 H321       16.0370   44.9420  131.5910 hc        1 3LG      0.062200
     63 H322       17.0420   43.7040  130.7300 hc        1 3LG      0.062200
     64 H331       19.1080   44.6870  131.4660 h1        1 3LG      0.054700
     65 H332       18.2940   45.6100  132.8260 h1        1 3LG      0.054700
     66 H11        21.8960   42.6270  125.7170 ha        1 3LG      0.141000
     67 H12        22.2890   43.2190  123.0480 h4        1 3LG      0.228000
     68 H13        18.5320   39.9650  122.2080 ha        1 3LG      0.136000
     69 H14        17.3890   38.7800  124.1020 ha        1 3LG      0.130000
     70 H16        19.9120   40.8050  127.0030 ha        1 3LG      0.130000
     71 H171       19.6120   42.4720  121.0430 h1        1 3LG      0.042700
     72 H172       20.4140   40.8380  120.9050 h1        1 3LG      0.042700
     73 O5         18.3730   36.4240  131.8590 o         1 3LG     -0.640500
     74 C24        18.4710   38.8930  127.8520 c3        1 3LG      0.119400
     75 O6         17.8430   39.0390  126.5780 os        1 3LG     -0.352900
     76 C17        20.5450   41.8890  121.2870 c3        1 3LG     -0.112700
@<TRIPOS>BOND
     1    1    2 1   
     2    1   39 1   
     3    1   40 1   
     4    1   41 1   
     5    2    3 1   
     6    3    4 ar  
     7    3    7 ar  
     8    4    5 1   
     9    4   10 ar  
    10    5    6 1   
    11    5   42 1   
    12    5   43 1   
    13    6   26 1   
    14    7    8 ar  
    15    7   44 1   
    16    8    9 ar  
    17    8   45 1   
    18    9   10 ar  
    19    9   46 1   
    20   10   47 1   
    21   11   12 1   
    22   11   16 1   
    23   11   48 1   
    24   11   74 1   
    25   12   13 1   
    26   12   49 1   
    27   12   50 1   
    28   13   14 1   
    29   13   51 1   
    30   14   15 1   
    31   14   52 1   
    32   14   53 1   
    33   15   16 1   
    34   15   73 2   
    35   16   18 1   
    36   17   18 ar  
    37   17   22 ar  
    38   17   56 1   
    39   18   19 ar  
    40   19   20 ar  
    41   19   57 1   
    42   20   21 ar  
    43   20   58 1   
    44   21   22 ar  
    45   21   23 1   
    46   22   59 1   
    47   23   24 1   
    48   24   25 1   
    49   24   60 1   
    50   24   61 1   
    51   25   26 1   
    52   25   62 1   
    53   25   63 1   
    54   26   64 1   
    55   26   65 1   
    56   27   28 1   
    57   27   31 1   
    58   27   76 1   
    59   28   29 ar  
    60   28   32 ar  
    61   29   30 1   
    62   29   35 ar  
    63   30   31 2   
    64   30   66 1   
    65   31   67 1   
    66   32   33 ar  
    67   32   68 1   
    68   33   34 ar  
    69   33   69 1   
    70   34   35 ar  
    71   34   75 1   
    72   35   70 1   
    73   36   37 1   
    74   36   38 1   
    75   36   76 1   
    76   54   74 1   
    77   55   74 1   
    78   71   76 1   
    79   72   76 1   
    80   74   75 1   
@<TRIPOS>SUBSTRUCTURE
     1 3LG         1 TEMP              0 ****  ****    0 ROOT
