@<TRIPOS>MOLECULE
3LI
   81    85     1     0     0
SMALL
bcc


@<TRIPOS>ATOM
      1 C01         3.0620    1.0160   -2.4690 c3        1 3LI      0.082100
      2 N02         4.1590    0.4180   -1.6610 n4        1 3LI     -0.657800
      3 C03         3.8210    0.2750   -0.1980 c         1 3LI      0.568700
      4 O04         2.7410    0.7560    0.1400 o         1 3LI     -0.460100
      5 C05         4.7780   -0.4310    0.6710 ca        1 3LI     -0.158600
      6 C06         6.0140   -0.8500    0.1610 ca        1 3LI     -0.071000
      7 C07         6.9270   -1.5590    0.9470 ca        1 3LI     -0.064000
      8 C08         6.6120   -1.8720    2.2610 ca        1 3LI     -0.033000
      9 C09         5.3870   -1.4620    2.8230 ca        1 3LI     -0.023300
     10 C10         5.0930   -1.8470    4.2250 c3        1 3LI     -0.103800
     11 C11         4.4770   -0.7270    2.0360 ca        1 3LI      0.032600
     12 N12         3.2110   -0.3260    2.6680 n4        1 3LI     -0.637100
     13 C13         3.3230    0.8830    3.5780 ca        1 3LI      0.830900
     14 N14         2.5650    0.8090    4.7210 nb        1 3LI     -0.856000
     15 C15         2.6580    1.9600    5.5130 ca        1 3LI      0.947900
     16 N16         3.4240    3.0480    5.2240 nb        1 3LI     -0.777000
     17 C17         4.1740    3.0020    4.0310 ca        1 3LI      0.939900
     18 N18         4.1160    1.8820    3.1500 nb        1 3LI     -0.777000
     19 N19         4.9960    4.0460    3.7220 nh        1 3LI     -0.637300
     20 C20         5.7080    4.0470    2.4460 c3        1 3LI      0.195300
     21 C21         6.7530    5.1720    2.2720 c3        1 3LI      0.170300
     22 N22         6.2590    6.4290    2.8000 nh        1 3LI     -0.627000
     23 C23         6.0330    6.3150    4.2250 c3        1 3LI      0.170300
     24 C24         4.9450    5.2630    4.5360 c3        1 3LI      0.195300
     25 C25         6.9660    7.5910    2.3620 ca        1 3LI      0.066600
     26 C26         7.9580    8.2150    3.1460 ca        1 3LI     -0.146000
     27 C27         8.5820    9.3780    2.7050 ca        1 3LI     -0.100000
     28 C28         8.2410    9.9390    1.4740 ca        1 3LI     -0.095000
     29 C29         7.2670    9.3350    0.6810 ca        1 3LI     -0.105000
     30 C30         6.6310    8.1710    1.1170 ca        1 3LI      0.030400
     31 CL31        5.4450    7.4700    0.1120 cl        1 3LI     -0.106400
     32 N32         1.8590    2.0550    6.7000 nh        1 3LI     -0.747300
     33 C33         2.4320    2.7950    7.8200 c3        1 3LI      0.232900
     34 S34         1.8690    2.0300    9.3650 ss        1 3LI     -0.160200
     35 C35         1.4950    0.4950    8.5470 c3        1 3LI     -0.104300
     36 C36         1.0460    0.9340    7.1500 c3        1 3LI      0.169500
     37 C37        -0.4380    1.4070    7.1680 c         1 3LI      0.533100
     38 O38        -1.2170    1.3410    6.2380 o         1 3LI     -0.375100
     39 N39        -0.9420    2.0020    8.4770 n4        1 3LI     -0.731800
     40 C40        -2.0380    2.9890    8.3220 c3        1 3LI      0.049800
     41 C41        -2.9900    2.9900    9.5050 c         1 3LI      0.542100
     42 O42        -2.9730    2.2480   10.4700 o         1 3LI     -0.351100
     43 N43        -4.1140    4.0280    9.4940 n4        1 3LI     -0.439300
     44 O44        -3.9110    4.8600    8.4490 oh        1 3LI     -0.381300
     45 H01         2.8130    2.0380   -2.0750 hx        1 3LI      0.129700
     46 H01A        2.1490    0.3630   -2.4080 hx        1 3LI      0.129700
     47 H01B        3.4070    1.0910   -3.5390 hx        1 3LI      0.129700
     48 HN02        4.9980    1.0120   -1.7460 hn        1 3LI      0.479800
     49 H06         6.3260   -0.6400   -0.8770 ha        1 3LI      0.160000
     50 H07         7.8970   -1.8750    0.5140 ha        1 3LI      0.212000
     51 H08         7.3270   -2.4500    2.8810 ha        1 3LI      0.208000
     52 H10         4.2490   -2.5830    4.2650 hc        1 3LI      0.085033
     53 H10A        4.8370   -0.9540    4.8480 hc        1 3LI      0.085033
     54 H10B        5.9830   -2.3410    4.7000 hc        1 3LI      0.085033
     55 HN12        2.4920   -0.0990    1.9610 hn        1 3LI      0.490300
     56 H20         6.2550    3.0690    2.3310 h1        1 3LI      0.073450
     57 H20A        4.9390    4.1410    1.6250 h1        1 3LI      0.073450
     58 H21         7.7160    4.8470    2.7650 h1        1 3LI      0.074200
     59 H21A        6.9430    5.2860    1.1670 h1        1 3LI      0.074200
     60 H23         6.9690    6.0360    4.7930 h1        1 3LI      0.074200
     61 H23A        5.6650    7.3050    4.6190 h1        1 3LI      0.074200
     62 H24         5.0600    4.9830    5.6220 h1        1 3LI      0.073450
     63 H24A        3.9300    5.7330    4.3810 h1        1 3LI      0.073450
     64 H26         8.2460    7.7900    4.1200 ha        1 3LI      0.136000
     65 H27         9.3530    9.8550    3.3320 ha        1 3LI      0.163000
     66 H28         8.7380   10.8600    1.1270 ha        1 3LI      0.170000
     67 H29         6.9950    9.7800   -0.2910 ha        1 3LI      0.170000
     68 H33         3.5570    2.8090    7.8120 h2        1 3LI      0.131200
     69 H33A        2.0710    3.8570    7.7870 h2        1 3LI      0.131200
     70 H35         0.7340   -0.0950    9.1080 h1        1 3LI      0.141200
     71 H35A        2.4050   -0.1600    8.4730 h1        1 3LI      0.141200
     72 H36         1.0540    0.0570    6.4310 h1        1 3LI      0.172700
     73 HN39       -1.2730    1.2140    9.0550 hn        1 3LI      0.484800
     74 H40        -2.6390    2.7590    7.3810 hx        1 3LI      0.173200
     75 H40A       -1.5940    4.0260    8.1940 hx        1 3LI      0.173200
     76 HN43       -5.0310    3.5310    9.4080 hn        1 3LI      0.508800
     77 HO44       -4.6210    5.5540    8.4350 ho        1 3LI      0.521000
     78 H022        4.3840   -0.5140   -2.0400 hn        1 3LI      0.479800
     79 H122        2.8730   -1.1250    3.2360 hn        1 3LI      0.490300
     80 H392       -0.0670    2.4190    8.9890 hn        1 3LI      0.484800
     81 H432       -4.1030    4.5470   10.4020 hn        1 3LI      0.508800
@<TRIPOS>BOND
     1    1    2 1   
     2    1   45 1   
     3    1   46 1   
     4    1   47 1   
     5    2    3 1   
     6    2   48 1   
     7    2   78 1   
     8    3    4 2   
     9    3    5 1   
    10    5    6 ar  
    11    5   11 ar  
    12    6    7 ar  
    13    6   49 1   
    14    7    8 ar  
    15    7   50 1   
    16    8    9 ar  
    17    8   51 1   
    18    9   10 1   
    19    9   11 ar  
    20   10   52 1   
    21   10   53 1   
    22   10   54 1   
    23   11   12 1   
    24   12   13 1   
    25   12   55 1   
    26   12   79 1   
    27   13   14 ar  
    28   13   18 ar  
    29   14   15 ar  
    30   15   16 ar  
    31   15   32 1   
    32   16   17 ar  
    33   17   18 ar  
    34   17   19 1   
    35   19   20 1   
    36   19   24 1   
    37   20   21 1   
    38   20   56 1   
    39   20   57 1   
    40   21   22 1   
    41   21   58 1   
    42   21   59 1   
    43   22   23 1   
    44   22   25 1   
    45   23   24 1   
    46   23   60 1   
    47   23   61 1   
    48   24   62 1   
    49   24   63 1   
    50   25   26 ar  
    51   25   30 ar  
    52   26   27 ar  
    53   26   64 1   
    54   27   28 ar  
    55   27   65 1   
    56   28   29 ar  
    57   28   66 1   
    58   29   30 ar  
    59   29   67 1   
    60   30   31 1   
    61   32   33 1   
    62   32   36 1   
    63   33   34 1   
    64   33   68 1   
    65   33   69 1   
    66   34   35 1   
    67   35   36 1   
    68   35   70 1   
    69   35   71 1   
    70   36   37 1   
    71   36   72 1   
    72   37   38 2   
    73   37   39 1   
    74   39   40 1   
    75   39   73 1   
    76   39   80 1   
    77   40   41 1   
    78   40   74 1   
    79   40   75 1   
    80   41   42 2   
    81   41   43 1   
    82   43   44 1   
    83   43   76 1   
    84   43   81 1   
    85   44   77 1   
@<TRIPOS>SUBSTRUCTURE
     1 3LI         1 TEMP              0 ****  ****    0 ROOT
