@<TRIPOS>MOLECULE
3LI
   77    81     1     0     0
SMALL
bcc


@<TRIPOS>ATOM
      1 C01         2.6620   -2.0590    3.0430 c3        1 3LI      0.063300
      2 N02         1.7580   -2.7630    2.1830 n         1 3LI     -0.547900
      3 C03         2.0950   -3.0630    0.8840 c         1 3LI      0.677700
      4 O04         3.2590   -2.8770    0.4570 o         1 3LI     -0.659100
      5 C05         1.0260   -3.6370    0.0130 ca        1 3LI     -0.159600
      6 C06         0.3870   -4.8160    0.3930 ca        1 3LI     -0.106000
      7 C07        -0.5900   -5.3720   -0.4310 ca        1 3LI     -0.127000
      8 C08        -0.9250   -4.7480   -1.6290 ca        1 3LI     -0.116000
      9 C09        -0.2980   -3.5640   -2.0340 ca        1 3LI     -0.032300
     10 C10        -0.6810   -2.9370   -3.3210 c3        1 3LI     -0.055800
     11 C11         0.6960   -2.9940   -1.2040 ca        1 3LI      0.148600
     12 N12         1.3890   -1.8190   -1.6150 nh        1 3LI     -0.698300
     13 C13         0.8940   -0.5620   -1.1760 ca        1 3LI      0.922900
     14 N14         1.8290    0.4480   -1.0270 nb        1 3LI     -0.842000
     15 C15         1.3110    1.6620   -0.6090 ca        1 3LI      0.946900
     16 N16        -0.0290    1.9180   -0.3830 nb        1 3LI     -0.835000
     17 C17        -0.8840    0.8530   -0.6240 ca        1 3LI      0.931900
     18 N18        -0.4630   -0.4250   -0.9700 nb        1 3LI     -0.832000
     19 N19        -2.2760    1.0950   -0.5630 nh        1 3LI     -0.728300
     20 C20        -3.1560   -0.0600   -0.4760 c3        1 3LI      0.202800
     21 C21        -4.6490    0.2920   -0.6410 c3        1 3LI      0.171800
     22 N22        -5.0480    1.4050    0.2080 nh        1 3LI     -0.629000
     23 C23        -4.2230    2.5770   -0.0360 c3        1 3LI      0.171800
     24 C24        -2.7220    2.2750    0.1620 c3        1 3LI      0.202800
     25 C25        -6.4500    1.6420    0.2610 ca        1 3LI      0.119600
     26 C26        -7.0690    2.7110   -0.4230 ca        1 3LI     -0.160000
     27 C27        -8.4340    2.9500   -0.2990 ca        1 3LI     -0.114000
     28 C28        -9.2240    2.1270    0.5020 ca        1 3LI     -0.134000
     29 C29        -8.6400    1.0660    1.1870 ca        1 3LI     -0.116000
     30 C30        -7.2680    0.8230    1.0790 ca        1 3LI      0.015400
     31 CL31       -6.6180   -0.4740    1.9670 cl        1 3LI     -0.087400
     32 N32         2.2170    2.7370   -0.4510 nh        1 3LI     -0.729300
     33 C33         1.8080    3.8840    0.3320 c3        1 3LI      0.290900
     34 S34         3.2490    4.9190    0.6070 ss        1 3LI     -0.293200
     35 C35         4.4200    3.7060    0.0490 c3        1 3LI     -0.014300
     36 C36         3.6500    2.4610   -0.4090 c3        1 3LI      0.159500
     37 C37         4.0490    1.2740    0.5040 c         1 3LI      0.654100
     38 O38         3.3960    0.9640    1.5180 o         1 3LI     -0.606100
     39 N39         5.2240    0.6260    0.1690 n         1 3LI     -0.543900
     40 C40         5.5560   -0.6450    0.7530 c3        1 3LI      0.012000
     41 C41         6.2020   -1.6040   -0.2500 c         1 3LI      0.581100
     42 O42         6.7890   -1.2050   -1.2720 o         1 3LI     -0.583100
     43 N43         6.2600   -2.9730    0.1420 n         1 3LI     -0.346400
     44 O44         6.6010   -3.8170   -0.8360 oh        1 3LI     -0.432100
     45 H01         2.7510   -0.9770    2.7430 h1        1 3LI      0.054700
     46 H01A        2.2890   -2.1230    4.0990 h1        1 3LI      0.054700
     47 H01B        3.6810   -2.5270    2.9800 h1        1 3LI      0.054700
     48 HN02        0.8020   -2.8040    2.4470 hn        1 3LI      0.318500
     49 H06         0.6610   -5.3120    1.3370 ha        1 3LI      0.142000
     50 H07        -1.0930   -6.3040   -0.1340 ha        1 3LI      0.139000
     51 H08        -1.6960   -5.1940   -2.2770 ha        1 3LI      0.139000
     52 H10        -1.1820   -1.9540   -3.1360 hc        1 3LI      0.055367
     53 H10A        0.2230   -2.7540   -3.9540 hc        1 3LI      0.055367
     54 H10B       -1.3850   -3.5910   -3.8920 hc        1 3LI      0.055367
     55 HN12        2.3890   -1.9150   -1.5230 hn        1 3LI      0.451800
     56 H20        -2.9030   -0.7810   -1.3050 h1        1 3LI      0.064200
     57 H20A       -3.0110   -0.5880    0.5110 h1        1 3LI      0.064200
     58 H21        -4.8520    0.5130   -1.7290 h1        1 3LI      0.049450
     59 H21A       -5.2440   -0.6180   -0.3510 h1        1 3LI      0.049450
     60 H23        -4.3670    2.9860   -1.0790 h1        1 3LI      0.049450
     61 H23A       -4.5100    3.3770    0.7000 h1        1 3LI      0.049450
     62 H24        -2.5130    2.1590    1.2640 h1        1 3LI      0.064200
     63 H24A       -2.1620    3.1780   -0.2140 h1        1 3LI      0.064200
     64 H26        -6.4700    3.3730   -1.0670 ha        1 3LI      0.139000
     65 H27        -8.8890    3.7920   -0.8410 ha        1 3LI      0.137000
     66 H28       -10.3030    2.3150    0.5960 ha        1 3LI      0.139000
     67 H29        -9.2600    0.4160    1.8260 ha        1 3LI      0.148000
     68 H33         1.0460    4.4710   -0.2460 h2        1 3LI      0.088200
     69 H33A        1.3710    3.5960    1.3250 h2        1 3LI      0.088200
     70 H35         5.0060    4.1310   -0.8000 h1        1 3LI      0.089200
     71 H35A        5.1270    3.4650    0.8780 h1        1 3LI      0.089200
     72 H36         3.9370    2.2090   -1.4760 h1        1 3LI      0.101700
     73 HN39        5.6420    0.8200   -0.7160 hn        1 3LI      0.325500
     74 H40         6.3050   -0.4800    1.5820 h1        1 3LI      0.089700
     75 H40A        4.6280   -1.1160    1.2000 h1        1 3LI      0.089700
     76 HN43        5.3790   -3.3020    0.5350 hn        1 3LI      0.329500
     77 HO44        7.5400   -3.6330   -1.0350 ho        1 3LI      0.428000
@<TRIPOS>BOND
     1    1    2 1   
     2    1   45 1   
     3    1   46 1   
     4    1   47 1   
     5    2    3 1   
     6    2   48 1   
     7    3    4 2   
     8    3    5 1   
     9    5    6 ar  
    10    5   11 ar  
    11    6    7 ar  
    12    6   49 1   
    13    7    8 ar  
    14    7   50 1   
    15    8    9 ar  
    16    8   51 1   
    17    9   10 1   
    18    9   11 ar  
    19   10   52 1   
    20   10   53 1   
    21   10   54 1   
    22   11   12 1   
    23   12   13 1   
    24   12   55 1   
    25   13   14 ar  
    26   13   18 ar  
    27   14   15 ar  
    28   15   16 ar  
    29   15   32 1   
    30   16   17 ar  
    31   17   18 ar  
    32   17   19 1   
    33   19   20 1   
    34   19   24 1   
    35   20   21 1   
    36   20   56 1   
    37   20   57 1   
    38   21   22 1   
    39   21   58 1   
    40   21   59 1   
    41   22   23 1   
    42   22   25 1   
    43   23   24 1   
    44   23   60 1   
    45   23   61 1   
    46   24   62 1   
    47   24   63 1   
    48   25   26 ar  
    49   25   30 ar  
    50   26   27 ar  
    51   26   64 1   
    52   27   28 ar  
    53   27   65 1   
    54   28   29 ar  
    55   28   66 1   
    56   29   30 ar  
    57   29   67 1   
    58   30   31 1   
    59   32   33 1   
    60   32   36 1   
    61   33   34 1   
    62   33   68 1   
    63   33   69 1   
    64   34   35 1   
    65   35   36 1   
    66   35   70 1   
    67   35   71 1   
    68   36   37 1   
    69   36   72 1   
    70   37   38 2   
    71   37   39 1   
    72   39   40 1   
    73   39   73 1   
    74   40   41 1   
    75   40   74 1   
    76   40   75 1   
    77   41   42 2   
    78   41   43 1   
    79   43   44 1   
    80   43   76 1   
    81   44   77 1   
@<TRIPOS>SUBSTRUCTURE
     1 3LI         1 TEMP              0 ****  ****    0 ROOT
