@<TRIPOS>MOLECULE
3LI
   80    84     1     0     0
SMALL
bcc


@<TRIPOS>ATOM
      1 C01         3.4260    2.6230   -1.1980 c3        1 3LI      0.077100
      2 N02         3.9530    2.4160    0.1690 ny        1 3LI     -0.673800
      3 C03         3.2120    1.3050    0.9070 c         1 3LI      0.602700
      4 O04         2.0380    1.5380    1.1470 o         1 3LI     -0.421100
      5 C05         4.0270    0.1290    1.2270 ca        1 3LI     -0.177600
      6 C06         4.8300   -0.4500    0.2330 ca        1 3LI     -0.095000
      7 C07         5.5650   -1.5970    0.5060 ca        1 3LI     -0.103000
      8 C08         5.5120   -2.1700    1.7770 ca        1 3LI     -0.048000
      9 C09         4.7260   -1.6110    2.7900 ca        1 3LI     -0.087300
     10 C10         4.6940   -2.2550    4.1250 c3        1 3LI     -0.074800
     11 C11         3.9620   -0.4450    2.5210 ca        1 3LI      0.190600
     12 N12         3.0900    0.0800    3.5060 nu        1 3LI     -0.723300
     13 C13         3.3180    1.3230    4.1270 ca        1 3LI      0.961900
     14 N14         2.5760    1.5740    5.2790 nb        1 3LI     -0.900000
     15 C15         2.7640    2.8410    5.8020 ca        1 3LI      0.957900
     16 N16         3.6120    3.8000    5.3190 nb        1 3LI     -0.812000
     17 C17         4.3710    3.4200    4.2030 ca        1 3LI      0.958900
     18 N18         4.1910    2.2060    3.5300 nb        1 3LI     -0.886000
     19 N19         5.3610    4.2860    3.7700 nh        1 3LI     -0.719300
     20 C20         6.2860    3.8410    2.7450 c3        1 3LI      0.223300
     21 C21         7.4340    4.8220    2.4290 c3        1 3LI      0.165800
     22 N22         6.9310    6.1840    2.3610 nh        1 3LI     -0.633000
     23 C23         6.4420    6.5920    3.6650 c3        1 3LI      0.165800
     24 C24         5.2940    5.6870    4.1650 c3        1 3LI      0.223300
     25 C25         7.7810    7.1120    1.6890 ca        1 3LI      0.086600
     26 C26         8.6000    8.0310    2.3750 ca        1 3LI     -0.147000
     27 C27         9.3700    8.9580    1.6780 ca        1 3LI     -0.099000
     28 C28         9.3490    8.9870    0.2840 ca        1 3LI     -0.105000
     29 C29         8.5510    8.0860   -0.4180 ca        1 3LI     -0.105000
     30 C30         7.7710    7.1580    0.2750 ca        1 3LI      0.030400
     31 Cl31        6.8040    6.0830   -0.6390 cl        1 3LI     -0.135400
     32 N32         2.0040    3.1920    6.9520 nh        1 3LI     -0.774300
     33 C33         2.1590    4.4890    7.5830 c3        1 3LI      0.276900
     34 S34         1.3000    4.4490    9.1630 ss        1 3LI     -0.178200
     35 C35         1.1230    2.6880    9.1550 c3        1 3LI     -0.073300
     36 C36         1.2540    2.2330    7.6920 c3        1 3LI      0.240500
     37 C37        -0.1830    2.1080    7.0850 c         1 3LI      0.530100
     38 O38        -0.7480    2.7040    6.2000 o         1 3LI     -0.359100
     39 N39        -1.0550    0.9620    7.7310 ny        1 3LI     -0.710800
     40 C40        -2.4220    1.4330    8.0510 c3        1 3LI      0.042800
     41 C41        -3.3750    0.3070    8.3970 c         1 3LI      0.542100
     42 O42        -3.1580   -0.8900    8.3820 o         1 3LI     -0.353100
     43 N43        -4.7960    0.7120    8.8110 ny        1 3LI     -0.443300
     44 O44        -4.8150    2.0530    8.9820 oh        1 3LI     -0.376300
     45 H01         3.6130    1.7050   -1.8170 hx        1 3LI      0.114367
     46 H01A        2.3200    2.8190   -1.1440 hx        1 3LI      0.114367
     47 H01B        3.9410    3.5040   -1.6700 hx        1 3LI      0.114367
     48 HN02        4.9530    2.1880    0.1320 hn        1 3LI      0.464800
     49 H06         4.8600   -0.0250   -0.7830 ha        1 3LI      0.144000
     50 H07         6.1860   -2.0580   -0.2810 ha        1 3LI      0.182000
     51 H08         6.1020   -3.0800    1.9890 ha        1 3LI      0.179000
     52 H10         4.9410   -1.5190    4.9300 hc        1 3LI      0.065033
     53 H10A        5.4380   -3.0900    4.1850 hc        1 3LI      0.065033
     54 H10B        3.6810   -2.6870    4.3280 hc        1 3LI      0.065033
     55 HN12        2.6650   -0.6190    4.0850 hn        1 3LI      0.455800
     56 H20         6.7480    2.8640    3.0680 h1        1 3LI      0.052700
     57 H20A        5.7130    3.6630    1.7890 h1        1 3LI      0.052700
     58 H21         7.8700    4.5320    1.4330 h1        1 3LI      0.069200
     59 H21A        8.2410    4.7030    3.2100 h1        1 3LI      0.069200
     60 H23         7.2580    6.5850    4.4470 h1        1 3LI      0.069200
     61 H23A        6.0390    7.6410    3.5900 h1        1 3LI      0.069200
     62 H24         5.2990    5.7480    5.2920 h1        1 3LI      0.052700
     63 H24A        4.3170    6.1090    3.7890 h1        1 3LI      0.052700
     64 H26         8.6380    8.0270    3.4760 ha        1 3LI      0.141000
     65 H27        10.0010    9.6700    2.2340 ha        1 3LI      0.158000
     66 H28         9.9610    9.7210   -0.2650 ha        1 3LI      0.163000
     67 H29         8.5330    8.1090   -1.5200 ha        1 3LI      0.164000
     68 H33         3.2470    4.7260    7.7470 h2        1 3LI      0.123200
     69 H33A        1.7070    5.2960    6.9440 h2        1 3LI      0.123200
     70 H35         0.1510    2.4280    9.6280 h1        1 3LI      0.098700
     71 H35A        1.9370    2.2040    9.7590 h1        1 3LI      0.098700
     72 H36         1.7070    1.1960    7.6190 h1        1 3LI      0.136700
     73 HN39       -1.0960    0.1830    7.0600 hn        1 3LI      0.466800
     74 H40        -2.8360    2.0000    7.1530 hx        1 3LI      0.178200
     75 H40A       -2.3730    2.1660    8.9180 hx        1 3LI      0.178200
     76 HN43       -5.0460    0.2110    9.6930 hn        1 3LI      0.503300
     77 HO44       -5.7160    2.3360    9.2870 ho        1 3LI      0.518000
     78 H022        3.8430    3.2850    0.7090 hn        1 3LI      0.464800
     79 H392       -0.5860    0.6270    8.5790 hn        1 3LI      0.466800
     80 H432       -5.4620    0.4200    8.0610 hn        1 3LI      0.503300
@<TRIPOS>BOND
     1    1    2 1   
     2    1   45 1   
     3    1   46 1   
     4    1   47 1   
     5    2    3 1   
     6    2   48 1   
     7    2   78 1   
     8    3    4 2   
     9    3    5 1   
    10    5    6 ar  
    11    5   11 ar  
    12    6    7 ar  
    13    6   49 1   
    14    7    8 ar  
    15    7   50 1   
    16    8    9 ar  
    17    8   51 1   
    18    9   10 1   
    19    9   11 ar  
    20   10   52 1   
    21   10   53 1   
    22   10   54 1   
    23   11   12 1   
    24   12   13 1   
    25   12   55 1   
    26   13   14 ar  
    27   13   18 ar  
    28   14   15 ar  
    29   15   16 ar  
    30   15   32 1   
    31   16   17 ar  
    32   17   18 ar  
    33   17   19 1   
    34   19   20 1   
    35   19   24 1   
    36   20   21 1   
    37   20   56 1   
    38   20   57 1   
    39   21   22 1   
    40   21   58 1   
    41   21   59 1   
    42   22   23 1   
    43   22   25 1   
    44   23   24 1   
    45   23   60 1   
    46   23   61 1   
    47   24   62 1   
    48   24   63 1   
    49   25   26 ar  
    50   25   30 ar  
    51   26   27 ar  
    52   26   64 1   
    53   27   28 ar  
    54   27   65 1   
    55   28   29 ar  
    56   28   66 1   
    57   29   30 ar  
    58   29   67 1   
    59   30   31 1   
    60   32   33 1   
    61   32   36 1   
    62   33   34 1   
    63   33   68 1   
    64   33   69 1   
    65   34   35 1   
    66   35   36 1   
    67   35   70 1   
    68   35   71 1   
    69   36   37 1   
    70   36   72 1   
    71   37   38 2   
    72   37   39 1   
    73   39   40 1   
    74   39   73 1   
    75   39   79 1   
    76   40   41 1   
    77   40   74 1   
    78   40   75 1   
    79   41   42 2   
    80   41   43 1   
    81   43   44 1   
    82   43   76 1   
    83   43   80 1   
    84   44   77 1   
@<TRIPOS>SUBSTRUCTURE
     1 3LI         1 TEMP              0 ****  ****    0 ROOT
