@<TRIPOS>MOLECULE
3LI
   80    84     1     0     0
SMALL
bcc


@<TRIPOS>ATOM
      1 C01         3.4350    2.5790   -1.1900 c3        1 3LI      0.077100
      2 N02         3.9600    2.3790    0.1800 n4        1 3LI     -0.673800
      3 C03         3.2110    1.2790    0.9270 c         1 3LI      0.602700
      4 O04         2.0380    1.5220    1.1630 o         1 3LI     -0.421100
      5 C05         4.0190    0.1010    1.2570 ca        1 3LI     -0.176600
      6 C06         4.8190   -0.4910    0.2700 ca        1 3LI     -0.095000
      7 C07         5.5460   -1.6410    0.5530 ca        1 3LI     -0.103000
      8 C08         5.4880   -2.2020    1.8290 ca        1 3LI     -0.048000
      9 C09         4.7040   -1.6290    2.8360 ca        1 3LI     -0.086300
     10 C10         4.6670   -2.2610    4.1770 c3        1 3LI     -0.074800
     11 C11         3.9490   -0.4610    2.5570 ca        1 3LI      0.190600
     12 N12         3.0780    0.0770    3.5350 nh        1 3LI     -0.722300
     13 C13         3.3130    1.3250    4.1450 ca        1 3LI      0.961900
     14 N14         2.5690    1.5910    5.2930 nb        1 3LI     -0.900000
     15 C15         2.7640    2.8630    5.8050 ca        1 3LI      0.957900
     16 N16         3.6180    3.8120    5.3140 nb        1 3LI     -0.812000
     17 C17         4.3770    3.4160    4.2030 ca        1 3LI      0.958900
     18 N18         4.1910    2.1970    3.5420 nb        1 3LI     -0.886000
     19 N19         5.3720    4.2730    3.7640 nh        1 3LI     -0.719300
     20 C20         6.2990    3.8110    2.7480 c3        1 3LI      0.222800
     21 C21         7.4500    4.7860    2.4210 c3        1 3LI      0.165800
     22 N22         6.9500    6.1470    2.3340 nh        1 3LI     -0.633000
     23 C23         6.4610    6.5740    3.6320 c3        1 3LI      0.165800
     24 C24         5.3110    5.6780    4.1440 c3        1 3LI      0.222800
     25 C25         7.8020    7.0640    1.6490 ca        1 3LI      0.086600
     26 C26         8.6230    7.9910    2.3230 ca        1 3LI     -0.147000
     27 C27         9.3940    8.9070    1.6140 ca        1 3LI     -0.099000
     28 C28         9.3750    8.9170    0.2200 ca        1 3LI     -0.105000
     29 C29         8.5770    8.0070   -0.4700 ca        1 3LI     -0.105000
     30 C30         7.7940    7.0900    0.2350 ca        1 3LI      0.030400
     31 CL31        6.8270    6.0030   -0.6640 cl        1 3LI     -0.134400
     32 N32         2.0040    3.2280    6.9500 nh        1 3LI     -0.774300
     33 C33         2.1650    4.5310    7.5690 c3        1 3LI      0.276900
     34 S34         1.3020    4.5110    9.1470 ss        1 3LI     -0.178200
     35 C35         1.1150    2.7510    9.1560 c3        1 3LI     -0.074300
     36 C36         1.2460    2.2800    7.6970 c3        1 3LI      0.240500
     37 C37        -0.1910    2.1580    7.0880 c         1 3LI      0.530100
     38 O38        -0.7500    2.7490    6.1970 o         1 3LI     -0.359100
     39 N39        -1.0710    1.0240    7.7420 n4        1 3LI     -0.710800
     40 C40        -2.4360    1.5040    8.0530 c3        1 3LI      0.042800
     41 C41        -3.3960    0.3860    8.4060 c         1 3LI      0.542100
     42 O42        -3.1850   -0.8120    8.4030 o         1 3LI     -0.353100
     43 N43        -4.8160    0.8030    8.8110 n4        1 3LI     -0.443300
     44 O44        -4.8300    2.1450    8.9670 oh        1 3LI     -0.376300
     45 H01         2.3300    2.7830   -1.1380 hx        1 3LI      0.114367
     46 H01A        3.6160    1.6540   -1.8010 hx        1 3LI      0.114367
     47 H01B        3.9560    3.4530   -1.6680 hx        1 3LI      0.114367
     48 HN02        4.9590    2.1440    0.1450 hn        1 3LI      0.464800
     49 H06         4.8520   -0.0760   -0.7510 ha        1 3LI      0.144000
     50 H07         6.1660   -2.1120   -0.2290 ha        1 3LI      0.182000
     51 H08         6.0720   -3.1140    2.0500 ha        1 3LI      0.179000
     52 H10         3.6510   -2.6860    4.3820 hc        1 3LI      0.065033
     53 H10A        5.4060   -3.1000    4.2450 hc        1 3LI      0.065033
     54 H10B        4.9170   -1.5200    4.9760 hc        1 3LI      0.065033
     55 HN12        2.6480   -0.6140    4.1210 hn        1 3LI      0.455800
     56 H20         6.7590    2.8380    3.0870 h1        1 3LI      0.052450
     57 H20A        5.7290    3.6210    1.7930 h1        1 3LI      0.052450
     58 H21         7.8880    4.4810    1.4300 h1        1 3LI      0.068950
     59 H21A        8.2550    4.6750    3.2060 h1        1 3LI      0.068950
     60 H23         7.2770    6.5770    4.4130 h1        1 3LI      0.068950
     61 H23A        6.0600    7.6230    3.5420 h1        1 3LI      0.068950
     62 H24         4.3350    6.1000    3.7670 h1        1 3LI      0.052450
     63 H24A        5.3200    5.7500    5.2710 h1        1 3LI      0.052450
     64 H26         8.6590    8.0030    3.4240 ha        1 3LI      0.141000
     65 H27        10.0260    9.6260    2.1600 ha        1 3LI      0.158000
     66 H28         9.9890    9.6410   -0.3390 ha        1 3LI      0.163000
     67 H29         8.5600    8.0140   -1.5720 ha        1 3LI      0.164000
     68 H33         1.7190    5.3340    6.9210 h2        1 3LI      0.123200
     69 H33A        3.2540    4.7630    7.7330 h2        1 3LI      0.123200
     70 H35         1.9230    2.2670    9.7650 h1        1 3LI      0.098700
     71 H35A        0.1390    2.5010    9.6280 h1        1 3LI      0.098700
     72 H36         1.6930    1.2410    7.6350 h1        1 3LI      0.136700
     73 HN39       -0.6060    0.6950    8.5950 hn        1 3LI      0.466800
     74 H40        -2.8440    2.0650    7.1490 hx        1 3LI      0.178200
     75 H40A       -2.3860    2.2450    8.9130 hx        1 3LI      0.178200
     76 HN43       -5.4810    0.5050    8.0630 hn        1 3LI      0.503300
     77 HO44       -5.7310    2.4360    9.2660 ho        1 3LI      0.518000
     78 H022        3.8560    3.2530    0.7130 hn        1 3LI      0.464800
     79 H392       -1.1130    0.2380    7.0790 hn        1 3LI      0.466800
     80 H432       -5.0710    0.3120    9.6980 hn        1 3LI      0.503300
@<TRIPOS>BOND
     1    1    2 1   
     2    1   45 1   
     3    1   46 1   
     4    1   47 1   
     5    2    3 1   
     6    2   48 1   
     7    2   78 1   
     8    3    4 2   
     9    3    5 1   
    10    5    6 ar  
    11    5   11 ar  
    12    6    7 ar  
    13    6   49 1   
    14    7    8 ar  
    15    7   50 1   
    16    8    9 ar  
    17    8   51 1   
    18    9   10 1   
    19    9   11 ar  
    20   10   52 1   
    21   10   53 1   
    22   10   54 1   
    23   11   12 1   
    24   12   13 1   
    25   12   55 1   
    26   13   14 ar  
    27   13   18 ar  
    28   14   15 ar  
    29   15   16 ar  
    30   15   32 1   
    31   16   17 ar  
    32   17   18 ar  
    33   17   19 1   
    34   19   20 1   
    35   19   24 1   
    36   20   21 1   
    37   20   56 1   
    38   20   57 1   
    39   21   22 1   
    40   21   58 1   
    41   21   59 1   
    42   22   23 1   
    43   22   25 1   
    44   23   24 1   
    45   23   60 1   
    46   23   61 1   
    47   24   62 1   
    48   24   63 1   
    49   25   26 ar  
    50   25   30 ar  
    51   26   27 ar  
    52   26   64 1   
    53   27   28 ar  
    54   27   65 1   
    55   28   29 ar  
    56   28   66 1   
    57   29   30 ar  
    58   29   67 1   
    59   30   31 1   
    60   32   33 1   
    61   32   36 1   
    62   33   34 1   
    63   33   68 1   
    64   33   69 1   
    65   34   35 1   
    66   35   36 1   
    67   35   70 1   
    68   35   71 1   
    69   36   37 1   
    70   36   72 1   
    71   37   38 2   
    72   37   39 1   
    73   39   40 1   
    74   39   73 1   
    75   39   79 1   
    76   40   41 1   
    77   40   74 1   
    78   40   75 1   
    79   41   42 2   
    80   41   43 1   
    81   43   44 1   
    82   43   76 1   
    83   43   80 1   
    84   44   77 1   
@<TRIPOS>SUBSTRUCTURE
     1 3LI         1 TEMP              0 ****  ****    0 ROOT
