@<TRIPOS>MOLECULE
3LI
   77    75     1     0     0
SMALL
bcc


@<TRIPOS>ATOM
      1 C01        -6.1040    0.9600    2.3090 c3        1 3LI     -0.087000
      2 N02        -5.5350    1.1700    1.0160 n         1 3LI     -0.348000
      3 C03        -4.0540    1.1850    0.8470 c2        1 3LI      0.337000
      4 O04        -3.3280    1.1530    1.8280 o         1 3LI     -0.363000
      5 C05        -3.4620    1.3180   -0.5040 c2        1 3LI     -0.122000
      6 C06        -3.9240    2.3030   -1.3610 c1        1 3LI     -0.107000
      7 C07        -3.4970    2.3310   -2.6880 c1        1 3LI     -0.125250
      8 C08        -2.6130    1.3750   -3.1520 c1        1 3LI     -0.125250
      9 C09        -2.1440    0.3810   -2.2940 c1        1 3LI     -0.036000
     10 C10        -1.3660   -0.8040   -2.8670 c3        1 3LI     -0.178000
     11 C11        -2.5690    0.3520   -0.9690 c2        1 3LI      0.076000
     12 N12        -1.9660   -0.6050   -0.0250 n3        1 3LI     -0.234000
     13 C13        -0.6180   -0.3810    0.4830 c2        1 3LI      0.240000
     14 N14        -0.4250   -0.0960    1.8090 n2        1 3LI     -0.332000
     15 C15         0.8180   -0.0320    2.3070 c1        1 3LI      0.206000
     16 N16         1.8940   -0.2530    1.4890 n1        1 3LI     -0.316000
     17 C17         1.7100   -0.5300    0.2040 c1        1 3LI      0.219000
     18 N18         0.4350   -0.5960   -0.3110 n1        1 3LI     -0.284000
     19 N19         2.8870   -0.6410   -0.7020 n3        1 3LI     -0.217000
     20 C20         2.4890   -1.2340   -1.9240 c3        1 3LI     -0.037000
     21 C21         3.6300   -1.2460   -2.9680 c3        1 3LI     -0.064500
     22 N22         4.2230    0.0570   -3.1490 n3        1 3LI     -0.231000
     23 C23         4.6180    0.6510   -1.9260 c3        1 3LI     -0.064500
     24 C24         3.4810    0.6610   -0.8820 c3        1 3LI     -0.037000
     25 C25         5.3640   -0.0510   -4.0250 c2        1 3LI      0.040000
     26 C26         6.5030   -0.7020   -3.5960 c2        1 3LI     -0.161000
     27 C27         7.6470   -0.7260   -4.4130 c1        1 3LI     -0.115000
     28 C28         7.6300   -0.0980   -5.6440 c1        1 3LI     -0.125250
     29 C29         6.4930    0.5520   -6.0720 c1        1 3LI     -0.125250
     30 C30         5.3510    0.5770   -5.2580 c1        1 3LI     -0.063000
     31 CL31        3.9580    1.4340   -5.7670 cl        1 3LI     -0.005000
     32 N32         1.0280    0.4670    3.6500 n3        1 3LI     -0.244000
     33 C33         0.7770    1.7980    3.6810 c3        1 3LI     -0.131000
     34 S34         0.1580    2.0980    5.1740 ss        1 3LI      0.066000
     35 C35        -0.1880    0.6030    5.8220 c3        1 3LI     -0.272000
     36 C36        -0.1050   -0.3040    4.7510 c3        1 3LI      0.007000
     37 C37        -1.3840   -0.6260    4.1480 c2        1 3LI      0.319000
     38 O38        -1.4290   -1.0530    2.9960 o         1 3LI     -0.392000
     39 N39        -2.6150   -0.5060    4.9330 n         1 3LI     -0.326000
     40 C40        -3.8270   -1.3140    4.5620 c3        1 3LI     -0.049000
     41 C41        -3.8430   -1.5380    3.0830 c2        1 3LI      0.227000
     42 O42        -3.1010   -0.8740    2.3460 o         1 3LI     -0.357000
     43 N43        -4.7050   -2.5500    2.5160 n         1 3LI     -0.208000
     44 O44        -4.6220   -2.8540    1.1570 oh        1 3LI     -0.238000
     45 H01        -7.1030    0.9560    2.2390 h1        1 3LI      0.084667
     46 H01A       -5.8320    1.6550    2.8890 h1        1 3LI      0.084667
     47 H01B       -5.8100    0.1280    2.6510 h1        1 3LI      0.084667
     48 HN02       -6.0770    1.2840    0.2950 hn        1 3LI      0.217000
     49 H06        -4.5580    2.9880   -1.0310 ha        1 3LI      0.144000
     50 H07        -3.8170    3.0130   -3.2810 ha        1 3LI      0.139750
     51 H08        -2.3190    1.3970   -4.0680 ha        1 3LI      0.139750
     52 H10        -0.8680   -1.2620   -2.1360 hc        1 3LI      0.091667
     53 H10A       -2.0180   -1.4610   -3.2990 hc        1 3LI      0.091667
     54 H10B       -0.7590   -0.4970   -3.5130 hc        1 3LI      0.091667
     55 HN12       -2.4500   -1.3940    0.2300 hn        1 3LI      0.251000
     56 H20         1.7620   -0.7480   -2.2740 h1        1 3LI      0.105750
     57 H20A        2.1890   -2.1950   -1.7480 h1        1 3LI      0.105750
     58 H21         4.3300   -1.8790   -2.6660 h1        1 3LI      0.087250
     59 H21A        3.2910   -1.5380   -3.7820 h1        1 3LI      0.087250
     60 H23         4.8990    1.5970   -2.1040 h1        1 3LI      0.087250
     61 H23A        5.3930    0.1490   -1.5570 h1        1 3LI      0.087250
     62 H24         2.7710    1.3040   -1.1820 h1        1 3LI      0.105750
     63 H24A        3.8510    0.9710   -0.0060 h1        1 3LI      0.105750
     64 H26         6.5130   -1.1620   -2.6970 ha        1 3LI      0.138000
     65 H27         8.4750   -1.1950   -4.1050 ha        1 3LI      0.136000
     66 H28         8.4350   -0.1150   -6.2190 ha        1 3LI      0.139750
     67 H29         6.4820    0.9830   -6.9200 ha        1 3LI      0.139750
     68 H33         0.1110    2.0400    2.9740 h2        1 3LI      0.127000
     69 H33A        1.6470    2.3270    3.5440 h2        1 3LI      0.127000
     70 H35        -1.0880    0.6000    6.1990 h1        1 3LI      0.131500
     71 H35A        0.4730    0.3700    6.5160 h1        1 3LI      0.131500
     72 H36         0.2200   -1.2350    5.0540 h1        1 3LI      0.131000
     73 HN39       -2.6290    0.0230    5.6820 hn        1 3LI      0.253000
     74 H40        -4.6290   -0.8360    4.8240 h1        1 3LI      0.128500
     75 H40A       -3.7990   -2.2080    5.0380 h1        1 3LI      0.128500
     76 HN43       -5.2810   -3.0050    3.0490 hn        1 3LI      0.256000
     77 HO44       -5.4700   -2.8640    0.7920 ho        1 3LI      0.224000
@<TRIPOS>BOND
     1    1    2 1   
     2    1   45 1   
     3    1   46 1   
     4    1   47 1   
     5    2    3 1   
     6    2   48 1   
     7    3    4 1   
     8    3    5 1   
     9    5    6 1   
    10    5   11 1   
    11    6   49 1   
    12    7    8 1   
    13    7   50 1   
    14    8   51 1   
    15    9   10 1   
    16    9   11 1   
    17   10   52 1   
    18   10   53 1   
    19   10   54 1   
    20   11   12 1   
    21   12   13 1   
    22   12   55 1   
    23   13   14 1   
    24   13   18 1   
    25   14   15 1   
    26   15   32 1   
    27   16   17 1   
    28   17   19 1   
    29   19   20 1   
    30   19   24 1   
    31   20   21 1   
    32   20   56 1   
    33   20   57 1   
    34   21   22 1   
    35   21   58 1   
    36   21   59 1   
    37   22   23 1   
    38   22   25 1   
    39   23   24 1   
    40   23   60 1   
    41   23   61 1   
    42   24   62 1   
    43   24   63 1   
    44   25   26 1   
    45   25   30 1   
    46   26   27 1   
    47   26   64 1   
    48   27   65 1   
    49   28   29 1   
    50   28   66 1   
    51   29   67 1   
    52   30   31 1   
    53   32   33 1   
    54   32   36 1   
    55   33   34 1   
    56   33   68 1   
    57   33   69 1   
    58   34   35 1   
    59   35   36 1   
    60   35   70 1   
    61   35   71 1   
    62   36   37 1   
    63   36   72 1   
    64   37   38 1   
    65   37   39 1   
    66   39   40 1   
    67   39   73 1   
    68   40   41 1   
    69   40   74 1   
    70   40   75 1   
    71   41   42 1   
    72   41   43 1   
    73   43   44 1   
    74   43   76 1   
    75   44   77 1   
@<TRIPOS>SUBSTRUCTURE
     1 3LI         1 TEMP              0 ****  ****    0 ROOT
