@<TRIPOS>MOLECULE
3LJ
   29    29     1     0     0
SMALL
bcc


@<TRIPOS>ATOM
      1 O1          0.6470    0.2400   -0.7150 oh        1 3LJ     -0.698800
      2 C1          1.9230    0.2070   -0.1460 c3        1 3LJ      0.352900
      3 C2          1.7640    0.0310    1.4050 c3        1 3LJ      0.062500
      4 C3          1.3330    1.3430    2.0960 c3        1 3LJ      0.094100
      5 C4          2.2460    2.4960    1.6200 c3        1 3LJ      0.103100
      6 C5          2.0830    2.5660    0.1000 c3        1 3LJ      0.032100
      7 C6          2.7890    3.7480   -0.5990 c3        1 3LJ      0.225400
      8 O3          1.4140    1.1030    3.4900 oh        1 3LJ     -0.640800
      9 O4          1.8520    3.6660    2.3000 oh        1 3LJ     -0.600800
     10 O5          2.6400    1.3660   -0.4530 os        1 3LJ     -0.386600
     11 O6          1.8440    4.4770   -1.2900 os        1 3LJ     -0.601500
     12 N           0.7640   -1.0460    1.7040 nz        1 3LJ     -0.827600
     13 S           1.1490    3.8770   -2.7850 s6        1 3LJ      1.720300
     14 O7          2.2760    3.6920   -3.5630 o         1 3LJ     -0.747867
     15 O8          0.2630    4.8850   -3.0950 o         1 3LJ     -0.747867
     16 O9          0.5830    2.6860   -2.2890 o         1 3LJ     -0.747867
     17 H1          0.6110    0.9220   -1.4280 ho        1 3LJ      0.538000
     18 H2          2.5260   -0.6470   -0.5710 h2        1 3LJ      0.086700
     19 H3          2.7580   -0.2920    1.8320 hx        1 3LJ      0.114700
     20 H4          0.2640    1.5960    1.8370 h1        1 3LJ      0.075700
     21 H5          3.3110    2.2970    1.9240 h1        1 3LJ      0.085700
     22 H6          0.9790    2.6240   -0.1450 h1        1 3LJ      0.112700
     23 H7          3.2480    4.4160    0.1790 h1        1 3LJ      0.051200
     24 H8          3.5860    3.3530   -1.2880 h1        1 3LJ      0.051200
     25 H9          1.5850    1.9560    3.9180 ho        1 3LJ      0.459000
     26 H10         1.3970    4.2470    1.6700 ho        1 3LJ      0.447000
     27 H11        -0.0880   -0.8480    1.1590 hn        1 3LJ      0.462467
     28 H12         1.1340   -1.9550    1.4270 hn        1 3LJ      0.462467
     29 HN3         0.5490   -1.0360    2.7060 hn        1 3LJ      0.462467
@<TRIPOS>BOND
     1    1    2 1   
     2    1   17 1   
     3    2    3 1   
     4    2   10 1   
     5    2   18 1   
     6    3    4 1   
     7    3   12 1   
     8    3   19 1   
     9    4    5 1   
    10    4    8 1   
    11    4   20 1   
    12    5    6 1   
    13    5    9 1   
    14    5   21 1   
    15    6    7 1   
    16    6   10 1   
    17    6   22 1   
    18    7   11 1   
    19    7   23 1   
    20    7   24 1   
    21    8   25 1   
    22    9   26 1   
    23   11   13 1   
    24   12   27 1   
    25   12   28 1   
    26   12   29 1   
    27   13   14 1   
    28   13   15 1   
    29   13   16 1   
@<TRIPOS>SUBSTRUCTURE
     1 3LJ         1 TEMP              0 ****  ****    0 ROOT
