@<TRIPOS>MOLECULE
3LJ
   29    29     1     0     0
SMALL
bcc


@<TRIPOS>ATOM
      1 O1          0.6840    0.2470   -0.7580 oh        1 3LJ     -0.698800
      2 C1          1.9430    0.2130   -0.1530 c3        1 3LJ      0.352900
      3 C2          1.7410    0.0210    1.3910 c3        1 3LJ      0.062500
      4 C3          1.2860    1.3250    2.0820 c3        1 3LJ      0.094100
      5 C4          2.2090    2.4860    1.6430 c3        1 3LJ      0.103100
      6 C5          2.0880    2.5700    0.1200 c3        1 3LJ      0.032100
      7 C6          2.8090    3.7610   -0.5480 c3        1 3LJ      0.225400
      8 O3          1.3300    1.0720    3.4750 oh        1 3LJ     -0.640800
      9 O4          1.7920    3.6470    2.3230 oh        1 3LJ     -0.600800
     10 O5          2.6650    1.3770   -0.4280 os        1 3LJ     -0.386600
     11 O6          1.8810    4.4940   -1.2580 os        1 3LJ     -0.601500
     12 N           0.7370   -1.0610    1.6520 n4        1 3LJ     -0.827600
     13 S           1.2300    3.9060   -2.7760 s6        1 3LJ      1.720300
     14 O7          2.3790    3.7330   -3.5250 o         1 3LJ     -0.747867
     15 O8          0.3500    4.9150   -3.1000 o         1 3LJ     -0.747867
     16 O9          0.6550    2.7090   -2.3090 o         1 3LJ     -0.747867
     17 H1          0.6660    0.9370   -1.4650 ho        1 3LJ      0.538000
     18 H2          2.5610   -0.6350   -0.5690 h2        1 3LJ      0.086700
     19 H3          2.7240   -0.3030    1.8430 hx        1 3LJ      0.114700
     20 H4          0.2240    1.5780    1.7960 h1        1 3LJ      0.075700
     21 H5          3.2650    2.2870    1.9750 h1        1 3LJ      0.085700
     22 H6          0.9910    2.6270   -0.1550 h1        1 3LJ      0.112700
     23 H7          3.6270    3.3750   -1.2180 h1        1 3LJ      0.051200
     24 H8          3.2450    4.4220    0.2490 h1        1 3LJ      0.051200
     25 H9          1.4860    1.9210    3.9170 ho        1 3LJ      0.459000
     26 H10         1.3540    4.2340    1.6860 ho        1 3LJ      0.447000
     27 H11         1.1170   -1.9660    1.3770 hn        1 3LJ      0.462467
     28 H12        -0.1000   -0.8610    1.0850 hn        1 3LJ      0.462467
     29 HN3         0.4930   -1.0610    2.6470 hn        1 3LJ      0.462467
@<TRIPOS>BOND
     1    1    2 1   
     2    1   17 1   
     3    2    3 1   
     4    2   10 1   
     5    2   18 1   
     6    3    4 1   
     7    3   12 1   
     8    3   19 1   
     9    4    5 1   
    10    4    8 1   
    11    4   20 1   
    12    5    6 1   
    13    5    9 1   
    14    5   21 1   
    15    6    7 1   
    16    6   10 1   
    17    6   22 1   
    18    7   11 1   
    19    7   23 1   
    20    7   24 1   
    21    8   25 1   
    22    9   26 1   
    23   11   13 1   
    24   12   27 1   
    25   12   28 1   
    26   12   29 1   
    27   13   14 1   
    28   13   15 1   
    29   13   16 1   
@<TRIPOS>SUBSTRUCTURE
     1 3LJ         1 TEMP              0 ****  ****    0 ROOT
