@<TRIPOS>MOLECULE
3LJ
   28    28     1     0     0
SMALL
bcc


@<TRIPOS>ATOM
      1 O1          0.4290   -0.1780   -0.3790 oh        1 3LJ     -0.646800
      2 C1          1.7780   -0.1860    0.0360 c3        1 3LJ      0.340900
      3 C2          1.8420   -0.0870    1.5820 c3        1 3LJ      0.147500
      4 C3          1.3240    1.3110    1.9960 c3        1 3LJ      0.095100
      5 C4          2.1360    2.3910    1.2610 c3        1 3LJ      0.106100
      6 C5          1.9880    2.1880   -0.2500 c3        1 3LJ      0.057100
      7 C6          2.8600    3.1730   -1.0530 c3        1 3LJ      0.212400
      8 O3          1.4730    1.4210    3.4040 oh        1 3LJ     -0.624800
      9 O4          1.6410    3.6410    1.7050 oh        1 3LJ     -0.636800
     10 O5          2.4320    0.8760   -0.6190 os        1 3LJ     -0.444600
     11 O6          2.2460    4.4150   -1.0640 os        1 3LJ     -0.616500
     12 N           1.1790   -1.2040    2.2230 n3        1 3LJ     -0.895800
     13 S           1.2040    4.8670   -2.3920 s6        1 3LJ      1.700300
     14 O7          0.2110    3.8970   -2.2630 o         1 3LJ     -0.748200
     15 O8          0.8660    6.1630   -2.0300 o         1 3LJ     -0.748200
     16 O9          2.0520    4.7130   -3.4840 o         1 3LJ     -0.748200
     17 H1          0.3960    0.1900   -1.2730 ho        1 3LJ      0.436000
     18 H2          2.3000   -1.1150   -0.3330 h2        1 3LJ      0.070700
     19 H3          2.9340   -0.1440    1.8690 h1        1 3LJ      0.072700
     20 H4          0.2340    1.4180    1.7310 h1        1 3LJ      0.061700
     21 H5          3.2200    2.3180    1.5600 h1        1 3LJ      0.044700
     22 H6          0.9090    2.3210   -0.5500 h1        1 3LJ      0.100700
     23 H7          3.8630    3.2830   -0.5590 h1        1 3LJ      0.034200
     24 H8          3.0000    2.7790   -2.0970 h1        1 3LJ      0.034200
     25 H9          1.3720    2.3590    3.6130 ho        1 3LJ      0.424000
     26 H10         1.7050    4.2690    0.9660 ho        1 3LJ      0.461000
     27 H11         0.2500   -1.3030    1.8570 hn        1 3LJ      0.354300
     28 H12         1.1200   -1.0250    3.2080 hn        1 3LJ      0.354300
@<TRIPOS>BOND
     1    1    2 1   
     2    1   17 1   
     3    2    3 1   
     4    2   10 1   
     5    2   18 1   
     6    3    4 1   
     7    3   12 1   
     8    3   19 1   
     9    4    5 1   
    10    4    8 1   
    11    4   20 1   
    12    5    6 1   
    13    5    9 1   
    14    5   21 1   
    15    6    7 1   
    16    6   10 1   
    17    6   22 1   
    18    7   11 1   
    19    7   23 1   
    20    7   24 1   
    21    8   25 1   
    22    9   26 1   
    23   11   13 1   
    24   12   27 1   
    25   12   28 1   
    26   13   14 1   
    27   13   15 1   
    28   13   16 1   
@<TRIPOS>SUBSTRUCTURE
     1 3LJ         1 TEMP              0 ****  ****    0 ROOT
