@<TRIPOS>MOLECULE
3LL
   53    60     1     0     0
SMALL
bcc


@<TRIPOS>ATOM
      1 C4          0.2680    1.0940    0.1590 ca        1 3LL      0.152100
      2 C14         2.0520    1.0280   -3.6300 ca        1 3LL     -0.054000
      3 C5          1.5730    0.5950    0.1150 ca        1 3LL     -0.165300
      4 C6          2.1360    0.0850    1.2940 ca        1 3LL     -0.084000
      5 C8          0.2360    1.5660   -2.1480 ca        1 3LL      0.651600
      6 C9          1.5440    1.0620   -2.3210 ca        1 3LL     -0.276600
      7 C10         2.3660    0.6010   -1.1590 c3        1 3LL      0.249800
      8 C12        -0.0270    1.9700   -4.3950 ca        1 3LL      0.459200
      9 C13         1.2720    1.4790   -4.6940 ca        1 3LL     -0.177600
     10 C3         -0.4860    1.0610    1.3500 ca        1 3LL     -0.126000
     11 C30         2.8810    1.3740   -9.0130 cy        1 3LL      0.142900
     12 O31         2.3440    1.8040  -10.3000 os        1 3LL     -0.408600
     13 C32         1.1020    2.2690   -9.6880 cy        1 3LL      0.142900
     14 C23         1.6090    1.8440   -8.3100 cx        1 3LL     -0.110000
     15 C33         1.4120    2.5720   -7.0150 cx        1 3LL     -0.149700
     16 C22         0.8060    1.2200   -7.2080 cx        1 3LL     -0.149700
     17 C16         1.7840    1.4440   -6.0660 cx        1 3LL     -0.030400
     18 N11        -0.5520    2.0180   -3.1670 nb        1 3LL     -0.638000
     19 O7         -0.3990    1.6530   -0.9180 os        1 3LL     -0.304400
     20 C17         2.9610   -0.8400   -1.4360 c3        1 3LL      0.104400
     21 O18         4.4120   -0.6700   -1.4060 os        1 3LL     -0.440400
     22 C19         4.6210    0.6940   -1.1410 c2        1 3LL      0.586500
     23 N20         3.5840    1.4720   -1.0020 n2        1 3LL     -0.494900
     24 N21         6.0400    1.0360   -1.0530 n4        1 3LL     -0.767600
     25 C2          0.0870    0.5360    2.4970 ca        1 3LL     -0.065000
     26 C1          1.4090    0.0440    2.4850 cp        1 3LL     -0.035000
     27 C15         1.9990   -0.4850    3.7080 cp        1 3LL     -0.190300
     28 C28         1.7290    0.1190    4.9480 ca        1 3LL     -0.060000
     29 C27         2.2900   -0.3980    6.1110 ca        1 3LL     -0.249300
     30 C26         3.1270   -1.5260    6.0100 ca        1 3LL      0.436200
     31 N25         3.4190   -2.1370    4.8520 nb        1 3LL     -0.678000
     32 C24         2.8580   -1.6230    3.7200 ca        1 3LL      0.612500
     33 F29         3.1630   -2.2670    2.5640 f         1 3LL     -0.232200
     34 H1          3.0660    0.6400   -3.8150 ha        1 3LL      0.131000
     35 H2          3.1670   -0.3020    1.2760 ha        1 3LL      0.132000
     36 H3         -0.6830    2.3460   -5.2060 h4        1 3LL      0.052100
     37 H4         -1.5160    1.4500    1.3460 ha        1 3LL      0.178000
     38 H7          0.9860    3.3640   -9.8420 h1        1 3LL      0.067450
     39 H8          0.2390    1.6910  -10.0840 h1        1 3LL      0.067450
     40 H9          1.1530    3.6010   -6.8110 hc        1 3LL      0.140200
     41 H10        -0.1440    0.7060   -7.2250 hc        1 3LL      0.140200
     42 H11         2.7990    0.9980   -6.1430 hc        1 3LL      0.081700
     43 H12         2.7110   -1.5740   -0.6310 h1        1 3LL      0.113700
     44 H13         2.7080   -1.2260   -2.4530 h1        1 3LL      0.113700
     45 H14         6.1530    2.0490   -0.9080 hn        1 3LL      0.490467
     46 H15         6.4500    0.5160   -0.2630 hn        1 3LL      0.490467
     47 H16        -0.5030    0.4930    3.4270 ha        1 3LL      0.160000
     48 H17         1.0760    1.0060    4.9920 ha        1 3LL      0.153000
     49 H18         2.0880    0.0570    7.0900 ha        1 3LL      0.164000
     50 H19         3.5940   -1.9740    6.9090 h4        1 3LL      0.045100
     51 H5          3.0540    0.2760   -9.0180 h1        1 3LL      0.067450
     52 H213        6.5010    0.7460   -1.9270 hn        1 3LL      0.490467
     53 H6          3.8040    1.9450   -8.7740 h1        1 3LL      0.067450
@<TRIPOS>BOND
     1    1    3 ar  
     2    1   10 ar  
     3    1   19 1   
     4    2    6 ar  
     5    2    9 ar  
     6    2   34 1   
     7    3    4 ar  
     8    3    7 1   
     9    4   26 ar  
    10    4   35 1   
    11    5    6 ar  
    12    5   18 ar  
    13    5   19 1   
    14    6    7 1   
    15    7   20 1   
    16    7   23 1   
    17    8    9 ar  
    18    8   18 ar  
    19    8   36 1   
    20    9   17 1   
    21   10   25 ar  
    22   10   37 1   
    23   11   12 1   
    24   11   14 1   
    25   11   51 1   
    26   11   53 1   
    27   12   13 1   
    28   13   14 1   
    29   13   38 1   
    30   13   39 1   
    31   14   15 1   
    32   14   16 1   
    33   15   16 1   
    34   15   17 1   
    35   15   40 1   
    36   16   17 1   
    37   16   41 1   
    38   17   42 1   
    39   20   21 1   
    40   20   43 1   
    41   20   44 1   
    42   21   22 1   
    43   22   23 2   
    44   22   24 1   
    45   24   45 1   
    46   24   46 1   
    47   24   52 1   
    48   25   26 ar  
    49   25   47 1   
    50   26   27 1   
    51   27   28 ar  
    52   27   32 ar  
    53   28   29 ar  
    54   28   48 1   
    55   29   30 ar  
    56   29   49 1   
    57   30   31 ar  
    58   30   50 1   
    59   31   32 ar  
    60   32   33 1   
@<TRIPOS>SUBSTRUCTURE
     1 3LL         1 TEMP              0 ****  ****    0 ROOT
