@<TRIPOS>MOLECULE
3LL
   53    62     1     0     0
SMALL
bcc


@<TRIPOS>ATOM
      1 C4          0.0000    0.0000    0.0000 ca        1 3LL      0.130000
      2 C14         1.8410    0.8140   -3.6320 c2        1 3LL     -0.079000
      3 C5          1.3880    0.0000    0.0000 ca        1 3LL     -0.200000
      4 C6          2.0790    0.0000    1.1970 ca        1 3LL     -0.056000
      5 C8         -0.1140    0.3920   -2.3160 c2        1 3LL      0.129000
      6 C9          1.2700    0.4110   -2.4400 c2        1 3LL     -0.205000
      7 C10         2.1440    0.0010   -1.2950 c3        1 3LL      0.096000
      8 C12        -0.3830    1.1490   -4.4860 c2        1 3LL     -0.024000
      9 C13         0.9960    1.1930   -4.6840 c2        1 3LL      0.062000
     10 C3         -0.6930   -0.0040    1.2070 ca        1 3LL     -0.130000
     11 C30         4.0870    3.0880   -8.6430 DU        1 3LL     -0.017500
     12 O31         5.2130    2.4410   -8.7350 os        1 3LL     -0.154000
     13 C32         4.3600    1.3830   -8.5620 DU        1 3LL     -0.017500
     14 C23         3.1640    2.0710   -8.4630 cu        1 3LL     -0.367000
     15 C33         2.4920    2.0570   -7.0890 DU        1 3LL     -0.155000
     16 C22         1.9840    1.9480   -6.9740 c2        1 3LL      0.053000
     17 C16         1.5400    1.6190   -5.9380 c2        1 3LL     -0.408000
     18 N11        -0.8840    0.7590   -3.3340 n2        1 3LL     -0.026000
     19 O7         -0.6970   -0.0010   -1.1610 os        1 3LL     -0.077000
     20 C17         2.7550   -1.3910   -1.5580 c3        1 3LL     -0.293000
     21 O18         4.0360   -1.0330   -2.1200 os        1 3LL     -0.006000
     22 C19         4.3460    0.2040   -1.6830 c2        1 3LL     -0.266000
     23 N20         3.3320    0.8610   -1.2060 n2        1 3LL      0.028000
     24 N21         5.6170    0.7210   -1.7370 nz        1 3LL      0.452000
     25 C2         -0.0080   -0.0050    2.4030 ca        1 3LL     -0.033000
     26 C1          1.3860   -0.0000    2.4040 ca        1 3LL     -0.003000
     27 C15         2.1290   -0.0020    3.6880 c2        1 3LL     -0.136000
     28 C28         1.8150    0.9200    4.6910 c2        1 3LL     -0.006000
     29 C27         2.5380    0.8780    5.8720 c2        1 3LL     -0.172000
     30 C26         3.5380   -0.0650    6.0200 c2        1 3LL     -0.055000
     31 N25         3.8130   -0.9230    5.0570 n2        1 3LL     -0.033000
     32 C24         3.1490   -0.9270    3.9170 c2        1 3LL      0.089000
     33 F29         3.4660   -1.8250    2.9590 f         1 3LL     -0.090000
     34 H1          2.9160    0.8530   -3.5010 ha        1 3LL      0.066000
     35 H2          3.1090   -0.3300    1.1420 ha        1 3LL      0.102000
     36 H3         -1.1480    1.4800   -5.1780 h4        1 3LL      0.142000
     37 H4         -1.6590   -0.4750    1.0730 ha        1 3LL      0.136000
     38 H7          4.1320    0.7550   -9.4150 ha        1 3LL      0.074500
     39 H8          4.2200    0.6030   -7.8230 ha        1 3LL      0.074500
     40 H9          2.3810    3.1310   -6.9970 DU        1 3LL      0.372500
     41 H10         1.8280    1.2100   -7.2140 DU        1 3LL      0.372500
     42 H11         3.3490    1.8800   -6.4510 ha        1 3LL      0.011000
     43 H12         3.6210   -1.2320   -2.1890 h1        1 3LL      0.225000
     44 H13         2.9110   -1.8980   -0.6140 h1        1 3LL      0.225000
     45 H14         5.9320    1.2030   -2.5560 DU        1 3LL      0.191500
     46 H15         5.7630    1.2900   -0.9270 hn        1 3LL      0.106000
     47 H16        -0.7640   -0.3750    3.0850 ha        1 3LL      0.135000
     48 H17         0.9020    1.4590    4.4700 ha        1 3LL      0.124000
     49 H18         2.7280    1.5340    6.7120 ha        1 3LL      0.136000
     50 H19         3.8850    0.0410    7.0410 h4        1 3LL      0.136000
     51 H5          3.7220    3.9530   -9.1840 ha        1 3LL      0.074500
     52 H213        5.7530    1.5620   -2.2620 DU        1 3LL      0.191500
     53 H6          4.0600    3.5810   -7.6780 ha        1 3LL      0.074500
@<TRIPOS>BOND
     1    1    3 1   
     2    1   10 1   
     3    1   19 1   
     4    2    6 1   
     5    2    9 1   
     6    2   34 1   
     7    3    4 1   
     8    3    7 1   
     9    4   26 1   
    10    4   35 1   
    11    5    6 1   
    12    5   18 1   
    13    5   19 1   
    14    6    7 1   
    15    7   20 1   
    16    7   23 1   
    17    8    9 1   
    18    8   18 1   
    19    8   36 1   
    20    9   17 1   
    21   10   25 1   
    22   10   37 1   
    23   11   12 1   
    24   11   13 1   
    25   11   14 1   
    26   11   51 1   
    27   11   53 1   
    28   12   13 1   
    29   13   14 1   
    30   13   38 1   
    31   13   39 1   
    32   14   15 1   
    33   15   17 1   
    34   15   40 1   
    35   15   41 1   
    36   15   42 1   
    37   16   17 1   
    38   16   40 1   
    39   16   41 1   
    40   20   21 1   
    41   20   43 1   
    42   20   44 1   
    43   21   22 1   
    44   22   23 1   
    45   22   24 1   
    46   24   45 1   
    47   24   46 1   
    48   24   52 1   
    49   25   26 1   
    50   25   47 1   
    51   26   27 1   
    52   27   28 1   
    53   27   32 1   
    54   28   29 1   
    55   28   48 1   
    56   29   30 1   
    57   29   49 1   
    58   30   31 1   
    59   30   50 1   
    60   31   32 1   
    61   32   33 1   
    62   45   52 1   
@<TRIPOS>SUBSTRUCTURE
     1 3LL         1 TEMP              0 ****  ****    0 ROOT
