@<TRIPOS>MOLECULE
3LM
   40    34     1     0     0
SMALL
bcc


@<TRIPOS>ATOM
      1 C           2.1660   -1.6910   -1.2620 c1        1 3LM      0.358000
      2 N           0.4780   -0.5930    0.3120 n3        1 3LM     -0.290000
      3 O1          3.3330   -1.4040   -0.8910 o         1 3LM     -0.565500
      4 P          -4.0080    2.9750   -2.5010 p3        1 3LM      2.508000
      5 N1         -0.6890    4.0050    1.9450 n1        1 3LM     -0.150000
      6 C2          0.4490    3.3030    2.2170 c1        1 3LM     -0.130000
      7 C3          0.7750    2.1760    1.4550 c1        1 3LM      0.036000
      8 O3          2.0360    1.4920    1.6760 oh        1 3LM     -0.299000
      9 C4         -0.0530    1.7780    0.4320 c1        1 3LM     -0.192000
     10 C5         -1.1910    2.4830    0.1610 c1        1 3LM     -0.063000
     11 C6         -1.5150    3.6070    0.9240 c1        1 3LM     -0.106000
     12 CA          1.0550   -1.7910   -0.2460 c1        1 3LM      0.055000
     13 CB          0.5960   -3.0210    0.1520 c1        1 3LM     -0.387000
     14 SD          0.6940   -5.7100    0.5370 ss        1 3LM     -0.151000
     15 CE          0.9500   -7.1810   -0.3880 c3        1 3LM     -0.300000
     16 CG          1.2090   -4.2950   -0.4360 c2        1 3LM     -0.111000
     17 C2A         1.3730    3.7550    3.3410 c3        1 3LM     -0.128000
     18 C4A         0.3510    0.5630   -0.4790 c3        1 3LM     -0.003000
     19 C5A        -2.0780    2.0780   -1.0330 c3        1 3LM      0.084000
     20 OP1        -3.0910    2.9460   -3.7160 o         1 3LM     -1.246000
     21 OP2        -4.9050    4.2000   -2.5700 os        1 3LM     -1.244000
     22 OP3        -4.8630    1.7270   -2.4840 o         1 3LM     -1.246000
     23 OP4        -3.1370    3.0330   -1.1920 os        1 3LM     -0.726000
     24 O2          1.9140   -1.8390   -2.4840 o         1 3LM     -0.565500
     25 HN          0.2430   -0.5690    1.1890 hn        1 3LM      0.203000
     26 HO3         2.7160    1.9880    1.3280 ho        1 3LM      0.260000
     27 H6         -2.3210    4.1060    0.7320 ha        1 3LM      0.283000
     28 HB         -0.1180   -3.0840    0.8060 ha        1 3LM      0.103000
     29 HE          0.9340   -7.9600    0.2210 h1        1 3LM      0.103667
     30 HEA         0.2400   -7.2740   -1.0550 h1        1 3LM      0.103667
     31 HEB         1.8160   -7.1360   -0.8370 h1        1 3LM      0.103667
     32 HG          0.9030   -4.4100   -1.3710 h4        1 3LM      0.096500
     33 HGA         2.1890   -4.2240   -0.4190 h4        1 3LM      0.096500
     34 H2A         1.4580    3.0420    3.9970 hc        1 3LM      0.058000
     35 H2A1        2.2490    3.9640    2.9740 hc        1 3LM      0.058000
     36 H2A2        0.9930    4.5650    3.7780 hc        1 3LM      0.058000
     37 H4A        -0.3570    0.4160   -1.1730 h1        1 3LM      0.107500
     38 H4A1        1.2050    0.7530   -0.9190 h1        1 3LM      0.107500
     39 H5A        -2.4660    1.1770   -0.8670 h1        1 3LM      0.060000
     40 H5A1       -1.5320    2.0520   -1.8540 h1        1 3LM      0.060000
@<TRIPOS>BOND
     1    1    3 1   
     2    1   24 1   
     3    2   12 1   
     4    2   18 1   
     5    2   25 1   
     6    4   20 1   
     7    4   22 1   
     8    4   23 1   
     9    5    6 1   
    10    6   17 1   
    11    7    8 1   
    12    7    9 1   
    13    8   26 1   
    14    9   18 1   
    15   10   11 1   
    16   10   19 1   
    17   11   27 1   
    18   12   13 1   
    19   13   28 1   
    20   14   15 1   
    21   14   16 1   
    22   15   29 1   
    23   15   30 1   
    24   15   31 1   
    25   16   32 1   
    26   16   33 1   
    27   17   34 1   
    28   17   35 1   
    29   17   36 1   
    30   18   37 1   
    31   18   38 1   
    32   19   23 1   
    33   19   39 1   
    34   19   40 1   
@<TRIPOS>SUBSTRUCTURE
     1 3LM         1 TEMP              0 ****  ****    0 ROOT
