@<TRIPOS>MOLECULE
3LM
   40    40     1     0     0
SMALL
bcc


@<TRIPOS>ATOM
      1 C          -3.2710    0.5880   -1.6120 c         1 3LM      0.907800
      2 N          -1.2140    1.0650   -0.2400 nh        1 3LM     -0.735000
      3 O1         -3.2940   -0.6530   -1.8720 o         1 3LM     -0.830800
      4 N1          1.9910   -2.8350    0.8030 nb        1 3LM     -0.676000
      5 C2          0.6920   -3.0530    0.4570 ca        1 3LM      0.292600
      6 C3         -0.1000   -2.0470   -0.1480 ca        1 3LM      0.015800
      7 O3         -1.3880   -2.4160   -0.4560 oh        1 3LM     -0.545100
      8 C4          0.4550   -0.7680   -0.3970 ca        1 3LM     -0.199300
      9 C5          1.7770   -0.5440   -0.0040 ca        1 3LM     -0.135600
     10 C6          2.5060   -1.6270    0.5740 ca        1 3LM      0.359200
     11 CA         -2.5910    1.0200   -0.3000 ce        1 3LM      0.117800
     12 CB         -3.3680    1.4160    0.7570 c2        1 3LM     -0.391200
     13 SD         -5.7190    0.2430    1.5870 ss        1 3LM     -0.515200
     14 CE         -5.0850   -1.2640    0.9290 c3        1 3LM      0.000000
     15 CG         -4.8180    1.5360    0.6880 c3        1 3LM      0.153900
     16 C4A        -0.3550    0.2860   -1.1020 c3        1 3LM      0.241100
     17 C5A         2.5120    0.7670   -0.1730 c3        1 3LM      0.241700
     18 OP1         5.0880    1.3130   -1.0650 o         1 3LM     -0.925833
     19 OP2         5.3400   -0.5900    0.6090 o         1 3LM     -0.925833
     20 OP3         5.7690    1.8230    1.3430 o         1 3LM     -0.925833
     21 OP4         3.4270    0.9980    0.8200 os        1 3LM     -0.564200
     22 O2         -3.8030    1.4670   -2.3400 o         1 3LM     -0.830800
     23 HN         -0.8180    1.2480    0.6580 hn        1 3LM      0.407800
     24 HO3        -1.8590   -1.6610   -0.8560 ho        1 3LM      0.461000
     25 H6          3.5990   -1.4270    0.8250 h4        1 3LM      0.146100
     26 HB         -2.9160    1.6720    1.7270 ha        1 3LM      0.103000
     27 HE         -4.6070   -1.8500    1.7430 h1        1 3LM      0.064367
     28 HEA        -5.9250   -1.8500    0.4960 h1        1 3LM      0.064367
     29 HEB        -4.3250   -1.0650    0.1280 h1        1 3LM      0.064367
     30 HG         -5.1800    2.4590    1.2050 h1        1 3LM      0.057200
     31 HGA        -5.1850    1.5320   -0.3690 h1        1 3LM      0.057200
     32 H2A        -0.8200   -4.2550    1.3780 hc        1 3LM      0.018700
     33 H2A1       -0.2950   -4.8110   -0.2600 hc        1 3LM      0.018700
     34 H2A2        0.7750   -5.1060    1.1800 hc        1 3LM      0.018700
     35 H4A        -0.9660   -0.1920   -1.9230 h1        1 3LM      0.068200
     36 H4A1        0.3570    1.0130   -1.5960 h1        1 3LM      0.068200
     37 H5A         3.0170    0.7560   -1.1880 h1        1 3LM      0.020700
     38 H5A1        1.7420    1.5970   -0.1570 h1        1 3LM      0.020700
     39 C2A         0.0660   -4.3840    0.7080 c3        1 3LM     -0.104400
     40 P           5.1030    0.8840    0.3790 p5        1 3LM      1.315900
@<TRIPOS>BOND
     1    1    3 1   
     2    1   11 1   
     3    1   22 1   
     4    2   11 1   
     5    2   16 1   
     6    2   23 1   
     7    4    5 ar  
     8    4   10 ar  
     9    5    6 ar  
    10    5   39 1   
    11    6    7 1   
    12    6    8 ar  
    13    7   24 1   
    14    8    9 ar  
    15    8   16 1   
    16    9   10 ar  
    17    9   17 1   
    18   10   25 1   
    19   11   12 2   
    20   12   15 1   
    21   12   26 1   
    22   13   14 1   
    23   13   15 1   
    24   14   27 1   
    25   14   28 1   
    26   14   29 1   
    27   15   30 1   
    28   15   31 1   
    29   16   35 1   
    30   16   36 1   
    31   17   21 1   
    32   17   37 1   
    33   17   38 1   
    34   18   40 1   
    35   19   40 1   
    36   20   40 1   
    37   21   40 1   
    38   32   39 1   
    39   33   39 1   
    40   34   39 1   
@<TRIPOS>SUBSTRUCTURE
     1 3LM         1 TEMP              0 ****  ****    0 ROOT
