@<TRIPOS>MOLECULE
3LM
   41    39     1     0     0
SMALL
bcc


@<TRIPOS>ATOM
      1 C         -45.1780   46.8200  -13.0330 c2        1 3LM      0.335000
      2 N         -42.8490   45.8410  -12.6380 ny        1 3LM     -0.066000
      3 O1        -44.5730   47.9150  -13.2330 o         1 3LM     -0.565500
      4 N1        -42.3190   41.1360  -11.6160 n2        1 3LM     -0.133000
      5 C2        -41.9490   40.0170  -10.9460 c2        1 3LM     -0.046000
      6 C3        -42.0150   39.9530   -9.5280 c2        1 3LM     -0.005000
      7 O3        -41.6180   38.7750   -8.9310 oh        1 3LM     -0.258000
      8 C4        -42.4660   41.0630   -8.7960 c2        1 3LM     -0.182000
      9 C5        -42.8400   42.2030   -9.4980 c2        1 3LM     -0.138000
     10 C6        -42.7530   42.1900  -10.9070 c2        1 3LM     -0.094000
     11 CA        -43.5830   45.2840  -11.5200 cu        1 3LM     -0.431000
     12 CB        -43.5400   45.5590  -10.1880 c1        1 3LM      0.014000
     13 SD        -48.6080   49.0630  -14.0150 sh        1 3LM     -0.172000
     14 CE        -47.0750   49.9250  -13.8630 c3        1 3LM     -0.302000
     15 CG        -43.4760   45.6440   -8.9870 c1        1 3LM     -0.404000
     16 C4A       -44.3260   45.5750  -12.7400 cx        1 3LM     -0.014000
     17 C5A       233.1550 -254.3030   74.1110 c1        1 3LM      0.131000
     18 OP1       234.2540 -256.4610   76.2740 o         1 3LM     -0.767500
     19 OP2       234.1960 -254.1560   74.9490 os        1 3LM     -0.697000
     20 OP3       235.8430 -256.1190   74.2370 o         1 3LM     -0.767500
     21 OP4       233.2430 -255.6360   73.9570 os        1 3LM     -0.697000
     22 O2        -46.4250   46.6670  -13.1130 o         1 3LM     -0.565500
     23 HN        -42.5920   46.8210  -12.6680 hn        1 3LM      0.206500
     24 HO3       -41.7580   38.8750   -7.9780 ho        1 3LM      0.208000
     25 H6        -43.1960   43.1160   -8.9920 ha        1 3LM      0.177000
     26 HB        -43.0600   43.1050  -11.4740 h4        1 3LM      0.228000
     27 HE        -46.2400   49.2180  -13.6170 h1        1 3LM      0.108667
     28 HEA       -47.1630   50.6850  -13.0570 h1        1 3LM      0.108667
     29 HEB       -46.8560   50.4350  -14.8260 h1        1 3LM      0.108667
     30 HG        -48.1840   47.8310  -13.6590 hs        1 3LM      0.135000
     31 HGA       -43.4440   45.7550   -7.9400 ha        1 3LM      0.197000
     32 H2A       -41.5990   38.9170  -12.7900 hc        1 3LM      0.085000
     33 H2A1      -41.9960   37.9140  -11.3240 hc        1 3LM      0.085000
     34 H2A2      -40.3640   38.6850  -11.4770 hc        1 3LM      0.085000
     35 H4A       -42.5200   41.0240   -7.7000 ha        1 3LM      0.126000
     36 H4A1      -44.6370   44.7130  -13.3750 hx        1 3LM      0.116000
     37 H5A        -2.6080    1.4660    5.6030 ha        1 3LM      0.000000
     38 H5A1       -2.1570    1.0000    5.7960 ha        1 3LM      0.000000
     39 P         234.6240 -255.8450   74.9990 p5        1 3LM      1.798000
     40 HN3       -42.1940   45.2420  -13.1050 hn        1 3LM      0.206500
     41 C2A       -41.4530   38.8210  -11.6880 c3        1 3LM     -0.155000
@<TRIPOS>BOND
     1    1    3 1   
     2    1   16 1   
     3    1   22 1   
     4    2   11 1   
     5    2   16 1   
     6    2   23 1   
     7    2   40 1   
     8    4    5 1   
     9    4   10 1   
    10    5    6 1   
    11    5   41 1   
    12    6    7 1   
    13    6    8 1   
    14    7   24 1   
    15    8    9 1   
    16    8   35 1   
    17    9   10 1   
    18    9   25 1   
    19   10   26 1   
    20   11   12 1   
    21   11   16 1   
    22   12   15 1   
    23   13   14 1   
    24   13   30 1   
    25   14   27 1   
    26   14   28 1   
    27   14   29 1   
    28   15   31 1   
    29   16   36 1   
    30   17   19 1   
    31   17   21 1   
    32   18   39 1   
    33   19   39 1   
    34   20   39 1   
    35   21   39 1   
    36   32   41 1   
    37   33   41 1   
    38   34   41 1   
    39   37   38 1   
@<TRIPOS>SUBSTRUCTURE
     1 3LM         1 TEMP              0 ****  ****    0 ROOT
