@<TRIPOS>MOLECULE
3LM
   41    38     1     0     0
SMALL
bcc


@<TRIPOS>ATOM
      1 C           1.3700    1.8200   -1.0830 c1        1 3LM      0.430000
      2 N          -0.5180    1.8850    2.3850 n2        1 3LM     -0.247000
      3 O1          2.4230    1.9950   -0.5570 o         1 3LM     -0.215000
      4 N1         -2.0100   -8.3930    3.5110 n2        1 3LM     -0.272000
      5 C2         -3.2650   -8.0850    2.9440 c2        1 3LM     -0.029000
      6 C3         -3.6280   -6.7980    2.6680 c2        1 3LM     -0.134000
      7 O3         -4.8870   -6.5110    2.1540 oh        1 3LM     -0.288000
      8 C4         -2.7300   -5.6320    2.8930 c3        1 3LM     -0.124000
      9 C5         -1.5800   -5.9660    3.8260 c3        1 3LM     -0.232000
     10 C6         -1.1960   -7.4830    3.8890 c1        1 3LM     -0.232000
     11 CA         -0.8640    3.2350    2.5120 c2        1 3LM     -0.085000
     12 CB         -0.6280    4.2210    1.6780 c1        1 3LM     -0.538000
     13 SD         -0.2500    6.1210    0.2950 s4        1 3LM      1.369000
     14 CE          0.0750    6.5980   -1.1250 c2        1 3LM     -1.202000
     15 CG          0.0070    4.3850    0.3980 c3        1 3LM     -0.395000
     16 C4A        -0.2280    0.7480    2.2880 c1        1 3LM     -0.098000
     17 C5A        -0.3410   -5.2360    3.5650 c2        1 3LM      0.333000
     18 OP1         2.1500   -4.2380    3.3310 o         1 3LM     -0.784500
     19 OP2         0.6080   -2.2550    3.1620 oh        1 3LM     -0.826000
     20 OP3         1.4350   -3.2320    0.9790 o         1 3LM     -0.784500
     21 OP4        -0.1900   -4.4700    2.5520 os        1 3LM     -0.525000
     22 O2          0.3440    1.6480   -1.6590 o         1 3LM     -0.215000
     23 HN         -0.4340   -0.4680    4.4430 ha        1 3LM      0.000500
     24 HO3        -4.7370   -5.8990    1.4190 ho        1 3LM      0.187000
     25 H6         -1.8780   -5.7590    4.8960 hc        1 3LM      0.132000
     26 HB         -1.3990    3.4010    3.4670 h4        1 3LM      0.099000
     27 HE          0.0310    5.9730   -2.0160 h4        1 3LM      0.119000
     28 HEA         0.7330    6.5870    1.0250 hs        1 3LM     -0.301000
     29 HEB         0.3650    7.6190   -1.3720 h4        1 3LM      0.119000
     30 HG         -0.5200    3.8600   -0.4390 h1        1 3LM      0.084000
     31 HGA         1.0780    4.0690    0.3620 h1        1 3LM      0.084000
     32 H2A        -3.6700  -10.0390    2.1270 hc        1 3LM      0.066000
     33 H2A1       -5.0640   -8.8730    2.0590 hc        1 3LM      0.066000
     34 H2A2       -4.5840   -9.6320    3.6370 hc        1 3LM      0.066000
     35 H4A         0.3270   -1.5020    2.6330 ho        1 3LM      0.298000
     36 H4A1       -3.3280   -4.7790    3.3140 hc        1 3LM      0.081500
     37 H5A        -2.3300   -5.2890    1.8980 hc        1 3LM      0.081500
     38 H5A1        0.5250   -5.3680    4.2600 h4        1 3LM      0.188000
     39 P           1.2860   -3.4900    2.4100 p5        1 3LM      1.874000
     40 HN3        -0.5870   -0.7230    5.0520 ha        1 3LM      0.000500
     41 C2A        -4.1970   -9.2180    2.6730 c3        1 3LM     -0.149000
@<TRIPOS>BOND
     1    1    3 1   
     2    1   22 1   
     3    2   11 1   
     4    2   16 1   
     5    4    5 1   
     6    4   10 1   
     7    5    6 1   
     8    5   41 1   
     9    6    7 1   
    10    6    8 1   
    11    7   24 1   
    12    8    9 1   
    13    8   36 1   
    14    8   37 1   
    15    9   10 1   
    16    9   17 1   
    17    9   25 1   
    18   11   12 1   
    19   11   26 1   
    20   12   15 1   
    21   13   14 1   
    22   13   15 1   
    23   13   28 1   
    24   14   27 1   
    25   14   29 1   
    26   15   30 1   
    27   15   31 1   
    28   17   21 1   
    29   17   38 1   
    30   18   39 1   
    31   19   35 1   
    32   19   39 1   
    33   20   39 1   
    34   21   39 1   
    35   23   40 1   
    36   32   41 1   
    37   33   41 1   
    38   34   41 1   
@<TRIPOS>SUBSTRUCTURE
     1 3LM         1 TEMP              0 ****  ****    0 ROOT
