@<TRIPOS>MOLECULE
3LM
   41    37     1     0     0
SMALL
bcc


@<TRIPOS>ATOM
      1 C        -120.6390    4.2650  -36.6720 c2        1 3LM      0.357000
      2 N        -123.0040    4.1860  -37.6230 n4        1 3LM     -0.025000
      3 O1       -121.1390    3.5320  -35.7810 o         1 3LM     -0.519000
      4 N1       -127.7250    2.4980  -38.4980 n2        1 3LM     -0.151000
      5 C2       -127.3580    3.7500  -38.0980 c2        1 3LM     -0.079000
      6 C3       -126.0260    4.2020  -38.2100 c2        1 3LM     -0.097000
      7 O3       -125.6100    5.4550  -37.7710 oh        1 3LM     -0.318000
      8 C4       -125.0430    3.3380  -38.7450 c2        1 3LM     -0.170000
      9 C5       -125.4460    2.0650  -39.1280 c2        1 3LM     -0.163000
     10 C6       -126.8100    1.6730  -38.9980 c1        1 3LM     -0.298000
     11 CA       -121.6430    4.7940  -37.7980 c3        1 3LM     -0.080000
     12 CB       -121.6920    6.2310  -37.8030 c1        1 3LM     -0.164000
     13 SD       -116.9090    3.9300  -34.6480 sh        1 3LM     -0.136000
     14 CE       -118.3170    3.0760  -34.0110 c3        1 3LM     -0.304000
     15 CG       -121.6810    7.4270  -37.8030 c1        1 3LM     -0.184000
     16 C4A      -123.6420    3.8100  -38.9190 c3        1 3LM     -0.055000
     17 C5A       709.5140  -36.6260  229.5420 c1        1 3LM      0.201000
     18 OP1       713.1640  -37.0540  231.5940 o         1 3LM     -1.130333
     19 OP2       712.6350  -34.5560  231.4620 o         1 3LM     -1.130333
     20 OP3       712.2680  -36.0500  229.4240 o         1 3LM     -1.130333
     21 OP4       710.2210  -36.4280  230.4560 o         1 3LM     -0.200000
     22 O2       -119.4430    4.5930  -36.8150 o         1 3LM     -0.519000
     23 HN       -122.8920    3.3520  -37.0160 hn        1 3LM      0.263000
     24 HO3      -126.3290    6.0700  -37.9630 ho        1 3LM      0.208000
     25 H6       -124.7260    1.3480  -39.5390 ha        1 3LM      0.108000
     26 HB       -121.2180    4.4270  -38.7800 hx        1 3LM      0.139000
     27 HE       -119.2230    3.2550  -34.6420 h1        1 3LM      0.108333
     28 HEA      -118.5130    3.4320  -32.9770 h1        1 3LM      0.108333
     29 HEB      -118.0970    1.9870  -33.9870 h1        1 3LM      0.108333
     30 HG       -117.4680    4.4800  -35.7360 hs        1 3LM      0.108000
     31 HGA      -121.6650    8.4860  -37.7960 ha        1 3LM      0.219000
     32 H2A      -128.0150    5.1060  -36.5650 hc        1 3LM      0.069000
     33 H2A1     -129.3570    4.1840  -37.3660 hc        1 3LM      0.069000
     34 H2A2     -128.5380    5.5390  -38.2480 hc        1 3LM      0.069000
     35 H4A      -123.0080    3.0090  -39.3940 hx        1 3LM      0.113500
     36 H4A1     -123.6280    4.7290  -39.5720 hx        1 3LM      0.113500
     37 H5A      -122.6890    1.8530  -35.3690 ha        1 3LM      0.002500
     38 H5A1     -123.2840    1.7290  -35.6700 ha        1 3LM      0.002500
     39 P         712.6740  -35.8890  230.8360 p3        1 3LM      2.389000
     40 HN3      -123.6210    4.8420  -37.1290 hn        1 3LM      0.263000
     41 C2A      -128.3760    4.6900  -37.5380 c3        1 3LM     -0.165000
@<TRIPOS>BOND
     1    1    3 1   
     2    1   11 1   
     3    1   22 1   
     4    2   11 1   
     5    2   16 1   
     6    2   23 1   
     7    2   40 1   
     8    4    5 1   
     9    4   10 1   
    10    5    6 1   
    11    5   41 1   
    12    6    7 1   
    13    6    8 1   
    14    7   24 1   
    15    8    9 1   
    16    8   16 1   
    17    9   10 1   
    18    9   25 1   
    19   11   12 1   
    20   11   26 1   
    21   12   15 1   
    22   13   14 1   
    23   13   30 1   
    24   14   27 1   
    25   14   28 1   
    26   14   29 1   
    27   15   31 1   
    28   16   35 1   
    29   16   36 1   
    30   17   21 1   
    31   18   39 1   
    32   19   39 1   
    33   20   39 1   
    34   32   41 1   
    35   33   41 1   
    36   34   41 1   
    37   37   38 1   
@<TRIPOS>SUBSTRUCTURE
     1 3LM         1 TEMP              0 ****  ****    0 ROOT
