@<TRIPOS>MOLECULE
3LN
   56    60     1     0     0
SMALL
bcc


@<TRIPOS>ATOM
      1 C4          0.0350    0.7260    0.1400 ca        1 3LN      0.161100
      2 C14         1.7560    1.1270   -3.6630 ca        1 3LN     -0.145000
      3 C5          1.4110    0.4820    0.0610 ca        1 3LN     -0.168300
      4 C6          2.0830    0.0510    1.2150 ca        1 3LN     -0.088000
      5 C11        -0.9810    1.5580   -3.2220 ca        1 3LN     -0.093000
      6 C8         -0.1190    1.2380   -2.1550 ca        1 3LN      0.109100
      7 C9          1.2450    1.0190   -2.3640 ca        1 3LN     -0.129300
      8 C10         2.1630    0.6910   -1.2210 c3        1 3LN      0.243800
      9 C12        -0.4690    1.6660   -4.5050 ca        1 3LN     -0.148000
     10 C13         0.9040    1.4490   -4.7280 ca        1 3LN      0.130100
     11 C3         -0.6710    0.5350    1.3460 ca        1 3LN     -0.133000
     12 C25         3.4070   -0.1120    3.9150 ca        1 3LN      0.439200
     13 N26         4.0890   -0.5220    5.0010 nb        1 3LN     -0.680500
     14 C27         3.4560   -1.4260    5.7980 ca        1 3LN      0.644900
     15 N28         2.2130   -1.9490    5.6010 nb        1 3LN     -0.680500
     16 C29         1.5560   -1.5260    4.5060 ca        1 3LN      0.439200
     17 C15         2.1130   -0.5890    3.6000 cp        1 3LN     -0.285600
     18 C1          1.4000   -0.1410    2.4170 cp        1 3LN     -0.038000
     19 C2          0.0140    0.1050    2.4700 ca        1 3LN     -0.064000
     20 O7         -0.7410    1.1610   -0.9170 os        1 3LN     -0.207200
     21 O16         1.5250    1.5340   -5.9530 os        1 3LN     -0.326900
     22 C22         0.6670    1.7970   -7.0770 c3        1 3LN      0.130400
     23 C23         1.5470    1.7920   -8.3330 c3        1 3LN     -0.053000
     24 C30         2.6090    2.8740   -8.2260 c3        1 3LN     -0.089100
     25 C31         2.2050    0.4330   -8.5010 c3        1 3LN     -0.089100
     26 C24         0.6430    2.0760   -9.5250 c3        1 3LN     -0.089100
     27 C17         3.0340   -0.5840   -1.5680 c3        1 3LN      0.105400
     28 O18         4.4170   -0.1130   -1.5860 os        1 3LN     -0.442400
     29 C19         4.3470    1.2560   -1.2780 c2        1 3LN      0.584500
     30 N21         5.6610    1.8970   -1.2660 nz        1 3LN     -0.766600
     31 N20         3.1780    1.7890   -1.0540 n2        1 3LN     -0.489900
     32 H1          2.8240    0.9600   -3.8660 ha        1 3LN      0.138000
     33 H2          3.1650   -0.1470    1.1700 ha        1 3LN      0.124000
     34 H3         -2.0510    1.7220   -3.0190 ha        1 3LN      0.172000
     35 H4         -1.1430    1.9210   -5.3370 ha        1 3LN      0.163000
     36 H5         -1.7530    0.7360    1.3730 ha        1 3LN      0.174000
     37 H8          0.5490   -1.9530    4.3400 h4        1 3LN      0.026600
     38 H9         -0.5290   -0.0390    3.4190 ha        1 3LN      0.160000
     39 H10         0.1830    2.7990   -6.9400 h1        1 3LN      0.047700
     40 H11        -0.1130    0.9930   -7.1420 h1        1 3LN      0.047700
     41 H12         2.1320    3.8780   -8.1220 hc        1 3LN      0.042144
     42 H13         3.2480    2.8750   -9.1420 hc        1 3LN      0.042144
     43 H14         3.2550    2.6890   -7.3350 hc        1 3LN      0.042144
     44 H15         2.8450    0.4270   -9.4160 hc        1 3LN      0.042144
     45 H16         2.8420    0.2030   -7.6140 hc        1 3LN      0.042144
     46 H17         1.4310   -0.3650   -8.6020 hc        1 3LN      0.042144
     47 H18        -0.1450    1.2910   -9.6150 hc        1 3LN      0.042144
     48 H19         0.1490    3.0710   -9.4150 hc        1 3LN      0.042144
     49 H20         1.2480    2.0810  -10.4630 hc        1 3LN      0.042144
     50 H21         2.9780   -1.3750   -0.7820 h1        1 3LN      0.111700
     51 H22         2.8230   -0.9870   -2.5890 h1        1 3LN      0.111700
     52 H23         6.0260    1.9100   -2.2280 hn        1 3LN      0.489467
     53 H24         5.5840    2.8580   -0.9040 hn        1 3LN      0.489467
     54 H6          3.9080    0.6370    3.2770 h4        1 3LN      0.026600
     55 H213        6.2900    1.3410   -0.6700 hn        1 3LN      0.489467
     56 H7          4.0050   -1.7710    6.7000 h5        1 3LN      0.070100
@<TRIPOS>BOND
     1    1    3 ar  
     2    1   11 ar  
     3    1   20 1   
     4    2    7 ar  
     5    2   10 ar  
     6    2   32 1   
     7    3    4 ar  
     8    3    8 1   
     9    4   18 ar  
    10    4   33 1   
    11    5    6 ar  
    12    5    9 ar  
    13    5   34 1   
    14    6    7 ar  
    15    6   20 1   
    16    7    8 1   
    17    8   27 1   
    18    8   31 1   
    19    9   10 ar  
    20    9   35 1   
    21   10   21 1   
    22   11   19 ar  
    23   11   36 1   
    24   12   13 ar  
    25   12   17 ar  
    26   12   54 1   
    27   13   14 ar  
    28   14   15 ar  
    29   14   56 1   
    30   15   16 ar  
    31   16   17 ar  
    32   16   37 1   
    33   17   18 1   
    34   18   19 ar  
    35   19   38 1   
    36   21   22 1   
    37   22   23 1   
    38   22   39 1   
    39   22   40 1   
    40   23   24 1   
    41   23   25 1   
    42   23   26 1   
    43   24   41 1   
    44   24   42 1   
    45   24   43 1   
    46   25   44 1   
    47   25   45 1   
    48   25   46 1   
    49   26   47 1   
    50   26   48 1   
    51   26   49 1   
    52   27   28 1   
    53   27   50 1   
    54   27   51 1   
    55   28   29 1   
    56   29   30 1   
    57   29   31 2   
    58   30   52 1   
    59   30   53 1   
    60   30   55 1   
@<TRIPOS>SUBSTRUCTURE
     1 3LN         1 TEMP              0 ****  ****    0 ROOT
