@<TRIPOS>MOLECULE
3LN
   56    60     1     0     0
SMALL
bcc


@<TRIPOS>ATOM
      1 C4          0.0370    0.7510    0.1420 ca        1 3LN      0.161100
      2 C14         1.7580    1.1210   -3.6640 ca        1 3LN     -0.145000
      3 C5          1.4100    0.4910    0.0620 ca        1 3LN     -0.168300
      4 C6          2.0780    0.0570    1.2170 ca        1 3LN     -0.088000
      5 C11        -0.9740    1.5860   -3.2210 ca        1 3LN     -0.093000
      6 C8         -0.1140    1.2580   -2.1550 ca        1 3LN      0.109100
      7 C9          1.2480    1.0230   -2.3640 ca        1 3LN     -0.129300
      8 C10         2.1630    0.6870   -1.2210 c3        1 3LN      0.243800
      9 C12        -0.4620    1.6840   -4.5050 ca        1 3LN     -0.148000
     10 C13         0.9080    1.4500   -4.7290 ca        1 3LN      0.130100
     11 C3         -0.6690    0.5730    1.3490 ca        1 3LN     -0.133000
     12 C25         3.4040   -0.1130    3.9160 ca        1 3LN      0.439200
     13 N26         4.0830   -0.5270    5.0030 nb        1 3LN     -0.680500
     14 C27         3.4400   -1.4210    5.8030 ca        1 3LN      0.644900
     15 N28         2.1910   -1.9300    5.6100 nb        1 3LN     -0.680500
     16 C29         1.5370   -1.5030    4.5140 ca        1 3LN      0.439200
     17 C15         2.1040   -0.5750    3.6050 cp        1 3LN     -0.285600
     18 C1          1.3950   -0.1240    2.4200 cp        1 3LN     -0.038000
     19 C2          0.0110    0.1390    2.4740 ca        1 3LN     -0.064000
     20 O7         -0.7350    1.1920   -0.9150 os        1 3LN     -0.207200
     21 O16         1.5290    1.5240   -5.9550 os        1 3LN     -0.326900
     22 C22         0.6730    1.7960   -7.0780 c3        1 3LN      0.130400
     23 C23         1.5510    1.7790   -8.3350 c3        1 3LN     -0.053000
     24 C30         2.6280    2.8460   -8.2310 c3        1 3LN     -0.089100
     25 C31         2.1910    0.4100   -8.5030 c3        1 3LN     -0.089100
     26 C24         0.6500    2.0740   -9.5270 c3        1 3LN     -0.089100
     27 C17         3.0180   -0.5990   -1.5660 c3        1 3LN      0.105400
     28 O18         4.4060   -0.1450   -1.5870 os        1 3LN     -0.442400
     29 C19         4.3530    1.2260   -1.2830 c2        1 3LN      0.584500
     30 N21         5.6750    1.8510   -1.2740 n4        1 3LN     -0.766600
     31 N20         3.1910    1.7740   -1.0590 n2        1 3LN     -0.489900
     32 H1          2.8230    0.9400   -3.8680 ha        1 3LN      0.138000
     33 H2          3.1580   -0.1540    1.1710 ha        1 3LN      0.124000
     34 H3         -2.0420    1.7620   -3.0180 ha        1 3LN      0.172000
     35 H4         -1.1340    1.9440   -5.3370 ha        1 3LN      0.163000
     36 H5         -1.7500    0.7860    1.3770 ha        1 3LN      0.174000
     37 H8          0.5250   -1.9190    4.3510 h4        1 3LN      0.026600
     38 H9         -0.5320    0.0040    3.4240 ha        1 3LN      0.160000
     39 H10        -0.1170    1.0020   -7.1410 h1        1 3LN      0.047700
     40 H11         0.2020    2.8050   -6.9420 h1        1 3LN      0.047700
     41 H12         3.2730    2.6530   -7.3400 hc        1 3LN      0.042144
     42 H13         2.1660    3.8570   -8.1260 hc        1 3LN      0.042144
     43 H14         3.2660    2.8380   -9.1470 hc        1 3LN      0.042144
     44 H15         2.8250    0.1720   -7.6150 hc        1 3LN      0.042144
     45 H16         2.8300    0.3950   -9.4180 hc        1 3LN      0.042144
     46 H17         1.4060   -0.3770   -8.6030 hc        1 3LN      0.042144
     47 H18         0.1710    3.0760   -9.4170 hc        1 3LN      0.042144
     48 H19        -0.1490    1.3000   -9.6150 hc        1 3LN      0.042144
     49 H20         1.2540    2.0690  -10.4660 hc        1 3LN      0.042144
     50 H21         2.9540   -1.3870   -0.7760 h1        1 3LN      0.111700
     51 H22         2.8000   -1.0030   -2.5840 h1        1 3LN      0.111700
     52 H23         6.0410    1.8530   -2.2370 hn        1 3LN      0.489467
     53 H24         6.2970    1.2910   -0.6740 hn        1 3LN      0.489467
     54 H6          3.9120    0.6280    3.2750 h4        1 3LN      0.026600
     55 H213        5.6090    2.8150   -0.9190 hn        1 3LN      0.489467
     56 H7          3.9870   -1.7690    6.7050 h5        1 3LN      0.070100
@<TRIPOS>BOND
     1    1    3 ar  
     2    1   11 ar  
     3    1   20 1   
     4    2    7 ar  
     5    2   10 ar  
     6    2   32 1   
     7    3    4 ar  
     8    3    8 1   
     9    4   18 ar  
    10    4   33 1   
    11    5    6 ar  
    12    5    9 ar  
    13    5   34 1   
    14    6    7 ar  
    15    6   20 1   
    16    7    8 1   
    17    8   27 1   
    18    8   31 1   
    19    9   10 ar  
    20    9   35 1   
    21   10   21 1   
    22   11   19 ar  
    23   11   36 1   
    24   12   13 ar  
    25   12   17 ar  
    26   12   54 1   
    27   13   14 ar  
    28   14   15 ar  
    29   14   56 1   
    30   15   16 ar  
    31   16   17 ar  
    32   16   37 1   
    33   17   18 1   
    34   18   19 ar  
    35   19   38 1   
    36   21   22 1   
    37   22   23 1   
    38   22   39 1   
    39   22   40 1   
    40   23   24 1   
    41   23   25 1   
    42   23   26 1   
    43   24   41 1   
    44   24   42 1   
    45   24   43 1   
    46   25   44 1   
    47   25   45 1   
    48   25   46 1   
    49   26   47 1   
    50   26   48 1   
    51   26   49 1   
    52   27   28 1   
    53   27   50 1   
    54   27   51 1   
    55   28   29 1   
    56   29   30 1   
    57   29   31 2   
    58   30   52 1   
    59   30   53 1   
    60   30   55 1   
@<TRIPOS>SUBSTRUCTURE
     1 3LN         1 TEMP              0 ****  ****    0 ROOT
