@<TRIPOS>MOLECULE
3LO
   53    54     1     0     0
SMALL
bcc


@<TRIPOS>ATOM
      1 C4          0.1090    1.3190    0.1450 c2        1 3LO      0.020000
      2 C14         2.0480   -0.7920    3.7730 c2        1 3LO     -0.175000
      3 C5          1.3510    0.8660    0.3940 c2        1 3LO     -0.148000
      4 C6          1.8040    0.5480    1.7390 c2        1 3LO     -0.157000
      5 C11         0.5170    2.6240   -4.4050 c1        1 3LO     -0.169000
      6 C7          0.5210    1.6300   -2.1590 c2        1 3LO      0.244000
      7 C8          1.8120    1.1430   -2.0660 c2        1 3LO     -0.284000
      8 C9          2.3650    0.7440   -0.7110 c3        1 3LO      0.103000
      9 C10        -0.1460    2.1110   -3.3840 c2        1 3LO      0.086000
     10 C12         1.0980    3.2070   -5.4180 c2        1 3LO      0.036000
     11 C13         2.7130    0.9670   -3.1150 c1        1 3LO     -0.160000
     12 N1          3.5860    1.5620   -0.4140 n2        1 3LO     -0.089000
     13 C3         -0.0580   -2.5050    2.6550 c1        1 3LO      0.252000
     14 N3          3.9370   -1.0650    5.2980 n2        1 3LO     -0.067000
     15 C22         1.4590    1.0560   -6.7070 c3        1 3LO     -0.198000
     16 C23         0.7930   -0.4170   -9.7320 c1        1 3LO     -0.032000
     17 O3          0.8850    0.4730  -10.6470 oh        1 3LO     -0.134000
     18 C24         2.6290    3.9160   -8.5680 c2        1 3LO     -0.152000
     19 C25         2.1140    3.2420   -7.5900 c1        1 3LO     -0.109000
     20 C15         1.5840    2.5340   -6.6150 c2        1 3LO     -0.061000
     21 F1         -1.5040    2.0300   -3.3690 f         1 3LO     -0.075000
     22 O1         -0.3410    1.7200   -1.1000 os        1 3LO     -0.109000
     23 C16         2.9040   -0.7410   -0.8040 c3        1 3LO     -0.026000
     24 O2          4.3430   -0.6400   -0.5830 os        1 3LO     -0.225000
     25 C17         4.5900    0.7290   -0.4030 c2        1 3LO      0.046000
     26 C2          0.4990   -1.5170    1.9760 c2        1 3LO     -0.477000
     27 C1          1.4610   -0.5420    2.4610 c2        1 3LO      0.065000
     28 C21         1.1530   -1.4860    4.7870 c3        1 3LO     -0.105000
     29 C20         1.6550   -1.2140    6.1830 c2        1 3LO     -0.119000
     30 C19         2.9900   -1.1690    6.1460 c1        1 3LO     -0.028000
     31 C18         3.3600   -0.4860    4.0920 c2        1 3LO      0.124000
     32 F2          4.2100    0.1720    3.2750 f         1 3LO     -0.094000
     33 H1          2.5000    1.2940    2.1660 ha        1 3LO      0.154000
     34 H2          1.2460    4.3080   -5.3800 ha        1 3LO      0.167000
     35 H3          2.4060    1.1230   -4.1550 ha        1 3LO      0.093000
     36 H5          6.4950    0.7520   -1.1050 hn        1 3LO      0.283333
     37 H6         -0.7150    1.4440    0.8700 h4        1 3LO      0.210000
     38 H7          2.3850    0.5690   -6.3090 hc        1 3LO      0.102667
     39 H8          1.3190    0.7240   -7.7720 hc        1 3LO      0.102667
     40 H9          0.5850    0.6980   -6.1100 hc        1 3LO      0.102667
     41 H10         0.4210   -1.4310  -10.0050 ha        1 3LO      0.015000
     42 H11         0.6200    0.2130  -11.5580 ho        1 3LO      0.158000
     43 H12         2.0160    4.3150   -9.3920 ha        1 3LO      0.150500
     44 H13         3.7080    4.1240   -8.6390 ha        1 3LO      0.150500
     45 H14         2.7750   -1.1740   -1.8260 h1        1 3LO      0.143000
     46 H15         2.5050   -1.3950    0.0090 h1        1 3LO      0.143000
     47 H16         0.1880   -1.3970    0.9140 ha        1 3LO      0.196000
     48 H17         1.0920   -2.5880    4.5530 hc        1 3LO      0.143500
     49 H18         0.1170   -1.0510    4.7290 hc        1 3LO      0.143500
     50 H19         0.9850   -1.0410    7.0260 ha        1 3LO      0.192000
     51 H4          6.3700    0.4430    0.5450 hn        1 3LO      0.283333
     52 N2          6.0130    1.0150   -0.2330 n4        1 3LO     -0.001000
     53 H23         6.1550    2.0140   -0.0370 hn        1 3LO      0.283333
@<TRIPOS>BOND
     1    1    3 1   
     2    1   22 1   
     3    1   37 1   
     4    2   27 1   
     5    2   28 1   
     6    2   31 1   
     7    3    4 1   
     8    3    8 1   
     9    4   27 1   
    10    4   33 1   
    11    5    9 1   
    12    5   10 1   
    13    6    7 1   
    14    6    9 1   
    15    6   22 1   
    16    7    8 1   
    17    7   11 1   
    18    8   12 1   
    19    8   23 1   
    20    9   21 1   
    21   10   20 1   
    22   10   34 1   
    23   11   35 1   
    24   12   25 1   
    25   13   26 1   
    26   14   30 1   
    27   14   31 1   
    28   15   20 1   
    29   15   38 1   
    30   15   39 1   
    31   15   40 1   
    32   16   17 1   
    33   16   41 1   
    34   17   42 1   
    35   18   19 1   
    36   18   43 1   
    37   18   44 1   
    38   19   20 1   
    39   23   24 1   
    40   23   45 1   
    41   23   46 1   
    42   24   25 1   
    43   25   52 1   
    44   26   27 1   
    45   26   47 1   
    46   28   29 1   
    47   28   48 1   
    48   28   49 1   
    49   29   30 1   
    50   29   50 1   
    51   31   32 1   
    52   36   52 1   
    53   51   52 1   
    54   52   53 1   
@<TRIPOS>SUBSTRUCTURE
     1 3LO         1 TEMP              0 ****  ****    0 ROOT
