@<TRIPOS>MOLECULE
3LP
   57    58     1     0     0
SMALL
bcc


@<TRIPOS>ATOM
      1 OAB        -1.3250    0.5640    0.8820 oh        1 3LP     -0.330000
      2 CAW         0.0540    0.5430    0.5670 c3        1 3LP     -0.001000
      3 CAO         0.8730    0.6580    1.8590 c3        1 3LP     -0.103000
      4 NAQ         1.9430    1.5570    1.6610 n3        1 3LP     -0.301000
      5 CAX         2.1130    2.3620    2.8370 c3        1 3LP     -0.021000
      6 CAN         3.1440    1.7000    3.7430 c3        1 3LP     -0.171000
      7 CAJ         3.5270    2.5800    4.9340 c3        1 3LP     -0.153500
      8 CAF         3.9400    3.9800    4.5120 c3        1 3LP     -0.158000
      9 CAI         2.9060    4.6460    3.6020 c3        1 3LP     -0.153500
     10 CAM         2.5260    3.7690    2.4150 c3        1 3LP     -0.171000
     11 CAP         0.3870   -0.7480   -0.1350 c3        1 3LP     -0.010000
     12 NAY        -0.7580   -1.1720   -0.9430 n3        1 3LP     -0.163000
     13 CAV        -1.1960   -0.5490   -2.4400 c2        1 3LP     -0.003000
     14 CAD        -0.9440    0.7260   -3.1900 c2        1 3LP     -0.141000
     15 CAC        -1.5340    0.9170   -4.6100 c1        1 3LP     -0.118000
     16 CAR        -2.5170   -0.1580   -5.2070 c1        1 3LP     -0.098000
     17 CAA        -3.2220    0.2290   -6.4710 c3        1 3LP     -0.172000
     18 CAE        -2.7440   -1.4950   -4.4660 c1        1 3LP     -0.087000
     19 CAU        -2.1140   -1.7220   -3.1150 c1        1 3LP     -0.060000
     20 CAS        -2.1330   -2.7410   -2.1380 c2        1 3LP     -0.151000
     21 CAT        -1.3610   -2.4090   -0.9060 c2        1 3LP     -0.006000
     22 CAK        -3.0040   -3.9410   -2.0580 c3        1 3LP     -0.085000
     23 CAG        -2.3790   -5.0850   -1.1160 c3        1 3LP     -0.156000
     24 CAH        -2.0420   -4.7410   -0.0750 c3        1 3LP     -0.149000
     25 CAL        -0.9580   -3.5700   -0.0520 c3        1 3LP     -0.110000
     26 HAA1       -2.5760    0.6210   -7.1000 hc        1 3LP      0.078667
     27 HAA2       -3.6280   -0.5640   -6.8730 hc        1 3LP      0.078667
     28 HAA3       -3.9180    0.8840   -6.2680 hc        1 3LP      0.078667
     29 HAC        -1.2900    1.7130   -5.1430 ha        1 3LP      0.127000
     30 HAD        -0.3350    1.3940   -2.8230 ha        1 3LP      0.126000
     31 HAE        -3.3500   -2.1570   -4.8360 ha        1 3LP      0.133000
     32 HAK1       -3.9380   -3.7980   -1.7900 hc        1 3LP      0.085000
     33 HAK2       -3.1290   -4.2580   -2.9790 hc        1 3LP      0.085000
     34 HAG1       -3.0520   -5.7870   -1.0040 hc        1 3LP      0.080000
     35 HAG2       -1.6070   -5.4710   -1.5750 hc        1 3LP      0.080000
     36 HAH1       -1.6600   -5.5280    0.4050 hc        1 3LP      0.082500
     37 HAH2       -2.8340   -4.4350    0.4180 hc        1 3LP      0.082500
     38 HAL1       -0.7500   -3.4270    0.8940 hc        1 3LP      0.102000
     39 HAL2       -0.0860   -3.8430   -0.3870 hc        1 3LP      0.102000
     40 HAP1        1.1600   -0.6150   -0.7130 h1        1 3LP      0.107500
     41 HAP2        0.5910   -1.4350    0.5260 h1        1 3LP      0.107500
     42 HAW         0.2650    1.2940   -0.0190 h1        1 3LP      0.110000
     43 HAB        -1.6070    1.4090    0.9250 ho        1 3LP      0.206000
     44 HAO1        0.3000    0.9890    2.5780 h1        1 3LP      0.077000
     45 HAO2        1.2300   -0.2350    2.1070 h1        1 3LP      0.077000
     46 HAQ         2.7050    1.0900    1.5030 hn        1 3LP      0.152000
     47 HAX         1.2510    2.4120    3.3170 h1        1 3LP      0.097000
     48 HAM1        3.2990    3.7060    1.8060 hc        1 3LP      0.083250
     49 HAM2        1.7800    4.1880    1.9390 hc        1 3LP      0.083250
     50 HAI1        3.2760    5.4900    3.2680 hc        1 3LP      0.080500
     51 HAI2        2.1060    4.8360    4.1210 hc        1 3LP      0.080500
     52 HAF1        4.0580    4.5370    5.3230 hc        1 3LP      0.080500
     53 HAF2        4.7940    3.9290    4.0370 hc        1 3LP      0.080500
     54 HAJ1        4.2770    2.1590    5.4130 hc        1 3LP      0.080500
     55 HAJ2        2.7710    2.6440    5.5330 hc        1 3LP      0.080500
     56 HAN1        3.9420    1.5110    3.2230 hc        1 3LP      0.083250
     57 HAN2        2.7730    0.8450    4.0820 hc        1 3LP      0.083250
@<TRIPOS>BOND
     1    1    2 1   
     2    1   43 1   
     3    2    3 1   
     4    2   11 1   
     5    2   42 1   
     6    3    4 1   
     7    3   44 1   
     8    3   45 1   
     9    4    5 1   
    10    4   46 1   
    11    5    6 1   
    12    5   10 1   
    13    5   47 1   
    14    6    7 1   
    15    6   56 1   
    16    6   57 1   
    17    7    8 1   
    18    7   54 1   
    19    7   55 1   
    20    8    9 1   
    21    8   52 1   
    22    8   53 1   
    23    9   10 1   
    24    9   50 1   
    25    9   51 1   
    26   10   48 1   
    27   10   49 1   
    28   11   12 1   
    29   11   40 1   
    30   11   41 1   
    31   12   13 1   
    32   12   21 1   
    33   13   14 1   
    34   13   19 1   
    35   14   15 1   
    36   14   30 1   
    37   15   29 1   
    38   16   17 1   
    39   16   18 1   
    40   17   26 1   
    41   17   27 1   
    42   17   28 1   
    43   18   31 1   
    44   19   20 1   
    45   20   21 1   
    46   20   22 1   
    47   21   25 1   
    48   22   23 1   
    49   22   32 1   
    50   22   33 1   
    51   23   24 1   
    52   23   34 1   
    53   23   35 1   
    54   24   25 1   
    55   24   36 1   
    56   24   37 1   
    57   25   38 1   
    58   25   39 1   
@<TRIPOS>SUBSTRUCTURE
     1 3LP         1 TEMP              0 ****  ****    0 ROOT
