@<TRIPOS>MOLECULE
3LP
   58    61     1     0     0
SMALL
bcc


@<TRIPOS>ATOM
      1 OAB         0.1120    0.2030   -0.0110 oh        1 3LP     -0.626800
      2 CAW         1.5180    0.0120   -0.0320 c3        1 3LP      0.086100
      3 CAO         1.9480   -0.0890    1.4410 c3        1 3LP      0.097800
      4 NAQ         1.5350    1.1070    2.2260 n4        1 3LP     -0.759000
      5 CAX         1.8730    0.9890    3.6930 c3        1 3LP      0.122500
      6 CAN         2.0010    2.3790    4.3310 c3        1 3LP     -0.098900
      7 CAJ         2.4070    2.2310    5.7850 c3        1 3LP     -0.078400
      8 CAF         1.4200    1.3790    6.5530 c3        1 3LP     -0.090400
      9 CAI         1.2380    0.0260    5.8990 c3        1 3LP     -0.078400
     10 CAM         0.8260    0.1610    4.4460 c3        1 3LP     -0.098900
     11 CAP         1.8960   -1.2890   -0.7850 c3        1 3LP      0.022300
     12 NAY         3.2900   -1.5200   -0.9400 na        1 3LP     -0.081400
     13 CAV         4.1310   -2.0540    0.0610 ca        1 3LP     -0.072200
     14 CAD         3.8290   -2.8050    1.2050 ca        1 3LP     -0.168000
     15 CAC         4.8850   -3.2670    1.9780 ca        1 3LP     -0.110000
     16 CAR         6.2280   -3.0030    1.6420 ca        1 3LP     -0.088300
     17 CAA         7.3080   -3.5470    2.4980 c3        1 3LP     -0.057800
     18 CAE         6.5370   -2.2610    0.5020 ca        1 3LP     -0.078000
     19 CAU         5.5030   -1.7770   -0.2960 ca        1 3LP     -0.072800
     20 CAS         5.4600   -1.0090   -1.5240 cc        1 3LP     -0.098400
     21 CAT         4.1200   -0.8430   -1.8700 cd        1 3LP     -0.078300
     22 CAK         6.5720   -0.4790   -2.3260 c3        1 3LP     -0.015200
     23 CAG         6.0990   -0.0910   -3.7180 c3        1 3LP     -0.080400
     24 CAH         4.7900    0.6730   -3.6860 c3        1 3LP     -0.072400
     25 CAL         3.6550   -0.1470   -3.0910 c3        1 3LP     -0.019200
     26 HAA1        7.0570   -3.4260    3.5800 hc        1 3LP      0.051700
     27 HAA2        8.2800   -3.0320    2.3000 hc        1 3LP      0.051700
     28 HAA3        7.4440   -4.6390    2.2920 hc        1 3LP      0.051700
     29 HAC         4.6730   -3.8700    2.8750 ha        1 3LP      0.139000
     30 HAD         2.7920   -3.0540    1.4650 ha        1 3LP      0.123000
     31 HAE         7.5840   -2.0680    0.2230 ha        1 3LP      0.150000
     32 HAK1        7.3900   -1.2460   -2.4050 hc        1 3LP      0.058200
     33 HAK2        7.0080    0.4190   -1.8080 hc        1 3LP      0.058200
     34 HAG1        5.9720   -1.0170   -4.3380 hc        1 3LP      0.055700
     35 HAG2        6.8840    0.5400   -4.2100 hc        1 3LP      0.055700
     36 HAH1        4.9230    1.6110   -3.0870 hc        1 3LP      0.049200
     37 HAH2        4.5080    0.9750   -4.7290 hc        1 3LP      0.049200
     38 HAL1        2.7840    0.5240   -2.8650 hc        1 3LP      0.050700
     39 HAL2        3.3050   -0.9120   -3.8390 hc        1 3LP      0.050700
     40 HAP1        1.4360   -2.1630   -0.2410 h1        1 3LP      0.083700
     41 HAP2        1.4310   -1.2240   -1.8140 h1        1 3LP      0.083700
     42 HAW         2.0020    0.9010   -0.5290 h1        1 3LP      0.068700
     43 HAB        -0.2350    0.0090   -0.8920 ho        1 3LP      0.447000
     44 HAO1        1.4650   -0.9950    1.9100 hx        1 3LP      0.120700
     45 HAO2        3.0700   -0.2030    1.4990 hx        1 3LP      0.120700
     46 HAQ         0.5180    1.2310    2.1170 hn        1 3LP      0.453800
     47 HAX         2.8740    0.4650    3.7530 hx        1 3LP      0.108700
     48 HAM1       -0.1770    0.6620    4.3870 hc        1 3LP      0.063700
     49 HAM2        0.7320   -0.8600    3.9910 hc        1 3LP      0.063700
     50 HAI1        0.4460   -0.5530    6.4450 hc        1 3LP      0.067450
     51 HAI2        2.1910   -0.5620    5.9680 hc        1 3LP      0.067450
     52 HAF1        0.4320    1.9060    6.6130 hc        1 3LP      0.066700
     53 HAF2        1.7890    1.2380    7.6030 hc        1 3LP      0.066700
     54 HAJ1        2.4650    3.2530    6.2470 hc        1 3LP      0.067450
     55 HAJ2        3.4310    1.7760    5.8460 hc        1 3LP      0.067450
     56 HAN1        1.0220    2.9230    4.2700 hc        1 3LP      0.063700
     57 HAN2        2.7750    2.9880    3.7920 hc        1 3LP      0.063700
     58 HAQ2        1.9980    1.9380    1.8420 hn        1 3LP      0.453800
@<TRIPOS>BOND
     1    1    2 1   
     2    1   43 1   
     3    2    3 1   
     4    2   11 1   
     5    2   42 1   
     6    3    4 1   
     7    3   44 1   
     8    3   45 1   
     9    4    5 1   
    10    4   46 1   
    11    4   58 1   
    12    5    6 1   
    13    5   10 1   
    14    5   47 1   
    15    6    7 1   
    16    6   56 1   
    17    6   57 1   
    18    7    8 1   
    19    7   54 1   
    20    7   55 1   
    21    8    9 1   
    22    8   52 1   
    23    8   53 1   
    24    9   10 1   
    25    9   50 1   
    26    9   51 1   
    27   10   48 1   
    28   10   49 1   
    29   11   12 1   
    30   11   40 1   
    31   11   41 1   
    32   12   13 1   
    33   12   21 1   
    34   13   14 ar  
    35   13   19 ar  
    36   14   15 ar  
    37   14   30 1   
    38   15   16 ar  
    39   15   29 1   
    40   16   17 1   
    41   16   18 ar  
    42   17   26 1   
    43   17   27 1   
    44   17   28 1   
    45   18   19 ar  
    46   18   31 1   
    47   19   20 1   
    48   20   21 2   
    49   20   22 1   
    50   21   25 1   
    51   22   23 1   
    52   22   32 1   
    53   22   33 1   
    54   23   24 1   
    55   23   34 1   
    56   23   35 1   
    57   24   25 1   
    58   24   36 1   
    59   24   37 1   
    60   25   38 1   
    61   25   39 1   
@<TRIPOS>SUBSTRUCTURE
     1 3LP         1 TEMP              0 ****  ****    0 ROOT
