@<TRIPOS>MOLECULE
3LP
   58    61     1     0     0
SMALL
bcc


@<TRIPOS>ATOM
      1 OAB         0.1090    0.1950   -0.0120 oh        1 3LP     -0.626800
      2 CAW         1.5160    0.0070   -0.0340 c3        1 3LP      0.086100
      3 CAO         1.9470   -0.0940    1.4390 c3        1 3LP      0.097800
      4 NAQ         1.5310    1.1020    2.2250 n4        1 3LP     -0.759000
      5 CAX         1.8720    0.9850    3.6910 c3        1 3LP      0.122500
      6 CAN         1.9960    2.3760    4.3280 c3        1 3LP     -0.098900
      7 CAJ         2.4050    2.2300    5.7810 c3        1 3LP     -0.078400
      8 CAF         1.4230    1.3730    6.5510 c3        1 3LP     -0.090400
      9 CAI         1.2440    0.0190    5.8990 c3        1 3LP     -0.078400
     10 CAM         0.8290    0.1530    4.4460 c3        1 3LP     -0.098900
     11 CAP         1.8950   -1.2940   -0.7870 c3        1 3LP      0.022300
     12 NAY         3.2900   -1.5230   -0.9420 na        1 3LP     -0.081400
     13 CAV         4.1320   -2.0550    0.0600 ca        1 3LP     -0.073200
     14 CAD         3.8310   -2.8080    1.2030 ca        1 3LP     -0.168000
     15 CAC         4.8870   -3.2670    1.9770 ca        1 3LP     -0.110000
     16 CAR         6.2290   -3.0010    1.6410 ca        1 3LP     -0.088300
     17 CAA         7.3110   -3.5420    2.4980 c3        1 3LP     -0.057800
     18 CAE         6.5370   -2.2580    0.5020 ca        1 3LP     -0.078000
     19 CAU         5.5040   -1.7750   -0.2960 ca        1 3LP     -0.072800
     20 CAS         5.4590   -1.0070   -1.5240 cc        1 3LP     -0.098400
     21 CAT         4.1190   -0.8440   -1.8700 cd        1 3LP     -0.078300
     22 CAK         6.5710   -0.4740   -2.3240 c3        1 3LP     -0.015200
     23 CAG         6.0980   -0.0860   -3.7170 c3        1 3LP     -0.080400
     24 CAH         4.7870    0.6740   -3.6860 c3        1 3LP     -0.072400
     25 CAL         3.6530   -0.1490   -3.0920 c3        1 3LP     -0.019200
     26 HAA1        8.2820   -3.0270    2.3000 hc        1 3LP      0.051700
     27 HAA2        7.0590   -3.4190    3.5800 hc        1 3LP      0.051700
     28 HAA3        7.4460   -4.6350    2.2940 hc        1 3LP      0.051700
     29 HAC         4.6750   -3.8720    2.8730 ha        1 3LP      0.139000
     30 HAD         2.7940   -3.0600    1.4620 ha        1 3LP      0.123000
     31 HAE         7.5850   -2.0620    0.2240 ha        1 3LP      0.150000
     32 HAK1        7.0050    0.4250   -1.8060 hc        1 3LP      0.058200
     33 HAK2        7.3910   -1.2380   -2.4040 hc        1 3LP      0.058200
     34 HAG1        6.8820    0.5460   -4.2080 hc        1 3LP      0.055700
     35 HAG2        5.9740   -1.0120   -4.3380 hc        1 3LP      0.055700
     36 HAH1        4.9180    1.6130   -3.0860 hc        1 3LP      0.049200
     37 HAH2        4.5050    0.9760   -4.7290 hc        1 3LP      0.049200
     38 HAL1        3.3070   -0.9140   -3.8400 hc        1 3LP      0.050700
     39 HAL2        2.7810    0.5210   -2.8660 hc        1 3LP      0.050700
     40 HAP1        1.4370   -2.1690   -0.2420 h1        1 3LP      0.083700
     41 HAP2        1.4310   -1.2300   -1.8150 h1        1 3LP      0.083700
     42 HAW         1.9980    0.8960   -0.5310 h1        1 3LP      0.068700
     43 HAB        -0.2370    0.0000   -0.8930 ho        1 3LP      0.447000
     44 HAO1        3.0690   -0.2050    1.4960 hx        1 3LP      0.120700
     45 HAO2        1.4670   -1.0010    1.9080 hx        1 3LP      0.120700
     46 HAQ         0.5150    1.2220    2.1170 hn        1 3LP      0.453800
     47 HAX         2.8760    0.4650    3.7490 hx        1 3LP      0.108700
     48 HAM1       -0.1750    0.6510    4.3880 hc        1 3LP      0.063700
     49 HAM2        0.7390   -0.8680    3.9910 hc        1 3LP      0.063700
     50 HAI1        0.4560   -0.5630    6.4450 hc        1 3LP      0.067450
     51 HAI2        2.2000   -0.5640    5.9660 hc        1 3LP      0.067450
     52 HAF1        1.7940    1.2340    7.6010 hc        1 3LP      0.066700
     53 HAF2        0.4320    1.8970    6.6130 hc        1 3LP      0.066700
     54 HAJ1        2.4600    3.2510    6.2430 hc        1 3LP      0.067450
     55 HAJ2        3.4310    1.7790    5.8410 hc        1 3LP      0.067450
     56 HAN1        1.0140    2.9150    4.2690 hc        1 3LP      0.063700
     57 HAN2        2.7670    2.9870    3.7880 hc        1 3LP      0.063700
     58 HAQ2        1.9910    1.9330    1.8390 hn        1 3LP      0.453800
@<TRIPOS>BOND
     1    1    2 1   
     2    1   43 1   
     3    2    3 1   
     4    2   11 1   
     5    2   42 1   
     6    3    4 1   
     7    3   44 1   
     8    3   45 1   
     9    4    5 1   
    10    4   46 1   
    11    4   58 1   
    12    5    6 1   
    13    5   10 1   
    14    5   47 1   
    15    6    7 1   
    16    6   56 1   
    17    6   57 1   
    18    7    8 1   
    19    7   54 1   
    20    7   55 1   
    21    8    9 1   
    22    8   52 1   
    23    8   53 1   
    24    9   10 1   
    25    9   50 1   
    26    9   51 1   
    27   10   48 1   
    28   10   49 1   
    29   11   12 1   
    30   11   40 1   
    31   11   41 1   
    32   12   13 1   
    33   12   21 1   
    34   13   14 ar  
    35   13   19 ar  
    36   14   15 ar  
    37   14   30 1   
    38   15   16 ar  
    39   15   29 1   
    40   16   17 1   
    41   16   18 ar  
    42   17   26 1   
    43   17   27 1   
    44   17   28 1   
    45   18   19 ar  
    46   18   31 1   
    47   19   20 1   
    48   20   21 2   
    49   20   22 1   
    50   21   25 1   
    51   22   23 1   
    52   22   32 1   
    53   22   33 1   
    54   23   24 1   
    55   23   34 1   
    56   23   35 1   
    57   24   25 1   
    58   24   36 1   
    59   24   37 1   
    60   25   38 1   
    61   25   39 1   
@<TRIPOS>SUBSTRUCTURE
     1 3LP         1 TEMP              0 ****  ****    0 ROOT
