@<TRIPOS>MOLECULE
3LP
   58    61     1     0     0
SMALL
bcc


@<TRIPOS>ATOM
      1 OAB         0.1080    0.1930   -0.0090 oh        1 3LP     -0.626800
      2 CAW         1.5150    0.0060   -0.0320 c3        1 3LP      0.086100
      3 CAO         1.9470   -0.0930    1.4410 c3        1 3LP      0.097800
      4 NAQ         1.5310    1.1030    2.2260 ny        1 3LP     -0.759000
      5 CAX         1.8710    0.9880    3.6930 c3        1 3LP      0.122500
      6 CAN         1.9950    2.3780    4.3290 c3        1 3LP     -0.098900
      7 CAJ         2.4040    2.2330    5.7820 c3        1 3LP     -0.078400
      8 CAF         1.4210    1.3770    6.5520 c3        1 3LP     -0.090400
      9 CAI         1.2430    0.0230    5.9000 c3        1 3LP     -0.078400
     10 CAM         0.8290    0.1550    4.4470 c3        1 3LP     -0.098900
     11 CAP         1.8960   -1.2940   -0.7840 c3        1 3LP      0.022300
     12 NAY         3.2910   -1.5220   -0.9400 na        1 3LP     -0.081400
     13 CAV         4.1330   -2.0530    0.0620 ca        1 3LP     -0.072200
     14 CAD         3.8330   -2.8050    1.2060 ca        1 3LP     -0.168000
     15 CAC         4.8900   -3.2640    1.9790 ca        1 3LP     -0.110000
     16 CAR         6.2330   -2.9970    1.6430 ca        1 3LP     -0.088300
     17 CAA         7.3150   -3.5380    2.4980 c3        1 3LP     -0.057800
     18 CAE         6.5400   -2.2550    0.5020 ca        1 3LP     -0.078000
     19 CAU         5.5050   -1.7730   -0.2950 ca        1 3LP     -0.072800
     20 CAS         5.4590   -1.0060   -1.5230 cc        1 3LP     -0.098400
     21 CAT         4.1190   -0.8430   -1.8690 cd        1 3LP     -0.078300
     22 CAK         6.5700   -0.4730   -2.3250 c3        1 3LP     -0.015200
     23 CAG         6.0960   -0.0860   -3.7180 c3        1 3LP     -0.080400
     24 CAH         4.7850    0.6740   -3.6860 c3        1 3LP     -0.072400
     25 CAL         3.6520   -0.1490   -3.0910 c3        1 3LP     -0.019200
     26 HAA1        7.0620   -3.4190    3.5810 hc        1 3LP      0.051700
     27 HAA2        8.2850   -3.0190    2.3020 hc        1 3LP      0.051700
     28 HAA3        7.4540   -4.6300    2.2910 hc        1 3LP      0.051700
     29 HAC         4.6800   -3.8680    2.8760 ha        1 3LP      0.139000
     30 HAD         2.7970   -3.0570    1.4660 ha        1 3LP      0.123000
     31 HAE         7.5860   -2.0590    0.2240 ha        1 3LP      0.150000
     32 HAK1        7.3900   -1.2370   -2.4050 hc        1 3LP      0.058200
     33 HAK2        7.0040    0.4260   -1.8080 hc        1 3LP      0.058200
     34 HAG1        5.9710   -1.0130   -4.3380 hc        1 3LP      0.055700
     35 HAG2        6.8790    0.5470   -4.2100 hc        1 3LP      0.055700
     36 HAH1        4.5020    0.9750   -4.7290 hc        1 3LP      0.049200
     37 HAH2        4.9160    1.6130   -3.0870 hc        1 3LP      0.049200
     38 HAL1        2.7790    0.5200   -2.8650 hc        1 3LP      0.050700
     39 HAL2        3.3040   -0.9150   -3.8380 hc        1 3LP      0.050700
     40 HAP1        1.4390   -2.1690   -0.2390 h1        1 3LP      0.083700
     41 HAP2        1.4310   -1.2310   -1.8120 h1        1 3LP      0.083700
     42 HAW         1.9960    0.8960   -0.5300 h1        1 3LP      0.068700
     43 HAB        -0.2380   -0.0020   -0.8900 ho        1 3LP      0.447000
     44 HAO1        1.4680   -1.0000    1.9110 hx        1 3LP      0.120700
     45 HAO2        3.0690   -0.2030    1.4980 hx        1 3LP      0.120700
     46 HAQ         1.9900    1.9350    1.8400 hn        1 3LP      0.453800
     47 HAX         2.8750    0.4670    3.7510 hx        1 3LP      0.108700
     48 HAM1        0.7380   -0.8660    3.9930 hc        1 3LP      0.063700
     49 HAM2       -0.1760    0.6530    4.3890 hc        1 3LP      0.063700
     50 HAI1        2.1990   -0.5610    5.9680 hc        1 3LP      0.067450
     51 HAI2        0.4550   -0.5590    6.4470 hc        1 3LP      0.067450
     52 HAF1        0.4310    1.9010    6.6140 hc        1 3LP      0.066700
     53 HAF2        1.7920    1.2390    7.6030 hc        1 3LP      0.066700
     54 HAJ1        2.4580    3.2550    6.2440 hc        1 3LP      0.067450
     55 HAJ2        3.4300    1.7820    5.8420 hc        1 3LP      0.067450
     56 HAN1        1.0130    2.9180    4.2690 hc        1 3LP      0.063700
     57 HAN2        2.7650    2.9890    3.7880 hc        1 3LP      0.063700
     58 HAQ2        0.5140    1.2230    2.1180 hn        1 3LP      0.453800
@<TRIPOS>BOND
     1    1    2 1   
     2    1   43 1   
     3    2    3 1   
     4    2   11 1   
     5    2   42 1   
     6    3    4 1   
     7    3   44 1   
     8    3   45 1   
     9    4    5 1   
    10    4   46 1   
    11    4   58 1   
    12    5    6 1   
    13    5   10 1   
    14    5   47 1   
    15    6    7 1   
    16    6   56 1   
    17    6   57 1   
    18    7    8 1   
    19    7   54 1   
    20    7   55 1   
    21    8    9 1   
    22    8   52 1   
    23    8   53 1   
    24    9   10 1   
    25    9   50 1   
    26    9   51 1   
    27   10   48 1   
    28   10   49 1   
    29   11   12 1   
    30   11   40 1   
    31   11   41 1   
    32   12   13 1   
    33   12   21 1   
    34   13   14 ar  
    35   13   19 ar  
    36   14   15 ar  
    37   14   30 1   
    38   15   16 ar  
    39   15   29 1   
    40   16   17 1   
    41   16   18 ar  
    42   17   26 1   
    43   17   27 1   
    44   17   28 1   
    45   18   19 ar  
    46   18   31 1   
    47   19   20 1   
    48   20   21 2   
    49   20   22 1   
    50   21   25 1   
    51   22   23 1   
    52   22   32 1   
    53   22   33 1   
    54   23   24 1   
    55   23   34 1   
    56   23   35 1   
    57   24   25 1   
    58   24   36 1   
    59   24   37 1   
    60   25   38 1   
    61   25   39 1   
@<TRIPOS>SUBSTRUCTURE
     1 3LP         1 TEMP              0 ****  ****    0 ROOT
