@<TRIPOS>MOLECULE
3LP
   57    60     1     0     0
SMALL
bcc


@<TRIPOS>ATOM
      1 OAB         3.4400    0.2890   -3.2880 oh        1 3LP     -0.602800
      2 CAW         2.0380    0.4180   -3.4610 c3        1 3LP      0.070100
      3 CAO         1.7160    1.9280   -3.4200 c3        1 3LP      0.177800
      4 NAQ         2.1510    2.6700   -2.2670 n3        1 3LP     -0.814200
      5 CAX         1.5240    2.3130   -0.9990 c3        1 3LP      0.174500
      6 CAN         2.3230    1.3010   -0.1580 c3        1 3LP     -0.088400
      7 CAJ         1.5670    0.9360    1.1010 c3        1 3LP     -0.075900
      8 CAF         1.2620    2.1650    1.9340 c3        1 3LP     -0.078400
      9 CAI         0.5250    3.2080    1.1200 c3        1 3LP     -0.075900
     10 CAM         1.2810    3.5690   -0.1420 c3        1 3LP     -0.088400
     11 CAP         1.5980   -0.1440   -4.8310 c3        1 3LP      0.011300
     12 NAY         1.6880   -1.5650   -4.9620 na        1 3LP     -0.075400
     13 CAV         0.7520   -2.4950   -4.4810 ca        1 3LP     -0.047200
     14 CAD        -0.5280   -2.3130   -3.9370 ca        1 3LP     -0.142000
     15 CAC        -1.2490   -3.4390   -3.5770 ca        1 3LP     -0.115000
     16 CAR        -0.7330   -4.7430   -3.7460 ca        1 3LP     -0.104300
     17 CAA        -1.5650   -5.9000   -3.3400 c3        1 3LP     -0.047800
     18 CAE         0.5350   -4.9350   -4.2850 ca        1 3LP     -0.084000
     19 CAU         1.2950   -3.8260   -4.6560 ca        1 3LP     -0.077800
     20 CAS         2.6080   -3.6550   -5.2320 cc        1 3LP     -0.132400
     21 CAT         2.8240   -2.2820   -5.3860 cd        1 3LP     -0.063300
     22 CAK         3.6000   -4.6730   -5.6080 c3        1 3LP     -0.004200
     23 CAG         4.6690   -4.0780   -6.5120 c3        1 3LP     -0.077400
     24 CAH         5.1590   -2.7340   -6.0100 c3        1 3LP     -0.071400
     25 CAL         4.0510   -1.6920   -5.9680 c3        1 3LP     -0.026200
     26 HAA1       -1.0310   -6.8660   -3.5160 hc        1 3LP      0.040367
     27 HAA2       -1.8220   -5.8320   -2.2540 hc        1 3LP      0.040367
     28 HAA3       -2.5190   -5.9140   -3.9230 hc        1 3LP      0.040367
     29 HAC        -2.2550   -3.3230   -3.1470 ha        1 3LP      0.129000
     30 HAD        -0.9470   -1.3060   -3.8020 ha        1 3LP      0.130000
     31 HAE         0.9420   -5.9470   -4.4240 ha        1 3LP      0.134000
     32 HAK1        4.0790   -5.0870   -4.6790 hc        1 3LP      0.047700
     33 HAK2        3.0970   -5.5290   -6.1320 hc        1 3LP      0.047700
     34 HAG1        5.5350   -4.7880   -6.5750 hc        1 3LP      0.043200
     35 HAG2        4.2540   -3.9570   -7.5470 hc        1 3LP      0.043200
     36 HAH1        5.9800   -2.3610   -6.6770 hc        1 3LP      0.044200
     37 HAH2        5.5880   -2.8580   -4.9810 hc        1 3LP      0.044200
     38 HAL1        3.8270   -1.3320   -7.0100 hc        1 3LP      0.058200
     39 HAL2        4.3900   -0.8020   -5.3710 hc        1 3LP      0.058200
     40 HAP1        2.2460    0.3220   -5.6280 h1        1 3LP      0.069700
     41 HAP2        0.5270    0.1580   -5.0060 h1        1 3LP      0.069700
     42 HAW         1.4980   -0.1170   -2.6310 h1        1 3LP      0.050700
     43 HAB         3.6280   -0.6540   -3.2030 ho        1 3LP      0.412000
     44 HAO1        2.2000    2.4100   -4.3170 h1        1 3LP      0.056700
     45 HAO2        0.5990    2.0320   -3.5180 h1        1 3LP      0.056700
     46 HAQ         3.1510    2.6320   -2.1840 hn        1 3LP      0.375800
     47 HAX         0.5120    1.8550   -1.2160 h1        1 3LP      0.046700
     48 HAM1        0.6920    4.3210   -0.7290 hc        1 3LP      0.045450
     49 HAM2        2.2620    4.0400    0.1250 hc        1 3LP      0.045450
     50 HAI1       -0.4920    2.8200    0.8500 hc        1 3LP      0.039450
     51 HAI2        0.3790    4.1310    1.7400 hc        1 3LP      0.039450
     52 HAF1        2.2210    2.6010    2.3200 hc        1 3LP      0.039700
     53 HAF2        0.6430    1.8730    2.8220 hc        1 3LP      0.039700
     54 HAJ1        2.1760    0.2140    1.7060 hc        1 3LP      0.039450
     55 HAJ2        0.6090    0.4210    0.8290 hc        1 3LP      0.039450
     56 HAN1        3.3160    1.7450    0.1160 hc        1 3LP      0.045450
     57 HAN2        2.5240    0.3780   -0.7630 hc        1 3LP      0.045450
@<TRIPOS>BOND
     1    1    2 1   
     2    1   43 1   
     3    2    3 1   
     4    2   11 1   
     5    2   42 1   
     6    3    4 1   
     7    3   44 1   
     8    3   45 1   
     9    4    5 1   
    10    4   46 1   
    11    5    6 1   
    12    5   10 1   
    13    5   47 1   
    14    6    7 1   
    15    6   56 1   
    16    6   57 1   
    17    7    8 1   
    18    7   54 1   
    19    7   55 1   
    20    8    9 1   
    21    8   52 1   
    22    8   53 1   
    23    9   10 1   
    24    9   50 1   
    25    9   51 1   
    26   10   48 1   
    27   10   49 1   
    28   11   12 1   
    29   11   40 1   
    30   11   41 1   
    31   12   13 1   
    32   12   21 1   
    33   13   14 ar  
    34   13   19 ar  
    35   14   15 ar  
    36   14   30 1   
    37   15   16 ar  
    38   15   29 1   
    39   16   17 1   
    40   16   18 ar  
    41   17   26 1   
    42   17   27 1   
    43   17   28 1   
    44   18   19 ar  
    45   18   31 1   
    46   19   20 1   
    47   20   21 2   
    48   20   22 1   
    49   21   25 1   
    50   22   23 1   
    51   22   32 1   
    52   22   33 1   
    53   23   24 1   
    54   23   34 1   
    55   23   35 1   
    56   24   25 1   
    57   24   36 1   
    58   24   37 1   
    59   25   38 1   
    60   25   39 1   
@<TRIPOS>SUBSTRUCTURE
     1 3LP         1 TEMP              0 ****  ****    0 ROOT
