@<TRIPOS>MOLECULE
3LQ
   47    50     1     0     0
SMALL
bcc


@<TRIPOS>ATOM
      1 C00         0.1120    0.0060   -0.2520 ca        1 3LQ     -0.196000
      2 C01         1.4900    0.0160   -0.0360 ca        1 3LQ     -0.095000
      3 C02         2.0090   -0.0870    1.2530 ca        1 3LQ     -0.150000
      4 C03         1.1520   -0.1960    2.3470 ca        1 3LQ     -0.106000
      5 C04        -0.2310   -0.1980    2.1460 ca        1 3LQ      0.060100
      6 C05        -0.7600   -0.1090    0.8380 ca        1 3LQ      0.121100
      7 O0A        -1.1000   -0.1430    3.2320 os        1 3LQ     -0.236200
      8 O0B        -2.1340   -0.1760    0.7350 os        1 3LQ     -0.303900
      9 C0D        -2.6800    0.2730   -0.5080 c3        1 3LQ      0.102400
     10 C0E        -4.2060    0.2810   -0.3410 c3        1 3LQ      0.090000
     11 N0H        -4.7290    1.2710    0.5700 n         1 3LQ     -0.371000
     12 C0K        -5.3990    0.8430    1.7530 c         1 3LQ      0.813500
     13 N0M        -5.7590    1.8120    2.7020 ns        1 3LQ     -0.583500
     14 C0N        -5.4760    3.1800    2.5470 c         1 3LQ      0.715700
     15 C0O        -4.7990    3.5620    1.3020 cc        1 3LQ     -0.314200
     16 C0P        -4.4440    2.6170    0.3940 cd        1 3LQ      0.046600
     17 O0Q        -5.6960   -0.3570    1.9270 o         1 3LQ     -0.629500
     18 O0S        -5.8080    3.9700    3.4470 o         1 3LQ     -0.608500
     19 CAH        -1.3000   -1.3360    3.9210 ca        1 3LQ      0.135100
     20 CAI        -1.9980   -1.1870    5.1640 ca        1 3LQ     -0.033000
     21 CAY        -2.4220    0.0760    5.6540 ca        1 3LQ     -0.095000
     22 CAZ        -3.0880    0.1740    6.8500 ca        1 3LQ     -0.113000
     23 CBA        -3.3600   -0.9970    7.6100 ca        1 3LQ     -0.007000
     24 CBC        -4.0500   -0.8740    8.8470 cg        1 3LQ      0.233800
     25 NBD        -4.6140   -0.7700    9.8600 n1        1 3LQ     -0.363800
     26 CBB        -2.9580   -2.2370    7.1520 ca        1 3LQ     -0.080000
     27 CAJ        -2.2670   -2.3570    5.9170 ca        1 3LQ     -0.023000
     28 CAK        -1.8450   -3.6250    5.4300 ca        1 3LQ     -0.142000
     29 CAL        -1.1790   -3.7250    4.2340 ca        1 3LQ     -0.093000
     30 CAM        -0.8990   -2.5730    3.4630 ca        1 3LQ     -0.188000
     31 H1         -0.2790    0.0840   -1.2760 ha        1 3LQ      0.139000
     32 H2          2.1710    0.1040   -0.8960 ha        1 3LQ      0.139000
     33 H3          3.0980   -0.0790    1.4120 ha        1 3LQ      0.142000
     34 H4          1.5480   -0.2710    3.3710 ha        1 3LQ      0.154000
     35 H5         -2.2750    1.2860   -0.7640 h1        1 3LQ      0.048700
     36 H6         -2.4160   -0.4590   -1.3180 h1        1 3LQ      0.048700
     37 H7         -4.6490    0.4710   -1.3610 h1        1 3LQ      0.089700
     38 H8         -4.5330   -0.7400    0.0190 h1        1 3LQ      0.089700
     39 H9         -6.2150    1.4870    3.5280 hn        1 3LQ      0.354500
     40 H10        -4.6010    4.6300    1.1550 ha        1 3LQ      0.179000
     41 H11        -3.9230    2.8740   -0.5470 h4        1 3LQ      0.157000
     42 H12        -2.2070    0.9730    5.0520 ha        1 3LQ      0.156000
     43 H13        -3.4200    1.1510    7.2340 ha        1 3LQ      0.148000
     44 H14        -3.1660   -3.1490    7.7340 ha        1 3LQ      0.146000
     45 H15        -2.0650   -4.5200    6.0300 ha        1 3LQ      0.138000
     46 H16        -0.8550   -4.7050    3.8520 ha        1 3LQ      0.137000
     47 H17        -0.3700   -2.6750    2.5050 ha        1 3LQ      0.148000
@<TRIPOS>BOND
     1    1    2 ar  
     2    1    6 ar  
     3    1   31 1   
     4    2    3 ar  
     5    2   32 1   
     6    3    4 ar  
     7    3   33 1   
     8    4    5 ar  
     9    4   34 1   
    10    5    6 ar  
    11    5    7 1   
    12    6    8 1   
    13    7   19 1   
    14    8    9 1   
    15    9   10 1   
    16    9   35 1   
    17    9   36 1   
    18   10   11 1   
    19   10   37 1   
    20   10   38 1   
    21   11   12 1   
    22   11   16 1   
    23   12   13 1   
    24   12   17 2   
    25   13   14 1   
    26   13   39 1   
    27   14   15 1   
    28   14   18 2   
    29   15   16 2   
    30   15   40 1   
    31   16   41 1   
    32   19   20 ar  
    33   19   30 ar  
    34   20   21 ar  
    35   20   27 ar  
    36   21   22 ar  
    37   21   42 1   
    38   22   23 ar  
    39   22   43 1   
    40   23   24 1   
    41   23   26 ar  
    42   24   25 3   
    43   26   27 ar  
    44   26   44 1   
    45   27   28 ar  
    46   28   29 ar  
    47   28   45 1   
    48   29   30 ar  
    49   29   46 1   
    50   30   47 1   
@<TRIPOS>SUBSTRUCTURE
     1 3LQ         1 TEMP              0 ****  ****    0 ROOT
