@<TRIPOS>MOLECULE
3LQ
   47    50     1     0     0
SMALL
bcc


@<TRIPOS>ATOM
      1 C00        -0.0320    0.3250   -0.2000 ca        1 3LQ     -0.203000
      2 C01         1.3200    0.4050    0.1250 ca        1 3LQ     -0.093000
      3 C02         1.7460    0.2830    1.4470 ca        1 3LQ     -0.162000
      4 C03         0.8150    0.0890    2.4660 ca        1 3LQ     -0.105000
      5 C04        -0.5440    0.0140    2.1520 ca        1 3LQ     -0.010000
      6 C05        -0.9820    0.1140    0.8100 ca        1 3LQ      0.097000
      7 O0A        -1.5050   -0.0140    3.1640 os        1 3LQ     -0.158000
      8 O0B        -2.3240   -0.0320    0.5930 os        1 3LQ     -0.247000
      9 C0D        -2.8520    0.4960   -0.6580 c3        1 3LQ      0.080000
     10 C0E        -4.3030    0.3130   -0.6230 c2        1 3LQ     -0.629000
     11 N0H        -5.1300    0.9720    0.3180 n4        1 3LQ      0.167000
     12 C0K        -5.0620    0.3320    1.7270 c2        1 3LQ      0.259000
     13 N0M        -4.3630    0.9720    2.7470 n         1 3LQ     -0.339000
     14 C0N        -3.9540    2.3080    2.6540 c2        1 3LQ      0.347000
     15 C0O        -4.3460    3.0350    1.4220 c2        1 3LQ     -0.172000
     16 C0P        -4.8750    2.4090    0.3620 c2        1 3LQ     -0.076000
     17 O0Q        -5.6200   -0.7620    1.8830 o         1 3LQ     -0.284000
     18 O0S        -3.3280    2.8360    3.5830 o         1 3LQ     -0.298000
     19 CAH        -1.5960   -1.1960    3.8910 ca        1 3LQ      0.076000
     20 CAI        -2.2210   -1.0570    5.1720 ca        1 3LQ     -0.045000
     21 CAY        -2.6440    0.1990    5.6840 ca        1 3LQ     -0.118000
     22 CAZ        -3.2390    0.2850    6.9180 ca        1 3LQ     -0.108000
     23 CBA        -3.4420   -0.8900    7.6940 ca        1 3LQ     -0.007000
     24 CBC        -4.0670   -0.7770    8.9660 c1        1 3LQ     -0.095000
     25 NBD        -4.5780   -0.6810   10.0070 n1        1 3LQ     -0.039000
     26 CBB        -3.0370   -2.1210    7.2180 ca        1 3LQ     -0.077000
     27 CAJ        -2.4140   -2.2300    5.9460 ca        1 3LQ     -0.025000
     28 CAK        -1.9800   -3.4880    5.4440 ca        1 3LQ     -0.142000
     29 CAL        -1.3770   -3.5760    4.2130 ca        1 3LQ     -0.093000
     30 CAM        -1.1790   -2.4240    3.4200 ca        1 3LQ     -0.173000
     31 H1         -0.3520    0.4210   -1.2470 ha        1 3LQ      0.142000
     32 H2          2.0590    0.5650   -0.6750 ha        1 3LQ      0.134000
     33 H3          2.8160    0.3460    1.6900 ha        1 3LQ      0.137000
     34 H4          1.1350    0.0010    3.5150 ha        1 3LQ      0.148000
     35 H5         -2.4290   -0.0940   -1.5120 h1        1 3LQ      0.075000
     36 H6         -2.5300    1.5690   -0.7360 h1        1 3LQ      0.075000
     37 H7         -4.7160   -0.6370   -0.9800 hx        1 3LQ      0.154000
     38 H8         -6.1060    0.8220    0.0220 hn        1 3LQ      0.251000
     39 H9         -4.0030    0.4070    3.4960 hn        1 3LQ      0.280000
     40 H10        -4.1510    4.1200    1.4260 ha        1 3LQ      0.189000
     41 H11        -5.1160    2.9120   -0.5950 hx        1 3LQ      0.191000
     42 H12        -2.4720    1.1060    5.0760 ha        1 3LQ      0.171000
     43 H13        -3.5630    1.2570    7.3200 ha        1 3LQ      0.149000
     44 H14        -3.1890   -3.0350    7.8130 ha        1 3LQ      0.146000
     45 H15        -2.1390   -4.3850    6.0600 ha        1 3LQ      0.138000
     46 H16        -1.0420   -4.5490    3.8220 ha        1 3LQ      0.139000
     47 H17        -0.7010   -2.5110    2.4330 ha        1 3LQ      0.155000
@<TRIPOS>BOND
     1    1    2 1   
     2    1    6 1   
     3    1   31 1   
     4    2    3 1   
     5    2   32 1   
     6    3    4 1   
     7    3   33 1   
     8    4    5 1   
     9    4   34 1   
    10    5    6 1   
    11    5    7 1   
    12    6    8 1   
    13    7   19 1   
    14    8    9 1   
    15    9   10 1   
    16    9   35 1   
    17    9   36 1   
    18   10   11 1   
    19   10   37 1   
    20   11   12 1   
    21   11   16 1   
    22   11   38 1   
    23   12   13 1   
    24   12   17 1   
    25   13   14 1   
    26   13   39 1   
    27   14   15 1   
    28   14   18 1   
    29   15   16 1   
    30   15   40 1   
    31   16   41 1   
    32   19   20 1   
    33   19   30 1   
    34   20   21 1   
    35   20   27 1   
    36   21   22 1   
    37   21   42 1   
    38   22   23 1   
    39   22   43 1   
    40   23   24 1   
    41   23   26 1   
    42   24   25 1   
    43   26   27 1   
    44   26   44 1   
    45   27   28 1   
    46   28   29 1   
    47   28   45 1   
    48   29   30 1   
    49   29   46 1   
    50   30   47 1   
@<TRIPOS>SUBSTRUCTURE
     1 3LQ         1 TEMP              0 ****  ****    0 ROOT
