@<TRIPOS>MOLECULE
3LR
   22    21     1     0     0
SMALL
bcc


@<TRIPOS>ATOM
      1 O1A        -2.2950   -1.3300   -3.0700 o         1 3LR     -0.830800
      2 C1         -1.1130   -1.4890   -2.6680 c         1 3LR      0.894600
      3 O1B        -0.1900   -1.7030   -3.4970 o         1 3LR     -0.830800
      4 C2         -0.8020   -1.4240   -1.1900 c3        1 3LR      0.011100
      5 O2         -1.8930   -1.9290   -0.4580 oh        1 3LR     -0.645800
      6 C3         -0.5500    0.0130   -0.7910 c3        1 3LR     -0.123400
      7 C4          0.4820    0.0550    0.3130 c3        1 3LR      0.130100
      8 O4          1.7680   -0.1020   -0.2390 oh        1 3LR     -0.643800
      9 C5          0.4010    1.3850    1.0280 c3        1 3LR      0.136100
     10 C6          1.4500    1.4380    2.1150 c3        1 3LR     -0.081100
     11 O5         -0.8770    1.5310    1.6010 oh        1 3LR     -0.625800
     12 H2         -0.0060   -1.9590   -1.0010 h1        1 3LR      0.038700
     13 HO2        -1.6810   -2.7250   -0.1220 ho        1 3LR      0.427000
     14 H3         -0.2200    0.5130   -1.5650 hc        1 3LR      0.046700
     15 H3A        -1.3830    0.4140   -0.4740 hc        1 3LR      0.046700
     16 H4          0.3100   -0.6670    0.9480 h1        1 3LR      0.030700
     17 HO4         2.1240   -0.8630    0.0520 ho        1 3LR      0.467000
     18 H5          0.5560    2.1080    0.3890 h1        1 3LR      0.031700
     19 H6          1.3640    0.6500    2.6910 hc        1 3LR      0.039033
     20 H6A         2.3420    1.4490    1.7070 hc        1 3LR      0.039033
     21 H6B         1.3250    2.2490    2.6500 hc        1 3LR      0.039033
     22 HO5        -1.1130    2.3890    1.5840 ho        1 3LR      0.404000
@<TRIPOS>BOND
     1    1    2 1   
     2    2    3 1   
     3    2    4 1   
     4    4    5 1   
     5    4    6 1   
     6    4   12 1   
     7    5   13 1   
     8    6    7 1   
     9    6   14 1   
    10    6   15 1   
    11    7    8 1   
    12    7    9 1   
    13    7   16 1   
    14    8   17 1   
    15    9   10 1   
    16    9   11 1   
    17    9   18 1   
    18   10   19 1   
    19   10   20 1   
    20   10   21 1   
    21   11   22 1   
@<TRIPOS>SUBSTRUCTURE
     1 3LR         1 TEMP              0 ****  ****    0 ROOT
