@<TRIPOS>MOLECULE
3LR
   22    21     1     0     0
SMALL
bcc


@<TRIPOS>ATOM
      1 O1A        -1.7520   -1.8540   -0.4040 o         1 3LR     -0.831800
      2 C1         -2.1470   -0.7050   -0.0590 c         1 3LR      0.893600
      3 O1B        -3.3090   -0.2510   -0.2580 o         1 3LR     -0.831800
      4 C2         -1.1440    0.2260    0.6690 c3        1 3LR      0.010100
      5 O2         -1.7500    1.4440    1.0670 oh        1 3LR     -0.643800
      6 C3          0.0590    0.5410   -0.2170 c3        1 3LR     -0.120400
      7 C4          1.2810   -0.2830    0.1640 c3        1 3LR      0.135100
      8 O4          1.1760   -1.6460   -0.2050 oh        1 3LR     -0.647800
      9 C5          2.5500    0.2660   -0.5240 c3        1 3LR      0.125100
     10 C6          3.7670   -0.5530   -0.1350 c3        1 3LR     -0.115100
     11 O5          2.7610    1.6360   -0.2120 oh        1 3LR     -0.611800
     12 H2         -0.8090   -0.2770    1.6180 h1        1 3LR      0.036700
     13 HO2        -2.6230    1.4800    0.6420 ho        1 3LR      0.426000
     14 H3         -0.2010    0.3340   -1.2880 hc        1 3LR      0.055700
     15 H3A         0.3120    1.6290   -0.1260 hc        1 3LR      0.055700
     16 H4          1.4380   -0.2390    1.2820 h1        1 3LR      0.017700
     17 HO4         0.2270   -1.8640   -0.2830 ho        1 3LR      0.470000
     18 H5          2.4080    0.2520   -1.6400 h1        1 3LR      0.073700
     19 H6          3.5890   -1.6230   -0.3960 hc        1 3LR      0.035700
     20 H6A         4.6700   -0.1820   -0.6740 hc        1 3LR      0.035700
     21 H6B         3.9520   -0.4760    0.9630 hc        1 3LR      0.035700
     22 HO5         2.6250    1.7360    0.7380 ho        1 3LR      0.394000
@<TRIPOS>BOND
     1    1    2 1   
     2    2    3 1   
     3    2    4 1   
     4    4    5 1   
     5    4    6 1   
     6    4   12 1   
     7    5   13 1   
     8    6    7 1   
     9    6   14 1   
    10    6   15 1   
    11    7    8 1   
    12    7    9 1   
    13    7   16 1   
    14    8   17 1   
    15    9   10 1   
    16    9   11 1   
    17    9   18 1   
    18   10   19 1   
    19   10   20 1   
    20   10   21 1   
    21   11   22 1   
@<TRIPOS>SUBSTRUCTURE
     1 3LR         1 TEMP              0 ****  ****    0 ROOT
