@<TRIPOS>MOLECULE
3LT
   69    59     1     0     0
SMALL
bcc


@<TRIPOS>ATOM
      1 CAA      -130.4340   88.6630  -45.7420 c2        1 3LT      0.427000
      2 CAJ      -129.6880   87.9040  -46.6960 c2        1 3LT     -0.306000
      3 CAI      -128.7510   86.9710  -46.4120 c2        1 3LT      0.068000
      4 CAG      -128.3070   86.5250  -45.0530 c3        1 3LT      0.014000
      5 CAD      -129.2430   85.4570  -44.5090 c3        1 3LT     -0.250000
      6 CAE      -132.1210   91.0200  -41.5860 c1        1 3LT      0.302000
      7 CAN      -131.8840   90.4720  -51.2120 c2        1 3LT     -0.368000
      8 CAP        39.3330  -27.6120  152.0030 c2        1 3LT     -0.242000
      9 CAR        38.9150  -28.8050  151.5670 c1        1 3LT      0.270000
     10 CAQ        39.7350  -26.5200  151.0910 c3        1 3LT     -0.155000
     11 OAB      -131.2940   89.6370  -46.0100 oh        1 3LT     -0.209500
     12 OAO        39.2080  -27.3180  153.3520 oh        1 3LT     -0.296000
     13 OAH      -126.9630   86.0910  -45.1200 oh        1 3LT     -0.295000
     14 OAC      -130.3410   88.4750  -44.4360 oh        1 3LT     -0.209500
     15 OAF      -131.7000   90.3660  -42.4700 o         1 3LT     -0.295000
     16 OAM      -131.1710   89.5720  -48.9870 o         1 3LT     -0.297000
     17 OAS        38.7140  -29.9060  151.1830 o         1 3LT     -0.084000
     18 NAK        41.8860  -27.7470  153.9760 n+        1 3LT     -0.204000
     19 NAT        43.9060  -30.8720  154.7200 nz        1 3LT     -0.169000
     20 CAU        46.1390  -29.4020  156.7960 c1        1 3LT     -0.228000
     21 CAW        43.4650  -29.8390  153.6800 c1        1 3LT     -0.066000
     22 CAV        45.3200  -29.7420  157.6010 c1        1 3LT     -0.228000
     23 OAX        43.9160  -30.0260  152.5670 o         1 3LT     -0.258000
     24 C         127.9900  -83.3050 -135.1370 c2        1 3LT      0.340000
     25 N         130.1380  -82.1310 -135.5880 ny        1 3LT      0.015000
     26 CA        129.0930  -83.0080 -136.1350 c2        1 3LT     -0.186000
     27 CB        129.1080  -83.4210 -137.4100 c2        1 3LT     -0.090000
     28 CG        131.3130  -82.8870 -135.0930 c3        1 3LT     -0.188000
     29 OE2       130.1630  -79.3320 -135.3290 o         1 3LT     -0.226000
     30 OE1       129.8410  -77.0190 -134.8760 o         1 3LT     -0.226000
     31 H1       -129.9230   88.1480  -47.7550 ha        1 3LT      0.207000
     32 H2         41.0710  -27.8740  154.5700 hn        1 3LT      0.253250
     33 H3       -128.2170   86.4860  -47.2580 ha        1 3LT      0.181000
     34 H4       -128.2750   87.4110  -44.3470 h1        1 3LT      0.151000
     35 H5       -129.3320   84.6010  -45.2200 hc        1 3LT      0.107333
     36 H6       -130.2550   85.8910  -44.3260 hc        1 3LT      0.107333
     37 H7       -128.8340   85.0740  -43.5410 hc        1 3LT      0.107333
     38 H8       -131.3260   91.2720  -51.7190 ha        1 3LT      0.203000
     39 H9       -132.7700   90.0860  -51.7360 ha        1 3LT      0.203000
     40 H10        42.4070  -26.9380  154.2890 hn        1 3LT      0.253250
     41 H11        38.4220  -26.7550  153.4480 ho        1 3LT      0.229000
     42 H12        40.6940  -26.0670  151.4440 hc        1 3LT      0.095000
     43 H13        39.8790  -26.8960  150.0480 hc        1 3LT      0.095000
     44 H14        38.9540  -25.7180  151.0760 hc        1 3LT      0.095000
     45 H15      -131.3930   89.8190  -46.9740 ho        1 3LT      0.331000
     46 H16      -126.9520   85.1520  -45.3560 ho        1 3LT      0.221000
     47 H17      -130.9090   89.1040  -43.9210 ho        1 3LT      0.331000
     48 H18        41.5510  -27.5830  153.0260 hn        1 3LT      0.253250
     49 H19        43.0780  -31.3100  155.1180 hn        1 3LT      0.223000
     50 H20        44.4160  -30.3930  155.4680 hn        1 3LT      0.223000
     51 H22         2.3530   -0.7200    3.5980 ha        1 3LT      0.000000
     52 H23         2.3200   -0.2400    3.1220 ha        1 3LT      0.000000
     53 H24        44.6260  -30.0320  158.3520 ha        1 3LT      0.233500
     54 H26        46.8910  -29.0910  156.1100 ha        1 3LT      0.233500
     55 H28       126.4750  -84.5790 -134.6790 hn        1 3LT      0.256500
     56 H29       127.3530  -85.0300 -136.0740 hn        1 3LT      0.256500
     57 H30       129.7180  -81.5890 -134.8030 hn        1 3LT      0.278000
     58 H31       129.8990  -83.1590 -138.1320 ha        1 3LT      0.169000
     59 H32       128.3050  -84.0520 -137.8270 ha        1 3LT      0.169000
     60 H33       131.7640  -83.4790 -135.9330 hx        1 3LT      0.147333
     61 H34       132.0660  -82.1560 -134.6910 hx        1 3LT      0.147333
     62 CAL      -131.5160   90.0070  -50.0560 c1        1 3LT      0.270000
     63 NBH       127.2150  -84.4040 -135.3220 nt        1 3LT     -0.385000
     64 HAK2       42.5500  -28.6780  153.9850 hn        1 3LT      0.253250
     65 HAT2       44.5070  -31.6020  154.3310 hn        1 3LT      0.223000
     66 H21       130.4320  -81.4530 -136.3040 hn        1 3LT      0.278000
     67 HBH3      130.9900  -83.5840 -134.2720 hx        1 3LT      0.147333
     68 O         127.8370  -82.5270 -134.1700 o         1 3LT     -0.357000
     69 CD        130.0000  -78.1670 -135.1000 c1        1 3LT      0.455000
@<TRIPOS>BOND
     1    1    2 1   
     2    1   11 1   
     3    1   14 1   
     4    2    3 1   
     5    2   31 1   
     6    3    4 1   
     7    3   33 1   
     8    4    5 1   
     9    4   13 1   
    10    4   34 1   
    11    5   35 1   
    12    5   36 1   
    13    5   37 1   
    14    6   15 1   
    15    7   38 1   
    16    7   39 1   
    17    7   62 1   
    18    8    9 1   
    19    8   10 1   
    20    8   12 1   
    21    9   17 1   
    22   10   42 1   
    23   10   43 1   
    24   10   44 1   
    25   11   45 1   
    26   12   41 1   
    27   13   46 1   
    28   14   47 1   
    29   16   62 1   
    30   18   32 1   
    31   18   40 1   
    32   18   48 1   
    33   18   64 1   
    34   19   21 1   
    35   19   49 1   
    36   19   50 1   
    37   19   65 1   
    38   20   22 1   
    39   20   54 1   
    40   21   23 1   
    41   22   53 1   
    42   24   26 1   
    43   24   63 1   
    44   24   68 1   
    45   25   26 1   
    46   25   28 1   
    47   25   57 1   
    48   25   66 1   
    49   26   27 1   
    50   27   58 1   
    51   27   59 1   
    52   28   60 1   
    53   28   61 1   
    54   28   67 1   
    55   29   69 1   
    56   30   69 1   
    57   51   52 1   
    58   55   63 1   
    59   56   63 1   
@<TRIPOS>SUBSTRUCTURE
     1 3LT         1 TEMP              0 ****  ****    0 ROOT
