@<TRIPOS>MOLECULE
3LU
   54    56     1     0     0
SMALL
bcc


@<TRIPOS>ATOM
      1 S1          1.6660    1.0210   -0.9760 s6        1 3LU      1.436800
      2 C1          3.4060   -3.2550   -1.6620 ca        1 3LU     -0.137500
      3 C2          2.4270   -4.2380   -1.5200 ca        1 3LU     -0.141000
      4 C3          1.2930   -3.9780   -0.7520 ca        1 3LU     -0.137500
      5 C4          2.1210   -1.7520   -0.2590 ca        1 3LU     -0.031300
      6 C5          1.9330   -0.4460    0.3980 c3        1 3LU     -0.230600
      7 C6          3.0220   -0.0790    1.3140 c         1 3LU      0.615100
      8 C7          4.2950    2.3130    3.6550 c3        1 3LU      0.321600
      9 C9          4.3270    4.9990    3.5990 c3        1 3LU      0.089900
     10 C10         5.1960    4.8360    4.7770 c2        1 3LU     -0.431400
     11 C11         3.2560   -2.0180   -1.0380 ca        1 3LU     -0.107500
     12 N1          2.6430    0.9470    2.3570 n4        1 3LU     -0.664800
     13 O1          0.3480    0.8190   -1.3420 o         1 3LU     -0.709867
     14 N3          5.1470    2.4060    4.8060 nh        1 3LU     -0.684000
     15 O2          1.9030    2.0820   -0.0930 o         1 3LU     -0.709867
     16 S2          3.1210    3.7000    3.5060 ss        1 3LU     -0.372200
     17 O3          2.6440    0.8090   -1.9290 o         1 3LU     -0.709867
     18 O4          4.1990   -0.4340    1.2960 o         1 3LU     -0.507100
     19 C12         1.1400   -2.7450   -0.1220 ca        1 3LU     -0.107500
     20 C13         3.5190    0.9860    3.5620 c3        1 3LU     -0.051500
     21 C14         2.6770    0.6710    4.8810 c         1 3LU      0.934600
     22 C15         5.5390    3.6040    5.3140 ce        1 3LU      0.159800
     23 H1          4.2990   -3.4510   -2.2720 ha        1 3LU      0.121000
     24 H2          2.5470   -5.2120   -2.0140 ha        1 3LU      0.116000
     25 H3          0.5160   -4.7480   -0.6400 ha        1 3LU      0.121000
     26 H4          0.9310   -0.4040    0.8950 h1        1 3LU      0.105700
     27 H5          4.9600    2.4100    2.7440 h2        1 3LU      0.071700
     28 H6          3.7420    5.9510    3.6420 h1        1 3LU      0.056700
     29 H7          4.9320    5.0100    2.6560 h1        1 3LU      0.056700
     30 H9          4.0190   -1.2320   -1.1640 ha        1 3LU      0.145000
     31 H10         1.6850    0.7330    2.7030 hn        1 3LU      0.487300
     32 H11         0.2410   -2.5470    0.4810 ha        1 3LU      0.145000
     33 H14         4.2760    0.1490    3.4830 hx        1 3LU      0.118700
     34 H15         6.6750    5.9040    5.9290 h1        1 3LU      0.081200
     35 N2          4.7720    6.5800    6.4860 na        1 3LU      0.047900
     36 H17         5.7680    6.9030    4.6600 h1        1 3LU      0.081200
     37 C19         3.9930    5.7370    7.2140 ca        1 3LU      0.001200
     38 C17         3.1970    6.2200    8.2790 ca        1 3LU     -0.167000
     39 C20         3.2120    7.5700    8.5920 ca        1 3LU     -0.053000
     40 C21         4.0220    8.4350    7.8350 ca        1 3LU     -0.167000
     41 C22         4.7900    7.9150    6.7970 ca        1 3LU      0.001200
     42 H16         4.0330    4.6460    6.9660 h4        1 3LU      0.220500
     43 H18         2.5910    5.4940    8.8430 ha        1 3LU      0.171000
     44 H19         2.6060    7.9660    9.4210 ha        1 3LU      0.154000
     45 H20         4.0600    9.5110    8.0550 ha        1 3LU      0.171000
     46 H21         5.4490    8.5600    6.1860 h4        1 3LU      0.220500
     47 H22         5.1650    1.6090    5.4230 hn        1 3LU      0.494800
     48 O5          3.3500    0.5510    5.9270 o         1 3LU     -0.778800
     49 C8          6.4620    3.5680    6.5750 c         1 3LU      0.912800
     50 O6          1.4380    0.5260    4.7320 o         1 3LU     -0.778800
     51 H12         2.6050    1.8740    1.8860 hn        1 3LU      0.487300
     52 C16         5.6820    6.0690    5.4120 c3        1 3LU      0.115500
     53 O7          6.0570    4.2320    7.5720 o         1 3LU     -0.792800
     54 O8          7.5320    2.9320    6.4890 o         1 3LU     -0.792800
@<TRIPOS>BOND
     1    1    6 1   
     2    1   13 1   
     3    1   15 1   
     4    1   17 1   
     5    2    3 ar  
     6    2   11 ar  
     7    2   23 1   
     8    3    4 ar  
     9    3   24 1   
    10    4   19 ar  
    11    4   25 1   
    12    5    6 1   
    13    5   11 ar  
    14    5   19 ar  
    15    6    7 1   
    16    6   26 1   
    17    7   12 1   
    18    7   18 2   
    19    8   14 1   
    20    8   16 1   
    21    8   20 1   
    22    8   27 1   
    23    9   10 1   
    24    9   16 1   
    25    9   28 1   
    26    9   29 1   
    27   10   22 2   
    28   10   52 1   
    29   11   30 1   
    30   12   20 1   
    31   12   31 1   
    32   12   51 1   
    33   14   22 1   
    34   14   47 1   
    35   19   32 1   
    36   20   21 1   
    37   20   33 1   
    38   21   48 1   
    39   21   50 1   
    40   22   49 1   
    41   34   52 1   
    42   35   37 1   
    43   35   41 2   
    44   35   52 1   
    45   36   52 1   
    46   37   38 ar  
    47   37   42 1   
    48   38   39 ar  
    49   38   43 1   
    50   39   40 ar  
    51   39   44 1   
    52   40   41 ar  
    53   40   45 1   
    54   41   46 1   
    55   49   53 1   
    56   49   54 1   
@<TRIPOS>SUBSTRUCTURE
     1 3LU         1 TEMP              0 ****  ****    0 ROOT
