@<TRIPOS>MOLECULE
3LU
   54    56     1     0     0
SMALL
bcc


@<TRIPOS>ATOM
      1 S1          1.2120    0.6370   -0.9430 s6        1 3LU      1.438800
      2 C1          2.4230   -3.9090   -0.7140 ca        1 3LU     -0.136500
      3 C2          3.5920   -4.1310   -1.4400 ca        1 3LU     -0.145000
      4 C3          4.4820   -3.0790   -1.6540 ca        1 3LU     -0.136500
      5 C4          3.0360   -1.5830   -0.4050 ca        1 3LU     -0.021300
      6 C5          2.7560   -0.2350    0.1130 c3        1 3LU     -0.227600
      7 C6          2.4560   -0.1790    1.5460 c         1 3LU      0.608100
      8 C7          4.0390    0.4100    4.1490 c3        1 3LU      0.324600
      9 C9          6.0990    2.2290    3.9800 c3        1 3LU      0.071900
     10 C10         6.2840    1.9090    5.4080 c2        1 3LU     -0.381400
     11 C11         2.1430   -2.6450   -0.2000 ca        1 3LU     -0.111500
     12 N1          2.6680    1.1710    2.1860 ny        1 3LU     -0.643800
     13 O1          0.9490    1.6180    0.0130 o         1 3LU     -0.705533
     14 N3          4.2900    0.5200    5.5580 nu        1 3LU     -0.709000
     15 O2          0.2640   -0.3560   -1.0770 o         1 3LU     -0.705533
     16 S2          5.4770    0.8010    3.1180 ss        1 3LU     -0.399200
     17 O3          1.8840    1.0500   -2.0770 o         1 3LU     -0.705533
     18 O4          1.9930   -1.0580    2.2740 o         1 3LU     -0.519100
     19 C12         4.2100   -1.8140   -1.1380 ca        1 3LU     -0.111500
     20 C13         2.7760    1.1650    3.6690 c3        1 3LU     -0.071500
     21 C14         2.7530    2.6610    4.2210 c         1 3LU      0.924600
     22 C15         5.3690    1.1570    6.1140 ce        1 3LU      0.173800
     23 H1          1.7130   -4.7320   -0.5480 ha        1 3LU      0.119500
     24 H2          3.8090   -5.1280   -1.8460 ha        1 3LU      0.115000
     25 H3          5.4020   -3.2460   -2.2320 ha        1 3LU      0.119500
     26 H4          3.5660    0.4770   -0.1830 h1        1 3LU      0.101700
     27 H5          3.8800   -0.6920    3.9310 h2        1 3LU      0.087700
     28 H6          5.3630    3.0710    3.8530 h1        1 3LU      0.085200
     29 H7          7.0550    2.5040    3.4740 h1        1 3LU      0.085200
     30 H9          1.2100   -2.4630    0.3580 ha        1 3LU      0.142500
     31 H10         1.8780    1.7890    1.9160 hn        1 3LU      0.483800
     32 H11         4.9140   -0.9880   -1.3160 ha        1 3LU      0.142500
     33 H14         1.8690    0.6360    4.0820 hx        1 3LU      0.109700
     34 H15         7.3410    2.5360    7.1890 h1        1 3LU      0.097200
     35 N2          8.7110    1.7310    5.8060 na        1 3LU      0.056900
     36 H17         7.6430    3.5480    5.6660 h1        1 3LU      0.097200
     37 C19         8.7770    0.4150    6.1440 ca        1 3LU     -0.026300
     38 C17         9.9390   -0.3420    5.8940 ca        1 3LU     -0.171500
     39 C20        11.0340    0.2590    5.2860 ca        1 3LU     -0.052000
     40 C21        10.9580    1.6150    4.9370 ca        1 3LU     -0.171500
     41 C22         9.7870    2.3250    5.2040 ca        1 3LU     -0.026300
     42 H16         7.8650   -0.0130    6.6590 h4        1 3LU      0.235500
     43 H18         9.9470   -1.4020    6.1890 ha        1 3LU      0.169500
     44 H19        11.9500   -0.3160    5.0770 ha        1 3LU      0.154000
     45 H20        11.8020    2.1250    4.4510 ha        1 3LU      0.169500
     46 H21         9.6860    3.3940    4.9340 h4        1 3LU      0.235500
     47 H22         3.4780    0.4710    6.1510 hn        1 3LU      0.481800
     48 O5          2.2580    2.7820    5.3580 o         1 3LU     -0.776300
     49 C8          5.5410    0.8990    7.6430 c         1 3LU      0.911800
     50 O6          3.2210    3.5460    3.4610 o         1 3LU     -0.776300
     51 H12         3.5340    1.6000    1.8210 hn        1 3LU      0.483800
     52 C16         7.4570    2.5090    6.0620 c3        1 3LU      0.097500
     53 O7          6.7240    0.6660    8.0430 o         1 3LU     -0.796300
     54 O8          4.5250    0.9130    8.3670 o         1 3LU     -0.796300
@<TRIPOS>BOND
     1    1    6 1   
     2    1   13 1   
     3    1   15 1   
     4    1   17 1   
     5    2    3 ar  
     6    2   11 ar  
     7    2   23 1   
     8    3    4 ar  
     9    3   24 1   
    10    4   19 ar  
    11    4   25 1   
    12    5    6 1   
    13    5   11 ar  
    14    5   19 ar  
    15    6    7 1   
    16    6   26 1   
    17    7   12 1   
    18    7   18 2   
    19    8   14 1   
    20    8   16 1   
    21    8   20 1   
    22    8   27 1   
    23    9   10 1   
    24    9   16 1   
    25    9   28 1   
    26    9   29 1   
    27   10   22 2   
    28   10   52 1   
    29   11   30 1   
    30   12   20 1   
    31   12   31 1   
    32   12   51 1   
    33   14   22 1   
    34   14   47 1   
    35   19   32 1   
    36   20   21 1   
    37   20   33 1   
    38   21   48 1   
    39   21   50 1   
    40   22   49 1   
    41   34   52 1   
    42   35   37 1   
    43   35   41 2   
    44   35   52 1   
    45   36   52 1   
    46   37   38 ar  
    47   37   42 1   
    48   38   39 ar  
    49   38   43 1   
    50   39   40 ar  
    51   39   44 1   
    52   40   41 ar  
    53   40   45 1   
    54   41   46 1   
    55   49   53 1   
    56   49   54 1   
@<TRIPOS>SUBSTRUCTURE
     1 3LU         1 TEMP              0 ****  ****    0 ROOT
