@<TRIPOS>MOLECULE
3LV
   57    58     1     0     0
SMALL
bcc


@<TRIPOS>ATOM
      1 C1         -0.1320   -0.7980   -0.0750 c         1 3LV      0.916200
      2 O1          1.1200   -0.7400   -0.0700 o         1 3LV     -0.804800
      3 C2         -0.8650   -0.6560    1.2630 ca        1 3LV     -0.110600
      4 O2         -0.8780   -0.9510   -1.0860 o         1 3LV     -0.804800
      5 C3         -2.2280   -0.9430    1.2760 ca        1 3LV     -0.139000
      6 C4         -3.0240   -0.7220    2.4010 ca        1 3LV     -0.172300
      7 C5         -2.4050   -0.3220    3.6110 ca        1 3LV      0.054600
      8 N5         -3.1390   -0.2080    4.8160 n         1 3LV     -0.406000
      9 C6         -1.0190   -0.0480    3.5950 ca        1 3LV     -0.150000
     10 C7         -0.2630   -0.1990    2.4350 ca        1 3LV     -0.071000
     11 C8         -4.5100   -0.8450    2.2680 c3        1 3LV      0.185100
     12 N8         -4.9860   -0.3660    0.9140 nx        1 3LV     -0.690400
     13 C9         -5.1140   -1.4990   -0.0640 c3        1 3LV      0.109300
     14 C10        -4.6840   -1.1160   -1.4780 c3        1 3LV     -0.119900
     15 C11        -4.9470   -2.2720   -2.4100 c3        1 3LV     -0.093100
     16 C12        -6.2670    0.4000    1.0060 c3        1 3LV      0.109300
     17 C13        -6.0830    1.8420    1.4660 c3        1 3LV     -0.119900
     18 C14        -7.4260    2.5260    1.5200 c3        1 3LV     -0.093100
     19 C15        -4.0130    0.8300    5.1380 c         1 3LV      0.707500
     20 O15        -4.4020    1.6980    4.3390 o         1 3LV     -0.653500
     21 C16        -4.4680    0.6980    6.5830 c3        1 3LV     -0.158400
     22 C17        -3.8690   -0.6090    7.0830 c3        1 3LV     -0.090400
     23 C18        -2.9640   -1.1500    5.9350 c3        1 3LV      0.083400
     24 C19        -3.4000   -2.5850    5.5280 c3        1 3LV      0.125900
     25 O19        -3.7810   -3.3630    6.6380 oh        1 3LV     -0.609300
     26 C20        -1.4920   -1.2070    6.4200 c3        1 3LV      0.125900
     27 O20        -1.4680   -2.0350    7.5720 oh        1 3LV     -0.609300
     28 H3         -2.6290   -1.3440    0.3270 ha        1 3LV      0.155000
     29 H6         -0.5230    0.3120    4.5110 ha        1 3LV      0.132000
     30 H7          0.8150    0.0360    2.4200 ha        1 3LV      0.173000
     31 H8         -4.8400   -1.9140    2.4000 hx        1 3LV      0.095200
     32 H8A        -5.0300   -0.2080    3.0420 hx        1 3LV      0.095200
     33 H9         -4.4630   -2.3520    0.2900 hx        1 3LV      0.089700
     34 H9A        -6.1830   -1.8510   -0.0570 hx        1 3LV      0.089700
     35 H10        -3.5810   -0.8700   -1.5000 hc        1 3LV      0.085950
     36 H10A       -5.2480   -0.2120   -1.8250 hc        1 3LV      0.085950
     37 H11        -6.0330   -2.5300   -2.4360 hc        1 3LV      0.049200
     38 H11A       -4.6210   -1.9960   -3.4430 hc        1 3LV      0.049200
     39 H11B       -4.3700   -3.1740   -2.0940 hc        1 3LV      0.049200
     40 H12        -6.9540   -0.1480    1.7100 hx        1 3LV      0.089700
     41 H12A       -6.7370    0.4020   -0.0210 hx        1 3LV      0.089700
     42 H13        -5.5970    1.8800    2.4800 hc        1 3LV      0.085950
     43 H13A       -5.4100    2.3890    0.7530 hc        1 3LV      0.085950
     44 H14        -7.9140    2.5330    0.5150 hc        1 3LV      0.049200
     45 H14A       -7.2910    3.5840    1.8540 hc        1 3LV      0.049200
     46 H14B       -8.1050    2.0140    2.2430 hc        1 3LV      0.049200
     47 H16        -4.0960    1.5800    7.1620 hc        1 3LV      0.083200
     48 H16A       -5.5840    0.6950    6.6270 hc        1 3LV      0.083200
     49 H17        -4.6670   -1.3570    7.3190 hc        1 3LV      0.080200
     50 H17A       -3.2600   -0.4560    8.0080 hc        1 3LV      0.080200
     51 H19        -2.5640   -3.0820    4.9680 h1        1 3LV      0.047450
     52 H19A       -4.3190   -2.5550    4.8820 h1        1 3LV      0.047450
     53 HO19       -3.0250   -3.4190    7.2380 ho        1 3LV      0.422500
     54 H20        -1.1270   -0.1800    6.6920 h1        1 3LV      0.047450
     55 H20A       -0.8360   -1.6410    5.6170 h1        1 3LV      0.047450
     56 HO20       -0.5380   -2.1860    7.7830 ho        1 3LV      0.422500
     57 H81        -4.2600    0.2780    0.5510 hn        1 3LV      0.468800
@<TRIPOS>BOND
     1    1    2 1   
     2    1    3 1   
     3    1    4 1   
     4    3    5 ar  
     5    3   10 ar  
     6    5    6 ar  
     7    5   28 1   
     8    6    7 ar  
     9    6   11 1   
    10    7    8 1   
    11    7    9 ar  
    12    8   19 1   
    13    8   23 1   
    14    9   10 ar  
    15    9   29 1   
    16   10   30 1   
    17   11   12 1   
    18   11   31 1   
    19   11   32 1   
    20   12   13 1   
    21   12   16 1   
    22   12   57 1   
    23   13   14 1   
    24   13   33 1   
    25   13   34 1   
    26   14   15 1   
    27   14   35 1   
    28   14   36 1   
    29   15   37 1   
    30   15   38 1   
    31   15   39 1   
    32   16   17 1   
    33   16   40 1   
    34   16   41 1   
    35   17   18 1   
    36   17   42 1   
    37   17   43 1   
    38   18   44 1   
    39   18   45 1   
    40   18   46 1   
    41   19   20 2   
    42   19   21 1   
    43   21   22 1   
    44   21   47 1   
    45   21   48 1   
    46   22   23 1   
    47   22   49 1   
    48   22   50 1   
    49   23   24 1   
    50   23   26 1   
    51   24   25 1   
    52   24   51 1   
    53   24   52 1   
    54   25   53 1   
    55   26   27 1   
    56   26   54 1   
    57   26   55 1   
    58   27   56 1   
@<TRIPOS>SUBSTRUCTURE
     1 3LV         1 TEMP              0 ****  ****    0 ROOT
