@<TRIPOS>MOLECULE
3LV
   56    54     1     0     0
SMALL
bcc


@<TRIPOS>ATOM
      1 C1          3.8160   -1.5390   -2.6510 c1        1 3LV      0.824000
      2 O1          3.7670   -1.3020   -3.8860 o         1 3LV     -0.794000
      3 C2          2.5710   -1.3010   -1.7740 cg        1 3LV     -0.133300
      4 O2          4.9040   -1.8680   -2.1190 o         1 3LV     -0.794000
      5 C3          1.9450   -0.1750   -1.2250 c1        1 3LV     -0.029500
      6 C4          0.5780   -0.2220   -0.8910 c1        1 3LV     -0.068100
      7 C5         -0.1550   -1.3900   -1.1070 ch        1 3LV     -0.013300
      8 N5         -1.6110   -1.4000   -0.8720 n2        1 3LV     -0.417200
      9 C6          0.4730   -2.5170   -1.6560 cf        1 3LV     -0.133700
     10 C7          1.8430   -2.4670   -1.9890 ce        1 3LV     -0.071700
     11 C8         -0.1020    1.0000   -0.2680 c3        1 3LV      0.190900
     12 N8          0.8900    1.8510    0.3320 n3        1 3LV     -0.737600
     13 C9          0.5630    3.2320    0.0600 c3        1 3LV      0.178300
     14 C10         1.8240    3.9880   -0.3620 c3        1 3LV     -0.085900
     15 C11         1.4340    5.4650   -0.8060 c3        1 3LV     -0.090600
     16 C12         0.9160    1.6300    1.8040 c3        1 3LV      0.178300
     17 C13         2.2960    1.9590    2.3290 c3        1 3LV     -0.085900
     18 C14         2.3620    1.6940    3.7770 c3        1 3LV     -0.090600
     19 C15        -2.5040   -0.6800   -1.5240 c2        1 3LV      0.627300
     20 O15        -2.2690    0.0860   -2.4880 o         1 3LV     -0.613300
     21 C16        -3.7930   -0.6460   -0.5920 c3        1 3LV     -0.164400
     22 C17        -3.4650   -1.7850    0.4560 c3        1 3LV     -0.088400
     23 C18        -2.3870   -2.4330   -0.0430 c3        1 3LV      0.178200
     24 C19        -2.8410   -3.6130   -0.9360 c3        1 3LV      0.117900
     25 O19        -3.8970   -4.3700   -0.2400 oh        1 3LV     -0.616800
     26 C20        -1.4980   -2.9820    1.1330 c3        1 3LV      0.117900
     27 O20        -2.2660   -3.7960    1.9430 oh        1 3LV     -0.616800
     28 H3          2.4490    0.6510   -1.1000 ha        1 3LV      0.115500
     29 H6         -0.0040   -3.3360   -1.7300 ha        1 3LV      0.109000
     30 H7          2.2710   -3.2330   -2.3610 ha        1 3LV      0.156000
     31 H8         -0.7450    0.7030    0.4240 h1        1 3LV      0.034700
     32 H8A        -0.5800    1.4990   -0.9660 h1        1 3LV      0.034700
     33 H9         -0.0990    3.2720   -0.6590 h1        1 3LV      0.025450
     34 H9A         0.1930    3.6450    0.8690 h1        1 3LV      0.025450
     35 H10         2.2500    3.5190   -1.1180 hc        1 3LV      0.052700
     36 H10A        2.4600    4.0300    0.4080 hc        1 3LV      0.052700
     37 H11         2.2480    5.9390   -1.1400 hc        1 3LV      0.027367
     38 H11A        0.7440    5.4250   -1.5420 hc        1 3LV      0.027367
     39 H11B        1.0640    5.9510   -0.0370 hc        1 3LV      0.027367
     40 H12         0.2570    2.2130    2.2330 h1        1 3LV      0.025450
     41 H12A        0.7050    0.7020    1.9970 h1        1 3LV      0.025450
     42 H13         2.4830    2.8770    2.1680 hc        1 3LV      0.052700
     43 H13A        2.9400    1.4220    1.8810 hc        1 3LV      0.052700
     44 H14         3.2800    1.8790    4.1000 hc        1 3LV      0.027367
     45 H14A        1.7560    2.2500    4.2230 hc        1 3LV      0.027367
     46 H14B        2.1390    0.7690    3.9500 hc        1 3LV      0.027367
     47 H16        -4.6540   -0.7390   -0.9830 hc        1 3LV      0.070200
     48 H16A       -3.8660    0.2840   -0.1560 hc        1 3LV      0.070200
     49 H17        -4.2230   -2.3990    0.5330 hc        1 3LV      0.067200
     50 H17A       -3.2620   -1.4070    1.2950 hc        1 3LV      0.067200
     51 H19        -2.0580   -4.2160   -1.1140 h1        1 3LV      0.053450
     52 H19A       -3.1820   -3.2780   -1.7690 h1        1 3LV      0.053450
     53 HO19       -4.2770   -4.9730   -0.8240 ho        1 3LV      0.410000
     54 H20        -0.7640   -3.4890    0.7700 h1        1 3LV      0.053450
     55 H20A       -1.1570   -2.2480    1.6500 h1        1 3LV      0.053450
     56 HO20       -1.7620   -4.1310    2.5930 ho        1 3LV      0.410000
@<TRIPOS>BOND
     1    1    2 2   
     2    1    4 2   
     3    3    5 3   
     4    3   10 1   
     5    5   28 1   
     6    6    7 3   
     7    6   11 1   
     8    7    9 1   
     9    8   19 2   
    10    8   23 1   
    11    9   10 2   
    12    9   29 1   
    13   10   30 1   
    14   11   12 1   
    15   11   31 1   
    16   11   32 1   
    17   12   13 1   
    18   12   16 1   
    19   13   14 1   
    20   13   33 1   
    21   13   34 1   
    22   14   15 1   
    23   14   35 1   
    24   14   36 1   
    25   15   37 1   
    26   15   38 1   
    27   15   39 1   
    28   16   17 1   
    29   16   40 1   
    30   16   41 1   
    31   17   18 1   
    32   17   42 1   
    33   17   43 1   
    34   18   44 1   
    35   18   45 1   
    36   18   46 1   
    37   19   20 1   
    38   19   21 1   
    39   21   22 1   
    40   21   47 1   
    41   21   48 1   
    42   22   23 1   
    43   22   49 1   
    44   22   50 1   
    45   23   24 1   
    46   23   26 1   
    47   24   25 1   
    48   24   51 1   
    49   24   52 1   
    50   25   53 1   
    51   26   27 1   
    52   26   54 1   
    53   26   55 1   
    54   27   56 1   
@<TRIPOS>SUBSTRUCTURE
     1 3LV         1 TEMP              0 ****  ****    0 ROOT
