@<TRIPOS>MOLECULE
3LV
   57    58     1     0     0
SMALL
bcc


@<TRIPOS>ATOM
      1 C1         -0.1160   -0.7960   -0.0540 c         1 3LV      0.916200
      2 O1          1.1360   -0.7380   -0.0410 o         1 3LV     -0.804800
      3 C2         -0.8570   -0.6550    1.2800 ca        1 3LV     -0.110600
      4 O2         -0.8560   -0.9460   -1.0690 o         1 3LV     -0.804800
      5 C3         -2.2200   -0.9420    1.2850 ca        1 3LV     -0.139000
      6 C4         -3.0230   -0.7220    2.4050 ca        1 3LV     -0.172300
      7 C5         -2.4100   -0.3240    3.6200 ca        1 3LV      0.054600
      8 N5         -3.1520   -0.2100    4.8210 n         1 3LV     -0.406000
      9 C6         -1.0240   -0.0500    3.6130 ca        1 3LV     -0.150000
     10 C7         -0.2620   -0.2000    2.4560 ca        1 3LV     -0.071000
     11 C8         -4.5080   -0.8440    2.2640 c3        1 3LV      0.185100
     12 N8         -4.9750   -0.3620    0.9080 n4        1 3LV     -0.690400
     13 C9         -5.0980   -1.4950   -0.0720 c3        1 3LV      0.109300
     14 C10        -4.6590   -1.1100   -1.4840 c3        1 3LV     -0.119900
     15 C11        -4.9180   -2.2640   -2.4190 c3        1 3LV     -0.093100
     16 C12        -6.2570    0.4040    0.9920 c3        1 3LV      0.109300
     17 C13        -6.0750    1.8450    1.4560 c3        1 3LV     -0.119900
     18 C14        -7.4170    2.5300    1.5010 c3        1 3LV     -0.093100
     19 C15        -4.0280    0.8270    5.1390 c         1 3LV      0.707500
     20 O15        -4.4120    1.6970    4.3380 o         1 3LV     -0.653500
     21 C16        -4.4900    0.6930    6.5810 c3        1 3LV     -0.158400
     22 C17        -3.8950   -0.6140    7.0820 c3        1 3LV     -0.090400
     23 C18        -2.9830   -1.1540    5.9390 c3        1 3LV      0.083400
     24 C19        -3.4180   -2.5890    5.5270 c3        1 3LV      0.125900
     25 O19        -3.8060   -3.3680    6.6340 oh        1 3LV     -0.609300
     26 C20        -1.5150   -1.2120    6.4320 c3        1 3LV      0.125900
     27 O20        -1.4970   -2.0420    7.5840 oh        1 3LV     -0.609300
     28 H3         -2.6150   -1.3410    0.3330 ha        1 3LV      0.155000
     29 H6         -0.5340    0.3090    4.5320 ha        1 3LV      0.132000
     30 H7          0.8160    0.0360    2.4480 ha        1 3LV      0.173000
     31 H8         -5.0320   -0.2070    3.0360 hx        1 3LV      0.095200
     32 H8A        -4.8400   -1.9130    2.3920 hx        1 3LV      0.095200
     33 H9         -4.4500   -2.3490    0.2840 hx        1 3LV      0.089700
     34 H9A        -6.1670   -1.8460   -0.0730 hx        1 3LV      0.089700
     35 H10        -3.5570   -0.8640   -1.4990 hc        1 3LV      0.085950
     36 H10A       -5.2210   -0.2050   -1.8340 hc        1 3LV      0.085950
     37 H11        -4.5850   -1.9870   -3.4500 hc        1 3LV      0.049200
     38 H11A       -4.3420   -3.1680   -2.1010 hc        1 3LV      0.049200
     39 H11B       -6.0030   -2.5230   -2.4520 hc        1 3LV      0.049200
     40 H12        -6.7200    0.4070   -0.0370 hx        1 3LV      0.089700
     41 H12A       -6.9480   -0.1450    1.6920 hx        1 3LV      0.089700
     42 H13        -5.5960    1.8810    2.4730 hc        1 3LV      0.085950
     43 H13A       -5.3960    2.3930    0.7480 hc        1 3LV      0.085950
     44 H14        -8.1020    2.0170    2.2190 hc        1 3LV      0.049200
     45 H14A       -7.2840    3.5870    1.8380 hc        1 3LV      0.049200
     46 H14B       -7.8990    2.5380    0.4940 hc        1 3LV      0.049200
     47 H16        -5.6070    0.6910    6.6180 hc        1 3LV      0.083200
     48 H16A       -4.1220    1.5740    7.1640 hc        1 3LV      0.083200
     49 H17        -3.2920   -0.4630    8.0110 hc        1 3LV      0.080200
     50 H17A       -4.6950   -1.3620    7.3130 hc        1 3LV      0.080200
     51 H19        -2.5780   -3.0850    4.9710 h1        1 3LV      0.047450
     52 H19A       -4.3330   -2.5580    4.8760 h1        1 3LV      0.047450
     53 HO19       -3.0530   -3.4250    7.2380 ho        1 3LV      0.422500
     54 H20        -1.1510   -0.1870    6.7080 h1        1 3LV      0.047450
     55 H20A       -0.8540   -1.6450    5.6330 h1        1 3LV      0.047450
     56 HO20       -0.5690   -2.1940    7.8000 ho        1 3LV      0.422500
     57 H81        -4.2470    0.2820    0.5490 hn        1 3LV      0.468800
@<TRIPOS>BOND
     1    1    2 1   
     2    1    3 1   
     3    1    4 1   
     4    3    5 ar  
     5    3   10 ar  
     6    5    6 ar  
     7    5   28 1   
     8    6    7 ar  
     9    6   11 1   
    10    7    8 1   
    11    7    9 ar  
    12    8   19 1   
    13    8   23 1   
    14    9   10 ar  
    15    9   29 1   
    16   10   30 1   
    17   11   12 1   
    18   11   31 1   
    19   11   32 1   
    20   12   13 1   
    21   12   16 1   
    22   12   57 1   
    23   13   14 1   
    24   13   33 1   
    25   13   34 1   
    26   14   15 1   
    27   14   35 1   
    28   14   36 1   
    29   15   37 1   
    30   15   38 1   
    31   15   39 1   
    32   16   17 1   
    33   16   40 1   
    34   16   41 1   
    35   17   18 1   
    36   17   42 1   
    37   17   43 1   
    38   18   44 1   
    39   18   45 1   
    40   18   46 1   
    41   19   20 2   
    42   19   21 1   
    43   21   22 1   
    44   21   47 1   
    45   21   48 1   
    46   22   23 1   
    47   22   49 1   
    48   22   50 1   
    49   23   24 1   
    50   23   26 1   
    51   24   25 1   
    52   24   51 1   
    53   24   52 1   
    54   25   53 1   
    55   26   27 1   
    56   26   54 1   
    57   26   55 1   
    58   27   56 1   
@<TRIPOS>SUBSTRUCTURE
     1 3LV         1 TEMP              0 ****  ****    0 ROOT
