@<TRIPOS>MOLECULE
3LV
   57    58     1     0     0
SMALL
bcc


@<TRIPOS>ATOM
      1 C1         -0.1240   -0.7990   -0.0610 c         1 3LV      0.916200
      2 O1          1.1270   -0.7380   -0.0520 o         1 3LV     -0.804800
      3 C2         -0.8620   -0.6540    1.2750 ca        1 3LV     -0.110600
      4 O2         -0.8670   -0.9550   -1.0740 o         1 3LV     -0.804800
      5 C3         -2.2240   -0.9430    1.2840 ca        1 3LV     -0.139000
      6 C4         -3.0250   -0.7200    2.4050 ca        1 3LV     -0.172300
      7 C5         -2.4100   -0.3160    3.6170 ca        1 3LV      0.054600
      8 N5         -3.1490   -0.1990    4.8190 n         1 3LV     -0.406000
      9 C6         -1.0250   -0.0390    3.6050 ca        1 3LV     -0.150000
     10 C7         -0.2650   -0.1930    2.4470 ca        1 3LV     -0.071000
     11 C8         -4.5100   -0.8460    2.2680 c3        1 3LV      0.185100
     12 N8         -4.9820   -0.3710    0.9110 n4        1 3LV     -0.690400
     13 C9         -5.1050   -1.5070   -0.0640 c3        1 3LV      0.109300
     14 C10        -4.6700   -1.1270   -1.4780 c3        1 3LV     -0.119900
     15 C11        -4.9290   -2.2850   -2.4080 c3        1 3LV     -0.093100
     16 C12        -6.2650    0.3930    0.9970 c3        1 3LV      0.109300
     17 C13        -6.0850    1.8370    1.4530 c3        1 3LV     -0.119900
     18 C14        -7.4290    2.5180    1.5010 c3        1 3LV     -0.093100
     19 C15        -4.0260    0.8380    5.1350 c         1 3LV      0.707500
     20 O15        -4.4130    1.7040    4.3320 o         1 3LV     -0.653500
     21 C16        -4.4840    0.7100    6.5790 c3        1 3LV     -0.158400
     22 C17        -3.8850   -0.5950    7.0850 c3        1 3LV     -0.090400
     23 C18        -2.9750   -1.1380    5.9410 c3        1 3LV      0.083400
     24 C19        -3.4090   -2.5750    5.5370 c3        1 3LV      0.125900
     25 O19        -3.7920   -3.3500    6.6470 oh        1 3LV     -0.609300
     26 C20        -1.5060   -1.1920    6.4300 c3        1 3LV      0.125900
     27 O20        -1.4830   -2.0170    7.5860 oh        1 3LV     -0.609300
     28 H3         -2.6210   -1.3470    0.3350 ha        1 3LV      0.155000
     29 H6         -0.5330    0.3240    4.5210 ha        1 3LV      0.132000
     30 H7          0.8130    0.0450    2.4360 ha        1 3LV      0.173000
     31 H8         -4.8390   -1.9150    2.4010 hx        1 3LV      0.095200
     32 H8A        -5.0330   -0.2070    3.0390 hx        1 3LV      0.095200
     33 H9         -6.1730   -1.8610   -0.0600 hx        1 3LV      0.089700
     34 H9A        -4.4540   -2.3580    0.2940 hx        1 3LV      0.089700
     35 H10        -3.5680   -0.8790   -1.4970 hc        1 3LV      0.085950
     36 H10A       -5.2350   -0.2240   -1.8300 hc        1 3LV      0.085950
     37 H11        -4.5990   -2.0120   -3.4410 hc        1 3LV      0.049200
     38 H11A       -4.3510   -3.1870   -2.0870 hc        1 3LV      0.049200
     39 H11B       -6.0140   -2.5460   -2.4370 hc        1 3LV      0.049200
     40 H12        -6.9530   -0.1540    1.7000 hx        1 3LV      0.089700
     41 H12A       -6.7310    0.3920   -0.0320 hx        1 3LV      0.089700
     42 H13        -5.4100    2.3830    0.7420 hc        1 3LV      0.085950
     43 H13A       -5.6030    1.8780    2.4690 hc        1 3LV      0.085950
     44 H14        -7.2970    3.5780    1.8330 hc        1 3LV      0.049200
     45 H14A       -7.9140    2.5220    0.4950 hc        1 3LV      0.049200
     46 H14B       -8.1100    2.0070    2.2230 hc        1 3LV      0.049200
     47 H16        -4.1160    1.5940    7.1570 hc        1 3LV      0.083200
     48 H16A       -5.6010    0.7050    6.6190 hc        1 3LV      0.083200
     49 H17        -3.2800   -0.4380    8.0110 hc        1 3LV      0.080700
     50 H17A       -4.6830   -1.3430    7.3200 hc        1 3LV      0.080700
     51 H19        -4.3260   -2.5490    4.8870 h1        1 3LV      0.047450
     52 H19A       -2.5700   -3.0720    4.9800 h1        1 3LV      0.047450
     53 HO19       -3.0380   -3.4040    7.2500 ho        1 3LV      0.422500
     54 H20        -0.8470   -1.6270    5.6310 h1        1 3LV      0.047450
     55 H20A       -1.1430   -0.1640    6.7010 h1        1 3LV      0.047450
     56 HO20       -0.5540   -2.1650    7.7990 ho        1 3LV      0.422500
     57 H81        -4.2560    0.2730    0.5490 hn        1 3LV      0.468800
@<TRIPOS>BOND
     1    1    2 1   
     2    1    3 1   
     3    1    4 1   
     4    3    5 ar  
     5    3   10 ar  
     6    5    6 ar  
     7    5   28 1   
     8    6    7 ar  
     9    6   11 1   
    10    7    8 1   
    11    7    9 ar  
    12    8   19 1   
    13    8   23 1   
    14    9   10 ar  
    15    9   29 1   
    16   10   30 1   
    17   11   12 1   
    18   11   31 1   
    19   11   32 1   
    20   12   13 1   
    21   12   16 1   
    22   12   57 1   
    23   13   14 1   
    24   13   33 1   
    25   13   34 1   
    26   14   15 1   
    27   14   35 1   
    28   14   36 1   
    29   15   37 1   
    30   15   38 1   
    31   15   39 1   
    32   16   17 1   
    33   16   40 1   
    34   16   41 1   
    35   17   18 1   
    36   17   42 1   
    37   17   43 1   
    38   18   44 1   
    39   18   45 1   
    40   18   46 1   
    41   19   20 2   
    42   19   21 1   
    43   21   22 1   
    44   21   47 1   
    45   21   48 1   
    46   22   23 1   
    47   22   49 1   
    48   22   50 1   
    49   23   24 1   
    50   23   26 1   
    51   24   25 1   
    52   24   51 1   
    53   24   52 1   
    54   25   53 1   
    55   26   27 1   
    56   26   54 1   
    57   26   55 1   
    58   27   56 1   
@<TRIPOS>SUBSTRUCTURE
     1 3LV         1 TEMP              0 ****  ****    0 ROOT
