@<TRIPOS>MOLECULE
3LV
   56    57     1     0     0
SMALL
bcc


@<TRIPOS>ATOM
      1 C1         -3.0240    3.1320    0.0850 c         1 3LV      0.908200
      2 O1         -2.9970    4.3910    0.1850 o         1 3LV     -0.826800
      3 C2         -1.7180    2.3770    0.2990 ca        1 3LV     -0.121600
      4 O2         -4.0550    2.4590   -0.1960 o         1 3LV     -0.826800
      5 C3         -1.6970    0.9810    0.3000 ca        1 3LV     -0.091000
      6 C4         -0.5020    0.2650    0.4200 ca        1 3LV     -0.106300
      7 C5          0.7160    0.9800    0.5650 ca        1 3LV      0.001600
      8 N5          1.9770    0.3310    0.6450 n         1 3LV     -0.379000
      9 C6          0.6790    2.3890    0.6230 ca        1 3LV     -0.159000
     10 C7         -0.5220    3.0740    0.4820 ca        1 3LV     -0.108000
     11 C8         -0.4860   -1.2370    0.4670 c3        1 3LV      0.222100
     12 N8         -1.6890   -1.9130    0.0050 n3        1 3LV     -0.738600
     13 C9         -1.9680   -1.7050   -1.4070 c3        1 3LV      0.181800
     14 C10        -3.4610   -1.7370   -1.7410 c3        1 3LV     -0.087900
     15 C11        -3.6690   -1.4870   -3.2130 c3        1 3LV     -0.090100
     16 C12        -1.7280   -3.3140    0.3920 c3        1 3LV      0.181800
     17 C13        -2.0540   -3.5360    1.8700 c3        1 3LV     -0.087900
     18 C14        -2.2350   -5.0070    2.1460 c3        1 3LV     -0.090100
     19 C15         2.3490   -0.6330    1.5800 c         1 3LV      0.701500
     20 O15         1.7310   -0.9240    2.6160 o         1 3LV     -0.625500
     21 C16         3.6690   -1.2770    1.1650 c3        1 3LV     -0.164400
     22 C17         4.0290   -0.6560   -0.1760 c3        1 3LV     -0.089400
     23 C18         2.9220    0.3960   -0.4820 c3        1 3LV      0.083400
     24 C19         2.2080    0.0470   -1.8140 c3        1 3LV      0.120400
     25 O19         3.1840    0.0340   -2.8470 oh        1 3LV     -0.618300
     26 C20         3.5540    1.8080   -0.6080 c3        1 3LV      0.120400
     27 O20         4.7710    1.7960   -1.3220 oh        1 3LV     -0.618300
     28 H3         -2.6670    0.4620    0.1980 ha        1 3LV      0.173000
     29 H6          1.6080    2.9580    0.7820 ha        1 3LV      0.115000
     30 H7         -0.5570    4.1750    0.5140 ha        1 3LV      0.156000
     31 H8          0.4110   -1.6150   -0.1160 h1        1 3LV      0.035200
     32 H8A        -0.3220   -1.5240    1.5500 h1        1 3LV      0.035200
     33 H9         -1.5750   -0.6880   -1.7010 h1        1 3LV      0.022950
     34 H9A        -1.4380   -2.4700   -2.0490 h1        1 3LV      0.022950
     35 H10        -3.9040   -2.7270   -1.4600 hc        1 3LV      0.056200
     36 H10A       -3.9920   -0.9460   -1.1450 hc        1 3LV      0.056200
     37 H11        -4.7580   -1.5240   -3.4580 hc        1 3LV      0.026867
     38 H11A       -3.2800   -0.4790   -3.4980 hc        1 3LV      0.026867
     39 H11B       -3.1420   -2.2560   -3.8280 hc        1 3LV      0.026867
     40 H12        -2.5250   -3.8250   -0.2190 h1        1 3LV      0.022950
     41 H12A       -0.7490   -3.8340    0.1630 h1        1 3LV      0.022950
     42 H13        -1.2310   -3.1310    2.5140 hc        1 3LV      0.056200
     43 H13A       -2.9900   -2.9800    2.1390 hc        1 3LV      0.056200
     44 H14        -3.0820   -5.4230    1.5500 hc        1 3LV      0.026867
     45 H14A       -1.3100   -5.5770    1.8840 hc        1 3LV      0.026867
     46 H14B       -2.4530   -5.1710    3.2290 hc        1 3LV      0.026867
     47 H16         4.4410   -1.0660    1.9450 hc        1 3LV      0.070700
     48 H16A        3.5300   -2.3830    1.0940 hc        1 3LV      0.070700
     49 H17         5.0290   -0.1570   -0.1390 hc        1 3LV      0.066700
     50 H17A        4.0580   -1.4230   -0.9880 hc        1 3LV      0.066700
     51 H19         1.7400   -0.9720   -1.7510 h1        1 3LV      0.053450
     52 H19A        1.4130    0.8100   -2.0280 h1        1 3LV      0.053450
     53 HO19        2.7010    0.1190   -3.6770 ho        1 3LV      0.411500
     54 H20         2.8210    2.4990   -1.1030 h1        1 3LV      0.053450
     55 H20A        3.8310    2.2120    0.4030 h1        1 3LV      0.053450
     56 HO20        4.6010    1.4150   -2.1930 ho        1 3LV      0.411500
@<TRIPOS>BOND
     1    1    2 1   
     2    1    3 1   
     3    1    4 1   
     4    3    5 ar  
     5    3   10 ar  
     6    5    6 ar  
     7    5   28 1   
     8    6    7 ar  
     9    6   11 1   
    10    7    8 1   
    11    7    9 ar  
    12    8   19 1   
    13    8   23 1   
    14    9   10 ar  
    15    9   29 1   
    16   10   30 1   
    17   11   12 1   
    18   11   31 1   
    19   11   32 1   
    20   12   13 1   
    21   12   16 1   
    22   13   14 1   
    23   13   33 1   
    24   13   34 1   
    25   14   15 1   
    26   14   35 1   
    27   14   36 1   
    28   15   37 1   
    29   15   38 1   
    30   15   39 1   
    31   16   17 1   
    32   16   40 1   
    33   16   41 1   
    34   17   18 1   
    35   17   42 1   
    36   17   43 1   
    37   18   44 1   
    38   18   45 1   
    39   18   46 1   
    40   19   20 2   
    41   19   21 1   
    42   21   22 1   
    43   21   47 1   
    44   21   48 1   
    45   22   23 1   
    46   22   49 1   
    47   22   50 1   
    48   23   24 1   
    49   23   26 1   
    50   24   25 1   
    51   24   51 1   
    52   24   52 1   
    53   25   53 1   
    54   26   27 1   
    55   26   54 1   
    56   26   55 1   
    57   27   56 1   
@<TRIPOS>SUBSTRUCTURE
     1 3LV         1 TEMP              0 ****  ****    0 ROOT
