@<TRIPOS>MOLECULE
3LW
   39    42     1     0     0
SMALL
bcc


@<TRIPOS>ATOM
      1 S           0.2370   -0.1530   -0.0530 ss        1 3LW      0.188200
      2 BR          2.9910   -0.1550   -1.4050 br        1 3LW      0.042900
      3 C1          1.8930   -0.0520    0.0550 cc        1 3LW     -0.072000
      4 C2          2.3060    0.1080    1.3740 cd        1 3LW     -0.119000
      5 N2         -1.7000    1.3080    2.7960 n4        1 3LW     -0.769000
      6 C3          1.2020    0.1430    2.2630 cd        1 3LW     -0.117000
      7 C5         -1.3250   -0.0330    2.2400 c3        1 3LW      0.215100
      8 C10        -2.9330    1.3140    3.6930 c3        1 3LW      0.140200
      9 C12        -0.0080    0.0170    1.5840 cc        1 3LW     -0.279400
     10 C61        -3.3210    2.7890    3.9570 c3        1 3LW     -0.088400
     11 C62        -2.6230    0.6290    5.0400 c3        1 3LW     -0.088400
     12 C63        -4.1140    0.5960    3.0130 c3        1 3LW     -0.088400
     13 C71        -4.5490    2.8340    4.8600 c3        1 3LW     -0.058033
     14 C72        -3.8610    0.6970    5.9310 c3        1 3LW     -0.058033
     15 C73        -5.3360    0.6670    3.9260 c3        1 3LW     -0.058033
     16 C81        -4.2330    2.1520    6.1860 c3        1 3LW     -0.082400
     17 C82        -5.0220   -0.0190    5.2500 c3        1 3LW     -0.082400
     18 C83        -5.7100    2.1230    4.1760 c3        1 3LW     -0.082400
     19 H2          3.3490    0.1920    1.7000 ha        1 3LW      0.190000
     20 H3          1.3120    0.2380    3.3470 ha        1 3LW      0.161000
     21 H5         -1.3090   -0.7680    3.0990 hx        1 3LW      0.108200
     22 H61        -3.5550    3.3070    2.9900 hc        1 3LW      0.060200
     23 H81        -3.3910    2.6810    6.7000 hc        1 3LW      0.065200
     24 H62        -2.3470   -0.4450    4.8790 hc        1 3LW      0.060200
     25 H82        -4.7640   -1.0940    5.0760 hc        1 3LW      0.065200
     26 HN2        -0.9080    1.6680    3.3420 hn        1 3LW      0.443800
     27 H63        -4.3510    1.0820    2.0310 hc        1 3LW      0.060200
     28 H83        -5.9570    2.6300    3.2090 hc        1 3LW      0.065200
     29 H5A        -2.1320   -0.3450    1.5160 hx        1 3LW      0.108200
     30 H61A       -2.4740    3.3280    4.4560 hc        1 3LW      0.060200
     31 H62A       -1.7690    1.1460    5.5500 hc        1 3LW      0.060200
     32 H63A       -3.8620   -0.4810    2.8300 hc        1 3LW      0.060200
     33 H71        -4.8190    3.9090    5.0430 hc        1 3LW      0.084033
     34 H72        -3.6260    0.1910    6.9060 hc        1 3LW      0.084033
     35 H73        -6.1900    0.1400    3.4200 hc        1 3LW      0.084033
     36 H81A       -5.1290    2.2000    6.8570 hc        1 3LW      0.065200
     37 H82A       -5.9250    0.0130    5.9140 hc        1 3LW      0.065200
     38 H83A       -6.6200    2.1710    4.8300 hc        1 3LW      0.065200
     39 HN2A       -1.8670    1.9540    2.0190 hn        1 3LW      0.443800
@<TRIPOS>BOND
     1    1    3 1   
     2    1    9 1   
     3    2    3 1   
     4    3    4 2   
     5    4    6 1   
     6    4   19 1   
     7    5    7 1   
     8    5    8 1   
     9    5   26 1   
    10    5   39 1   
    11    6    9 2   
    12    6   20 1   
    13    7    9 1   
    14    7   21 1   
    15    7   29 1   
    16    8   10 1   
    17    8   11 1   
    18    8   12 1   
    19   10   13 1   
    20   10   22 1   
    21   10   30 1   
    22   11   14 1   
    23   11   24 1   
    24   11   31 1   
    25   12   15 1   
    26   12   27 1   
    27   12   32 1   
    28   13   16 1   
    29   13   18 1   
    30   13   33 1   
    31   14   16 1   
    32   14   17 1   
    33   14   34 1   
    34   15   17 1   
    35   15   18 1   
    36   15   35 1   
    37   16   23 1   
    38   16   36 1   
    39   17   25 1   
    40   17   37 1   
    41   18   28 1   
    42   18   38 1   
@<TRIPOS>SUBSTRUCTURE
     1 3LW         1 TEMP              0 ****  ****    0 ROOT
