@<TRIPOS>MOLECULE
3LW
   39    42     1     0     0
SMALL
bcc


@<TRIPOS>ATOM
      1 S           0.2480   -0.1610   -0.0420 ss        1 3LW      0.188200
      2 Br          3.0100   -0.1780   -1.3790 br        1 3LW      0.042900
      3 C1          1.9050   -0.0730    0.0760 cc        1 3LW     -0.072000
      4 C2          2.3120    0.0800    1.3980 cd        1 3LW     -0.119000
      5 N2         -1.6920    1.3030    2.8040 ny        1 3LW     -0.769000
      6 C3          1.2030    0.1190    2.2810 cd        1 3LW     -0.117000
      7 C5         -1.3250   -0.0380    2.2440 c3        1 3LW      0.215100
      8 C10        -2.9310    1.3160    3.6930 c3        1 3LW      0.140200
      9 C12        -0.0040    0.0050    1.5950 cc        1 3LW     -0.279400
     10 C61        -3.3080    2.7920    3.9620 c3        1 3LW     -0.088400
     11 C62        -2.6350    0.6220    5.0380 c3        1 3LW     -0.088400
     12 C63        -4.1140    0.6110    3.0020 c3        1 3LW     -0.088400
     13 C71        -4.5410    2.8430    4.8580 c3        1 3LW     -0.058033
     14 C72        -3.8780    0.6950    5.9220 c3        1 3LW     -0.058033
     15 C73        -5.3410    0.6890    3.9080 c3        1 3LW     -0.058033
     16 C81        -4.2390    2.1530    6.1820 c3        1 3LW     -0.082400
     17 C82        -5.0410   -0.0070    5.2310 c3        1 3LW     -0.082400
     18 C83        -5.7040    2.1460    4.1640 c3        1 3LW     -0.082400
     19 H2          3.3530    0.1550    1.7300 ha        1 3LW      0.190000
     20 H3          1.3070    0.2100    3.3660 ha        1 3LW      0.161000
     21 H5         -2.1310   -0.3400    1.5130 hx        1 3LW      0.108200
     22 H61        -2.4590    3.3220    4.4690 hc        1 3LW      0.060200
     23 H81        -5.1380    2.2050    6.8490 hc        1 3LW      0.065200
     24 H62        -1.7800    1.1290    5.5560 hc        1 3LW      0.060200
     25 H82        -5.9470    0.0290    5.8890 hc        1 3LW      0.065200
     26 HN2        -0.9010    1.6540    3.3560 hn        1 3LW      0.443800
     27 H63        -4.3400    1.1040    2.0210 hc        1 3LW      0.060200
     28 H83        -6.6170    2.1990    4.8120 hc        1 3LW      0.065200
     29 H5A        -1.3190   -0.7770    3.0990 hx        1 3LW      0.108200
     30 H61A       -3.5320    3.3170    2.9960 hc        1 3LW      0.060200
     31 H62A       -2.3670   -0.4540    4.8740 hc        1 3LW      0.060200
     32 H63A       -3.8700   -0.4670    2.8160 hc        1 3LW      0.060200
     33 H71        -4.8030    3.9200    5.0450 hc        1 3LW      0.084033
     34 H72        -3.6520    0.1830    6.8960 hc        1 3LW      0.084033
     35 H73        -6.1960    0.1710    3.3950 hc        1 3LW      0.084033
     36 H81A       -3.3950    2.6720    6.7050 hc        1 3LW      0.065200
     37 H82A       -4.7900   -1.0840    5.0530 hc        1 3LW      0.065200
     38 H83A       -5.9410    2.6600    3.1970 hc        1 3LW      0.065200
     39 HN2A       -1.8500    1.9540    2.0280 hn        1 3LW      0.443800
@<TRIPOS>BOND
     1    1    3 1   
     2    1    9 1   
     3    2    3 1   
     4    3    4 2   
     5    4    6 1   
     6    4   19 1   
     7    5    7 1   
     8    5    8 1   
     9    5   26 1   
    10    5   39 1   
    11    6    9 2   
    12    6   20 1   
    13    7    9 1   
    14    7   21 1   
    15    7   29 1   
    16    8   10 1   
    17    8   11 1   
    18    8   12 1   
    19   10   13 1   
    20   10   22 1   
    21   10   30 1   
    22   11   14 1   
    23   11   24 1   
    24   11   31 1   
    25   12   15 1   
    26   12   27 1   
    27   12   32 1   
    28   13   16 1   
    29   13   18 1   
    30   13   33 1   
    31   14   16 1   
    32   14   17 1   
    33   14   34 1   
    34   15   17 1   
    35   15   18 1   
    36   15   35 1   
    37   16   23 1   
    38   16   36 1   
    39   17   25 1   
    40   17   37 1   
    41   18   28 1   
    42   18   38 1   
@<TRIPOS>SUBSTRUCTURE
     1 3LW         1 TEMP              0 ****  ****    0 ROOT
