@<TRIPOS>MOLECULE
3LX
   40    39     1     0     0
SMALL
bcc


@<TRIPOS>ATOM
      1 C1          0.0210   -0.0230    0.0290 c         1 3LX      0.216200
      2 S1          1.5230   -0.2170   -0.1450 s         1 3LX     -0.255400
      3 C2         -0.7280    0.0270    1.3100 c3        1 3LX     -0.152400
      4 C3         -1.7040    1.1860    1.3470 c3        1 3LX     -0.075400
      5 C4         -2.4720    1.2040    2.6520 c3        1 3LX     -0.079400
      6 C5         -3.4460    2.3620    2.6970 c3        1 3LX     -0.079400
      7 C6         -4.2150    2.3810    4.0010 c3        1 3LX     -0.079400
      8 C7         -5.1890    3.5380    4.0460 c3        1 3LX     -0.079400
      9 C8         -5.9580    3.5580    5.3500 c3        1 3LX     -0.079400
     10 C9         -6.9320    4.7160    5.3960 c3        1 3LX     -0.079400
     11 C10        -7.7010    4.7350    6.7000 c3        1 3LX     -0.079400
     12 C11        -8.6740    5.8930    6.7470 c3        1 3LX     -0.079400
     13 C12        -9.4440    5.9140    8.0500 c3        1 3LX     -0.080400
     14 C13       -10.4140    7.0660    8.1010 c3        1 3LX     -0.092100
     15 H1         -0.6640    0.0950   -0.8380 h4        1 3LX      0.024200
     16 H2         -1.2960   -0.9390    1.4250 hc        1 3LX      0.069700
     17 H3         -0.0210    0.0990    2.1800 hc        1 3LX      0.069700
     18 H4         -2.4230    1.1060    0.4890 hc        1 3LX      0.045200
     19 H5         -1.1470    2.1520    1.2260 hc        1 3LX      0.045200
     20 H6         -3.0290    0.2380    2.7750 hc        1 3LX      0.042200
     21 H7         -1.7540    1.2840    3.5100 hc        1 3LX      0.042200
     22 H8         -4.1640    2.2830    1.8380 hc        1 3LX      0.041200
     23 H9         -2.8890    3.3280    2.5740 hc        1 3LX      0.041200
     24 H10        -3.4970    2.4590    4.8590 hc        1 3LX      0.040200
     25 H11        -4.7720    1.4150    4.1230 hc        1 3LX      0.040200
     26 H12        -5.9070    3.4600    3.1880 hc        1 3LX      0.040200
     27 H13        -4.6320    4.5040    3.9240 hc        1 3LX      0.040200
     28 H14        -5.2400    3.6360    6.2090 hc        1 3LX      0.039700
     29 H15        -6.5160    2.5920    5.4720 hc        1 3LX      0.039700
     30 H16        -7.6500    4.6380    4.5380 hc        1 3LX      0.039700
     31 H17        -6.3740    5.6810    5.2740 hc        1 3LX      0.039700
     32 H18        -6.9830    4.8130    7.5590 hc        1 3LX      0.039700
     33 H19        -8.2590    3.7700    6.8220 hc        1 3LX      0.039700
     34 H20        -9.3920    5.8160    5.8880 hc        1 3LX      0.039700
     35 H21        -8.1160    6.8590    6.6250 hc        1 3LX      0.039700
     36 H22        -8.7240    5.9900    8.9080 hc        1 3LX      0.038700
     37 H23       -10.0000    4.9470    8.1710 hc        1 3LX      0.038700
     38 H24       -11.1550    6.9950    7.2690 hc        1 3LX      0.032700
     39 H25       -10.9700    7.0630    9.0700 hc        1 3LX      0.032700
     40 H26        -9.8760    8.0400    8.0080 hc        1 3LX      0.032700
@<TRIPOS>BOND
     1    1    2 2   
     2    1    3 1   
     3    1   15 1   
     4    3    4 1   
     5    3   16 1   
     6    3   17 1   
     7    4    5 1   
     8    4   18 1   
     9    4   19 1   
    10    5    6 1   
    11    5   20 1   
    12    5   21 1   
    13    6    7 1   
    14    6   22 1   
    15    6   23 1   
    16    7    8 1   
    17    7   24 1   
    18    7   25 1   
    19    8    9 1   
    20    8   26 1   
    21    8   27 1   
    22    9   10 1   
    23    9   28 1   
    24    9   29 1   
    25   10   11 1   
    26   10   30 1   
    27   10   31 1   
    28   11   12 1   
    29   11   32 1   
    30   11   33 1   
    31   12   13 1   
    32   12   34 1   
    33   12   35 1   
    34   13   14 1   
    35   13   36 1   
    36   13   37 1   
    37   14   38 1   
    38   14   39 1   
    39   14   40 1   
@<TRIPOS>SUBSTRUCTURE
     1 3LX         1 TEMP              0 ****  ****    0 ROOT
