@<TRIPOS>MOLECULE
3LZ
   47    47     1     0     0
SMALL
bcc


@<TRIPOS>ATOM
      1 C18        -1.1580   -0.4430    0.1160 c2        1 3LZ     -0.201000
      2 N5          5.2880    0.2160   -0.8600 na        1 3LZ     -0.137000
      3 C14        10.7420   -3.6880   -2.0290 c1        1 3LZ      0.213000
      4 C13         9.7290   -4.4550   -2.3990 c2        1 3LZ     -0.453000
      5 C12         8.3570   -4.3570   -1.9780 c2        1 3LZ     -0.015000
      6 C17         0.0080    0.1530   -0.2970 c2        1 3LZ     -0.084000
      7 C15         9.5180   -1.7620   -0.9370 c2        1 3LZ     -0.113000
      8 C11         7.7590   -3.2310   -1.5050 c2        1 3LZ     -0.535000
      9 C22         2.3560    0.7620    4.7650 c1        1 3LZ     -0.095000
     10 C6          4.7150   -1.0400   -0.6390 c2        1 3LZ      0.172000
     11 C1          5.3910   -2.2240   -0.8930 c1        1 3LZ     -0.927000
     12 C4          4.3430    1.1980   -0.5280 c2        1 3LZ     -0.133000
     13 C19        -1.4230   -0.6770    1.5090 c1        1 3LZ     -0.113000
     14 C21         0.7070    0.3080    2.0460 c2        1 3LZ     -0.086000
     15 C2          3.3980   -0.8640   -0.1320 c2        1 3LZ     -0.192000
     16 C3          3.1590    0.5310   -0.0760 c2        1 3LZ      0.057000
     17 O8          2.0790    1.2760    0.3280 os        1 3LZ     -0.159000
     18 C9          0.9500    0.5380    0.7000 c2        1 3LZ     -0.065000
     19 N16         8.3470   -1.9660   -1.4200 n2        1 3LZ     -0.139000
     20 N20        -0.4860   -0.2910    2.3970 n7        1 3LZ     -0.109000
     21 C23         2.0060    0.1570    6.0200 c3        1 3LZ     -0.308000
     22 C24         5.0010    3.1250   -1.7850 c2        1 3LZ      0.286000
     23 O25         5.7940    2.6320   -2.5910 o         1 3LZ     -0.246000
     24 N26         4.7050    4.6180   -2.0780 ny        1 3LZ     -0.105000
     25 C27         5.2420    5.5200   -1.0420 c3        1 3LZ     -0.197000
     26 H1          0.2380    0.3450   -1.3550 ha        1 3LZ      0.142000
     27 H4          7.7590   -5.2790   -2.0970 ha        1 3LZ      0.141000
     28 H5         -1.9310   -0.7640   -0.5970 ha        1 3LZ      0.165000
     29 H6         10.1880   -2.4940   -0.4350 h4        1 3LZ      0.136000
     30 H7          1.4220    0.5870    2.8600 h4        1 3LZ      0.224000
     31 H8          3.2710    1.3730    4.7340 ha        1 3LZ      0.049000
     32 H9          6.1680    0.3870   -1.2840 hn        1 3LZ      0.276000
     33 H10        -0.6640   -0.4490    3.3680 hn        1 3LZ      0.262000
     34 H11         2.7110   -1.6600    0.1450 ha        1 3LZ      0.186000
     35 H13         1.9090   -0.9540    5.8570 hc        1 3LZ      0.124333
     36 H14         0.9800    0.5250    6.3060 hc        1 3LZ      0.124333
     37 H15         2.6980    0.3310    6.8820 hc        1 3LZ      0.124333
     38 H16         3.6950    4.7500   -2.1750 hn        1 3LZ      0.256000
     39 H17         4.6990    5.3600   -0.0720 hx        1 3LZ      0.147000
     40 H18         5.1100    6.5880   -1.3670 hx        1 3LZ      0.147000
     41 H19         6.3360    5.3070   -0.8950 hx        1 3LZ      0.147000
     42 N7          4.5360    2.5900   -0.5940 ns        1 3LZ     -0.155000
     43 H2          9.8990   -0.7240   -0.9590 h4        1 3LZ      0.136000
     44 H12         3.8150    3.0820   -0.0940 hn        1 3LZ      0.260000
     45 H262        5.1500    4.8270   -2.9830 hn        1 3LZ      0.256000
     46 S10         6.0750   -3.3840   -1.1550 ss        1 3LZ      1.335000
     47 H3          9.9530   -5.2770   -3.1160 ha        1 3LZ      0.203000
@<TRIPOS>BOND
     1    1    6 1   
     2    1   13 1   
     3    1   28 1   
     4    2   10 1   
     5    2   12 1   
     6    2   32 1   
     7    3    4 1   
     8    4    5 1   
     9    4   47 1   
    10    5    8 1   
    11    5   27 1   
    12    6   18 1   
    13    6   26 1   
    14    7   19 1   
    15    7   29 1   
    16    7   43 1   
    17    8   19 1   
    18    8   46 1   
    19    9   21 1   
    20    9   31 1   
    21   10   11 1   
    22   10   15 1   
    23   11   46 1   
    24   12   16 1   
    25   12   42 1   
    26   13   20 1   
    27   14   18 1   
    28   14   20 1   
    29   14   30 1   
    30   15   16 1   
    31   15   34 1   
    32   16   17 1   
    33   17   18 1   
    34   20   33 1   
    35   21   35 1   
    36   21   36 1   
    37   21   37 1   
    38   22   23 1   
    39   22   24 1   
    40   22   42 1   
    41   24   25 1   
    42   24   38 1   
    43   24   45 1   
    44   25   39 1   
    45   25   40 1   
    46   25   41 1   
    47   42   44 1   
@<TRIPOS>SUBSTRUCTURE
     1 3LZ         1 TEMP              0 ****  ****    0 ROOT
