@<TRIPOS>MOLECULE
3LZ
   47    46     1     0     0
SMALL
bcc


@<TRIPOS>ATOM
      1 C18         0.5640   -0.6980    2.1480 c2        1 3LZ     -0.182000
      2 N5          6.2920    1.3110   -1.0570 n3        1 3LZ     -0.112000
      3 C14         8.7710   -5.7700   -2.0610 c1        1 3LZ      0.187000
      4 C13         8.2300   -5.4470   -3.2240 c2        1 3LZ     -0.429000
      5 C12         7.8920   -4.1340   -3.7030 c2        1 3LZ     -0.085000
      6 C17         1.2560   -0.0820    1.1300 c2        1 3LZ     -0.086000
      7 C15         8.4010   -3.6140   -0.7500 c2        1 3LZ     -0.093000
      8 C11         7.6280   -3.0600   -2.9110 c2        1 3LZ     -0.278000
      9 C22         2.1190    0.2340    6.4500 c1        1 3LZ     -0.079000
     10 C6          6.5880    0.3800   -1.9800 c1        1 3LZ     -0.081000
     11 C1          6.8600   -0.5150   -2.7570 c1        1 3LZ     -0.424000
     12 C4          4.9110    1.6170   -0.8630 c2        1 3LZ     -0.089000
     13 C19         0.9150   -0.4720    3.5190 c1        1 3LZ     -0.177000
     14 C21         2.6510    1.0020    2.8280 c2        1 3LZ     -0.065000
     15 C2          4.9850    0.6140    1.3890 c1        1 3LZ      0.049000
     16 C3          4.2860    1.1820    0.3000 c2        1 3LZ      0.062000
     17 O8          2.9490    1.5120    0.4660 os        1 3LZ     -0.156000
     18 C9          2.3190    0.7870    1.4930 c2        1 3LZ     -0.111000
     19 N16         7.5390   -3.0550   -1.5160 n2        1 3LZ     -0.148000
     20 N20         1.9340    0.3560    3.8020 n3        1 3LZ     -0.153000
     21 C23         0.7920   -0.1260    6.8290 c3        1 3LZ     -0.319000
     22 C24         4.6810    3.6340   -2.1790 c2        1 3LZ      0.311000
     23 O25         5.8200    4.0940   -2.0470 o         1 3LZ     -0.259000
     24 N26         3.7620    4.5570   -3.0150 n4        1 3LZ     -0.102000
     25 C27         2.6130    5.0510   -2.2320 c3        1 3LZ     -0.198000
     26 H1          1.0180   -0.2310    0.0680 ha        1 3LZ      0.141000
     27 H4          7.8150   -4.0300   -4.8010 ha        1 3LZ      0.149000
     28 H5         -0.2730   -1.3810    1.9440 ha        1 3LZ      0.162000
     29 H6          9.3700   -4.0830   -1.0330 h4        1 3LZ      0.140000
     30 H7          3.4850    1.6640    3.1250 h4        1 3LZ      0.179000
     31 H8          2.9530    0.0970    7.1480 ha        1 3LZ      0.084000
     32 H9          6.8810    2.1300   -1.0980 hn        1 3LZ      0.233000
     33 H10         2.1700    0.4900    4.8630 hn        1 3LZ      0.340000
     34 H11         5.5290   -0.3320    1.3720 ha        1 3LZ      0.156000
     35 H13         0.4240   -0.8560    6.0340 hc        1 3LZ      0.151333
     36 H14         0.1220    0.7740    6.7110 hc        1 3LZ      0.151333
     37 H15         0.6470   -0.5600    7.8470 hc        1 3LZ      0.151333
     38 H16         3.4360    4.0650   -3.8530 hn        1 3LZ      0.259500
     39 H17         1.9340    4.1980   -1.9640 hx        1 3LZ      0.149000
     40 H18         2.0400    5.8020   -2.8410 hx        1 3LZ      0.149000
     41 H19         2.9860    5.5420   -1.2920 hx        1 3LZ      0.149000
     42 N7          4.1970    2.4010   -1.8240 n         1 3LZ     -0.225000
     43 H2          8.1980   -3.5870    0.3380 h4        1 3LZ      0.140000
     44 H12         3.2130    2.2170   -1.8630 hn        1 3LZ      0.263000
     45 H262        4.3490    5.3510   -3.3130 hn        1 3LZ      0.259500
     46 S10         7.2200   -1.6280   -3.7820 ss        1 3LZ      0.633000
     47 H3          8.0110   -6.2810   -3.9280 ha        1 3LZ      0.200000
@<TRIPOS>BOND
     1    1    6 1   
     2    1   13 1   
     3    1   28 1   
     4    2   10 1   
     5    2   12 1   
     6    2   32 1   
     7    3    4 1   
     8    4    5 1   
     9    4   47 1   
    10    5    8 1   
    11    5   27 1   
    12    6   18 1   
    13    6   26 1   
    14    7   19 1   
    15    7   29 1   
    16    7   43 1   
    17    8   19 1   
    18    8   46 1   
    19    9   21 1   
    20    9   31 1   
    21   10   11 1   
    22   11   46 1   
    23   12   16 1   
    24   12   42 1   
    25   13   20 1   
    26   14   18 1   
    27   14   20 1   
    28   14   30 1   
    29   15   16 1   
    30   15   34 1   
    31   16   17 1   
    32   17   18 1   
    33   20   33 1   
    34   21   35 1   
    35   21   36 1   
    36   21   37 1   
    37   22   23 1   
    38   22   24 1   
    39   22   42 1   
    40   24   25 1   
    41   24   38 1   
    42   24   45 1   
    43   25   39 1   
    44   25   40 1   
    45   25   41 1   
    46   42   44 1   
@<TRIPOS>SUBSTRUCTURE
     1 3LZ         1 TEMP              0 ****  ****    0 ROOT
