@<TRIPOS>MOLECULE
3LZ
   46    46     1     0     0
SMALL
bcc


@<TRIPOS>ATOM
      1 C18         0.7750   -0.7270   -0.8110 c1        1 3LZ     -0.030000
      2 N5          5.4860    1.2820   -1.7040 n2        1 3LZ     -0.310000
      3 C14         9.8800   -4.3690   -0.4350 c2        1 3LZ     -0.191000
      4 C13         9.0430   -4.9690   -1.3430 c2        1 3LZ     -0.085000
      5 C12         7.6920   -4.5370   -1.4370 c2        1 3LZ     -0.147000
      6 C17         1.2330    0.4850   -0.1710 c3        1 3LZ     -0.236000
      7 C15         9.4040   -3.3060    0.4080 c1        1 3LZ     -0.128000
      8 C11         7.2320   -3.5320   -0.6020 c2        1 3LZ     -0.251000
      9 C22         2.2760   -0.1490    3.5560 c3        1 3LZ     -0.124000
     10 C6          6.1860    1.1040   -2.6450 c1        1 3LZ      0.206000
     11 C1          5.4810   -1.5050   -0.3920 c2        1 3LZ     -0.360000
     12 C4          4.6460    1.5350   -0.6360 c2        1 3LZ      0.216000
     13 C19        -1.0220   -0.7200    2.5380 c1        1 3LZ      0.147000
     14 C21         1.4430   -0.0560    2.3070 c2        1 3LZ      0.034000
     15 C2          4.3140   -0.9220   -0.0770 c2        1 3LZ     -0.112000
     16 C3          4.0920    0.4970    0.0910 c2        1 3LZ     -0.042000
     17 O8          3.2790    0.8600    1.1770 os        1 3LZ     -0.176000
     18 C9          1.9650    0.3860    1.1220 c2        1 3LZ     -0.035000
     19 S10         5.5650   -3.1640   -0.6590 ss        1 3LZ      0.406000
     20 N16         8.1200   -2.9430    0.2960 n3        1 3LZ     -0.098000
     21 N20         0.1140   -0.4110    2.4020 n2        1 3LZ     -0.305000
     22 C23         1.8750    0.8740    4.5890 c3        1 3LZ     -0.210000
     23 C24         4.0560    3.8700   -1.2150 c2        1 3LZ      0.371000
     24 O25         3.9310    3.5860   -2.4260 o         1 3LZ     -0.362000
     25 N26         3.7860    5.1630   -0.7350 n         1 3LZ     -0.350000
     26 C27         3.6720    6.2310   -1.6870 c3        1 3LZ     -0.088000
     27 H1          0.3180    1.1400   -0.0340 hc        1 3LZ      0.173000
     28 H3          7.0170   -5.0000   -2.1710 ha        1 3LZ      0.155000
     29 H4          9.3850   -5.7750   -2.0100 ha        1 3LZ      0.140000
     30 H5          1.8720    1.0200   -0.9410 hc        1 3LZ      0.173000
     31 H6          7.7780   -2.2130    0.8850 hn        1 3LZ      0.253000
     32 H7          3.3550   -0.0010    3.2780 hc        1 3LZ      0.106000
     33 H8          2.1810   -1.1820    3.9900 hc        1 3LZ      0.106000
     34 H9          6.3960   -0.9060   -0.5180 h4        1 3LZ      0.155000
     35 H10         1.0130   -1.6830   -0.3210 ha        1 3LZ      0.045000
     36 H11         3.4100   -1.5370    0.1080 ha        1 3LZ      0.143000
     37 H13         1.9500    1.9070    4.1720 hc        1 3LZ      0.080000
     38 H14         2.5510    0.8000    5.4750 hc        1 3LZ      0.080000
     39 H15         0.8260    0.7090    4.9340 hc        1 3LZ      0.080000
     40 H16         4.1670    5.4180    0.1480 hn        1 3LZ      0.215000
     41 H17         3.0650    7.0500   -1.2160 h1        1 3LZ      0.091667
     42 H18         4.6750    6.6410   -1.9830 h1        1 3LZ      0.091667
     43 H19         3.1500    5.8640   -2.6110 h1        1 3LZ      0.091667
     44 N7          4.4420    2.8880   -0.2580 n         1 3LZ     -0.324000
     45 H2         10.9310   -4.6660   -0.3190 ha        1 3LZ      0.157000
     46 H12         4.0890    2.9870    0.6720 hn        1 3LZ      0.246000
@<TRIPOS>BOND
     1    1    6 1   
     2    1   35 1   
     3    2   10 1   
     4    2   12 1   
     5    3    4 1   
     6    3    7 1   
     7    3   45 1   
     8    4    5 1   
     9    4   29 1   
    10    5    8 1   
    11    5   28 1   
    12    6   18 1   
    13    6   27 1   
    14    6   30 1   
    15    7   20 1   
    16    8   19 1   
    17    8   20 1   
    18    9   14 1   
    19    9   22 1   
    20    9   32 1   
    21    9   33 1   
    22   11   15 1   
    23   11   19 1   
    24   11   34 1   
    25   12   16 1   
    26   12   44 1   
    27   13   21 1   
    28   14   18 1   
    29   14   21 1   
    30   15   16 1   
    31   15   36 1   
    32   16   17 1   
    33   17   18 1   
    34   20   31 1   
    35   22   37 1   
    36   22   38 1   
    37   22   39 1   
    38   23   24 1   
    39   23   25 1   
    40   23   44 1   
    41   25   26 1   
    42   25   40 1   
    43   26   41 1   
    44   26   42 1   
    45   26   43 1   
    46   44   46 1   
@<TRIPOS>SUBSTRUCTURE
     1 3LZ         1 TEMP              0 ****  ****    0 ROOT
