@<TRIPOS>MOLECULE
3M0
   20    20     1     0     0
SMALL
bcc


@<TRIPOS>ATOM
      1 OAC         0.1440   -0.7750    0.1650 oh        1 3M0     -0.590100
      2 CAH         1.1030    0.1580   -0.1270 c         1 3M0      0.641700
      3 OAD         1.2200    1.0220    0.7420 o         1 3M0     -0.486000
      4 CAK         1.8620    0.0450   -1.3860 ca        1 3M0     -0.244600
      5 CAG         3.2580    0.0540   -1.3160 ca        1 3M0     -0.043000
      6 CAE         4.0210   -0.0500   -2.4720 ca        1 3M0     -0.178000
      7 CAF         3.3860   -0.1470   -3.7100 ca        1 3M0     -0.066000
      8 CAI         1.9970   -0.1360   -3.8170 ca        1 3M0     -0.145300
      9 CAA         1.3610   -0.2290   -5.1520 c3        1 3M0     -0.050800
     10 CAJ         1.2020   -0.0390   -2.6390 ca        1 3M0      0.183600
     11 NAB        -0.1890   -0.0960   -2.7060 nh        1 3M0     -0.837200
     12 H2          3.7440    0.1480   -0.3310 ha        1 3M0      0.150000
     13 H3          5.1190   -0.0500   -2.4130 ha        1 3M0      0.142000
     14 H4          3.9950   -0.2270   -4.6250 ha        1 3M0      0.136000
     15 H5          0.7030   -1.1320   -5.2150 hc        1 3M0      0.045367
     16 H6          0.7370    0.6780   -5.3570 hc        1 3M0      0.045367
     17 H7          2.1310   -0.3050   -5.9580 hc        1 3M0      0.045367
     18 H8         -0.6710    0.3050   -1.9310 hn        1 3M0      0.407800
     19 H9          0.1740   -1.4980   -0.4780 ho        1 3M0      0.437000
     20 HAB3       -0.5830    0.1340   -3.5910 hn        1 3M0      0.407800
@<TRIPOS>BOND
     1    1    2 1   
     2    1   19 1   
     3    2    3 2   
     4    2    4 1   
     5    4    5 ar  
     6    4   10 ar  
     7    5    6 ar  
     8    5   12 1   
     9    6    7 ar  
    10    6   13 1   
    11    7    8 ar  
    12    7   14 1   
    13    8    9 1   
    14    8   10 ar  
    15    9   15 1   
    16    9   16 1   
    17    9   17 1   
    18   10   11 1   
    19   11   18 1   
    20   11   20 1   
@<TRIPOS>SUBSTRUCTURE
     1 3M0         1 TEMP              0 ****  ****    0 ROOT
