@<TRIPOS>MOLECULE
3M0
   19    19     1     0     0
SMALL
bcc


@<TRIPOS>ATOM
      1 OAC         0.0170    0.3550    0.1330 o         1 3M0     -0.837800
      2 CAH         1.2240   -0.0300    0.0750 c         1 3M0      0.913200
      3 OAD         1.8920   -0.3640    1.0930 o         1 3M0     -0.837800
      4 CAK         1.9250   -0.0590   -1.2760 ca        1 3M0     -0.172600
      5 CAG         3.3030    0.1440   -1.2900 ca        1 3M0     -0.082000
      6 CAE         4.0130    0.2070   -2.4890 ca        1 3M0     -0.200000
      7 CAF         3.3370    0.0670   -3.6940 ca        1 3M0     -0.120000
      8 CAI         1.9580   -0.1580   -3.7210 ca        1 3M0     -0.171300
      9 CAA         1.2690   -0.3060   -5.0240 c3        1 3M0     -0.026800
     10 CAJ         1.2320   -0.2460   -2.5020 ca        1 3M0      0.156600
     11 NAB        -0.1270   -0.5950   -2.5240 nh        1 3M0     -0.816200
     12 H2          3.8180    0.2530   -0.3220 ha        1 3M0      0.146000
     13 H3          5.0990    0.3720   -2.4800 ha        1 3M0      0.103000
     14 H4          3.8900    0.1310   -4.6430 ha        1 3M0      0.098000
     15 H5          0.4910    0.4890   -5.1530 hc        1 3M0      0.022700
     16 H6          1.9900   -0.2240   -5.8750 hc        1 3M0      0.022700
     17 H7          0.7620   -1.3020   -5.0910 hc        1 3M0      0.022700
     18 H8         -0.6290   -0.1120   -3.2400 hn        1 3M0      0.390800
     19 H9         -0.5670   -0.4910   -1.6240 hn        1 3M0      0.390800
@<TRIPOS>BOND
     1    1    2 1   
     2    2    3 1   
     3    2    4 1   
     4    4    5 ar  
     5    4   10 ar  
     6    5    6 ar  
     7    5   12 1   
     8    6    7 ar  
     9    6   13 1   
    10    7    8 ar  
    11    7   14 1   
    12    8    9 1   
    13    8   10 ar  
    14    9   15 1   
    15    9   16 1   
    16    9   17 1   
    17   10   11 1   
    18   11   18 1   
    19   11   19 1   
@<TRIPOS>SUBSTRUCTURE
     1 3M0         1 TEMP              0 ****  ****    0 ROOT
