@<TRIPOS>MOLECULE
3M0
   19    19     1     0     0
SMALL
bcc


@<TRIPOS>ATOM
      1 OAC         0.0230    0.3670    0.1340 o         1 3M0     -0.837800
      2 CAH         1.2260   -0.0290    0.0740 c         1 3M0      0.913200
      3 OAD         1.8920   -0.3690    1.0910 o         1 3M0     -0.837800
      4 CAK         1.9260   -0.0630   -1.2770 ca        1 3M0     -0.172600
      5 CAG         3.3060    0.1270   -1.2920 ca        1 3M0     -0.082000
      6 CAE         4.0160    0.1850   -2.4910 ca        1 3M0     -0.200000
      7 CAF         3.3380    0.0510   -3.6960 ca        1 3M0     -0.120000
      8 CAI         1.9580   -0.1620   -3.7220 ca        1 3M0     -0.171300
      9 CAA         1.2660   -0.3040   -5.0240 c3        1 3M0     -0.026800
     10 CAJ         1.2310   -0.2440   -2.5020 ca        1 3M0      0.156600
     11 NAB        -0.1310   -0.5810   -2.5250 nv        1 3M0     -0.816200
     12 H2          3.8230    0.2320   -0.3240 ha        1 3M0      0.146000
     13 H3          5.1030    0.3400   -2.4820 ha        1 3M0      0.103000
     14 H4          3.8910    0.1100   -4.6450 ha        1 3M0      0.098000
     15 H5          0.7510   -1.2940   -5.0920 hc        1 3M0      0.022700
     16 H6          0.4950    0.4980   -5.1530 hc        1 3M0      0.022700
     17 H7          1.9870   -0.2270   -5.8760 hc        1 3M0      0.022700
     18 H8         -0.5690   -0.4730   -1.6240 hn        1 3M0      0.390800
     19 H9         -0.6290   -0.0930   -3.2390 hn        1 3M0      0.390800
@<TRIPOS>BOND
     1    1    2 1   
     2    2    3 1   
     3    2    4 1   
     4    4    5 ar  
     5    4   10 ar  
     6    5    6 ar  
     7    5   12 1   
     8    6    7 ar  
     9    6   13 1   
    10    7    8 ar  
    11    7   14 1   
    12    8    9 1   
    13    8   10 ar  
    14    9   15 1   
    15    9   16 1   
    16    9   17 1   
    17   10   11 1   
    18   11   18 1   
    19   11   19 1   
@<TRIPOS>SUBSTRUCTURE
     1 3M0         1 TEMP              0 ****  ****    0 ROOT
