@<TRIPOS>MOLECULE
3M1
   28    30     1     0     0
SMALL
bcc


@<TRIPOS>ATOM
      1 OAA         5.8970   -0.1250   -0.2740 o         1 3M1     -0.491100
      2 OAB        -0.4170    0.4250    2.8110 o         1 3M1     -0.201500
      3 OAD         1.4430   -0.6130    4.2820 oh        1 3M1     -0.441100
      4 OAE         0.1830    2.0270    1.5850 o         1 3M1     -0.201500
      5 FAF         3.9430   -1.0130   -3.0690 f         1 3M1     -0.108500
      6 CAG         0.8710   -0.6390   -3.4240 c3        1 3M1     -0.028900
      7 CAH         1.2400   -0.1320   -0.9110 c1        1 3M1      0.302200
      8 CAI         1.7180   -0.3820   -2.2600 ce        1 3M1     -0.331300
      9 CAJ         2.3910    0.3890   -0.1530 cf        1 3M1     -0.157300
     10 CAK         4.6030   -0.1600    2.4410 c2        1 3M1     -0.193200
     11 CAL         2.7140    1.0270    1.1540 c3        1 3M1      0.057700
     12 CAM         4.7260    0.1180   -0.0040 c         1 3M1      0.605300
     13 CAN         3.7030   -0.6080    3.3350 ce        1 3M1      0.061100
     14 CAO         3.1100   -0.5150   -2.1660 ce        1 3M1      0.261500
     15 CAP         2.2880   -0.2250    3.2900 ce        1 3M1      0.235100
     16 CAQ         4.2400    0.7410    1.3270 c3        1 3M1     -0.123500
     17 CAR         3.5260   -0.0710   -0.8130 cf        1 3M1     -0.258200
     18 CAS         1.8360    0.5650    2.2690 c2        1 3M1     -0.249300
     19 NAT         0.4290    1.0310    2.2170 no        1 3M1      0.317100
     20 HOAC        4.9270   -1.6870    4.3450 ho        1 3M1      0.446000
     21 HOAD        1.9260   -1.1670    4.9210 ho        1 3M1      0.457000
     22 HAG         1.4580   -1.1190   -4.2470 hc        1 3M1      0.056033
     23 HAH         0.0210   -1.3130   -3.1470 hc        1 3M1      0.056033
     24 HAI         0.4420    0.3210   -3.8080 hc        1 3M1      0.056033
     25 HAJ         2.5770    2.1470    1.0390 hc        1 3M1      0.119700
     26 HAK         5.6670   -0.4460    2.4900 ha        1 3M1      0.162000
     27 HAL         4.7800    1.7200    1.4660 hc        1 3M1      0.105700
     28 OAC         3.9920   -1.4380    4.3970 oh        1 3M1     -0.513100
@<TRIPOS>BOND
     1    1   12 2   
     2    2   19 1   
     3    3   15 1   
     4    3   21 1   
     5    4   19 1   
     6    5   14 1   
     7    6    8 1   
     8    6   22 1   
     9    6   23 1   
    10    6   24 1   
    11    7    8 2   
    12    7    9 2   
    13    8   14 1   
    14    9   11 1   
    15    9   17 1   
    16   10   13 2   
    17   10   16 1   
    18   10   26 1   
    19   11   16 1   
    20   11   18 1   
    21   11   25 1   
    22   12   16 1   
    23   12   17 1   
    24   13   15 1   
    25   13   28 1   
    26   14   17 2   
    27   15   18 2   
    28   16   27 1   
    29   18   19 1   
    30   20   28 1   
@<TRIPOS>SUBSTRUCTURE
     1 3M1         1 TEMP              0 ****  ****    0 ROOT
