@<TRIPOS>MOLECULE
3M1
   28    24     1     0     0
SMALL
bcc


@<TRIPOS>ATOM
      1 OAA        -2.1000    0.7230   -0.6160 o         1 3M1     -0.254000
      2 OAB        -1.8300   -3.6060    2.0070 o         1 3M1     -0.475700
      3 OAC         0.9560    1.2960    3.7530 oh        1 3M1     -0.265000
      4 OAD         0.1990   -1.2850    4.5510 oh        1 3M1     -0.194000
      5 OAE        -0.6260   -3.5280    3.8970 o         1 3M1     -0.475700
      6 FAF         2.2870    0.0960   -1.5990 f         1 3M1     -0.086000
      7 CAG         0.7480    1.2700   -4.4900 c1        1 3M1     -0.118000
      8 CAH        -0.5600    1.5520   -4.1300 c1        1 3M1     -0.118000
      9 CAI         1.6250    0.7380   -3.5580 c1        1 3M1     -0.175000
     10 CAJ        -0.9920    1.3010   -2.8370 c1        1 3M1     -0.080000
     11 CAK         0.4020    0.7430    1.4790 c1        1 3M1     -0.092000
     12 CAL        -0.7000   -1.3290    0.9760 c1        1 3M1     -0.010000
     13 CAM        -0.9070    0.4950   -0.6450 c1        1 3M1      0.315000
     14 CAN         0.5460    0.3460    2.7990 c1        1 3M1     -0.036000
     15 CAO         1.1930    0.4870   -2.2650 c2        1 3M1      0.140000
     16 CAP         0.0670   -0.8880    3.2080 c2        1 3M1      0.164000
     17 CAQ        -0.2200   -0.0950    0.5670 c1        1 3M1     -0.165000
     18 CAR        -0.1150    0.7680   -1.9050 c2        1 3M1     -0.185000
     19 CAS        -0.5560   -1.7260    2.2960 c2        1 3M1     -0.167000
     20 NAT        -1.0450   -2.9910    2.7140 no        1 3M1      0.844400
     21 HOAC        1.8440    1.3090    3.7960 ho        1 3M1      0.238000
     22 HOAD       -0.3270   -0.7820    5.0620 ho        1 3M1      0.251000
     23 HAG         1.0530    1.4470   -5.4010 ha        1 3M1      0.144500
     24 HAH        -1.1770    1.9260   -4.7870 ha        1 3M1      0.144500
     25 HAI         2.5470    0.5400   -3.8120 ha        1 3M1      0.157000
     26 HAJ        -1.9130    1.4990   -2.5830 ha        1 3M1      0.146000
     27 HAK         0.7400    1.6130    1.1910 ha        1 3M1      0.157000
     28 HAL        -1.1380   -1.9190    0.3340 ha        1 3M1      0.197000
@<TRIPOS>BOND
     1    1   13 1   
     2    2   20 2   
     3    3   14 1   
     4    3   21 1   
     5    4   16 1   
     6    4   22 1   
     7    5   20 2   
     8    6   15 1   
     9    7    8 1   
    10    7   23 1   
    11    8   24 1   
    12    9   15 1   
    13    9   25 1   
    14   10   18 1   
    15   10   26 1   
    16   11   17 1   
    17   11   27 1   
    18   12   19 1   
    19   12   28 1   
    20   13   18 1   
    21   14   16 1   
    22   15   18 1   
    23   16   19 1   
    24   19   20 1   
@<TRIPOS>SUBSTRUCTURE
     1 3M1         1 TEMP              0 ****  ****    0 ROOT
