@<TRIPOS>MOLECULE
3M1
   28    29     1     0     0
SMALL
bcc


@<TRIPOS>ATOM
      1 OAA        -1.0290    2.1850    1.0890 o         1 3M1     -0.497100
      2 OAB         4.7290    0.4000   -0.7050 o         1 3M1     -0.210000
      3 OAD         3.4040   -1.9730   -0.8950 oh        1 3M1     -0.511100
      4 OAE         3.7090    2.1930   -0.3060 o         1 3M1     -0.210000
      5 FAF        -3.2920    0.9290    2.4050 f         1 3M1     -0.120900
      6 CAG        -4.9900   -0.4940   -0.4920 ca        1 3M1     -0.081000
      7 CAH        -3.9670   -0.4630   -1.4420 ca        1 3M1     -0.152000
      8 CAI        -4.7660   -0.0300    0.7980 ca        1 3M1     -0.175000
      9 CAJ        -2.7130    0.0330   -1.1000 ca        1 3M1     -0.076000
     10 CAK        -0.0210   -1.0790   -0.0710 ca        1 3M1     -0.060000
     11 CAL         1.2810    0.9640    0.0230 ca        1 3M1     -0.022000
     12 CAM        -1.1390    1.0910    0.5250 c         1 3M1      0.595300
     13 CAN         1.1270   -1.7940   -0.4080 ca        1 3M1      0.080100
     14 CAO        -3.4990    0.4830    1.1470 ca        1 3M1      0.177900
     15 CAP         2.3830   -1.1400   -0.5450 ca        1 3M1      0.159100
     16 CAQ         0.0590    0.3050    0.1400 ca        1 3M1     -0.178600
     17 CAR        -2.4590    0.5120    0.1910 ca        1 3M1     -0.206600
     18 CAS         2.4460    0.2520   -0.3270 ca        1 3M1     -0.242200
     19 NAT         3.7140    1.0040   -0.4530 no        1 3M1      0.325200
     20 HOAC        1.8600   -3.5270   -0.7810 ho        1 3M1      0.446000
     21 HOAD        4.2620   -1.5150   -0.8930 ho        1 3M1      0.482000
     22 HAG        -5.9820   -0.8870   -0.7640 ha        1 3M1      0.144000
     23 HAH        -4.1520   -0.8290   -2.4630 ha        1 3M1      0.145000
     24 HAI        -5.5640   -0.0490    1.5550 ha        1 3M1      0.156000
     25 HAJ        -1.9070    0.0580   -1.8500 ha        1 3M1      0.145000
     26 HAK        -0.9790   -1.6150    0.0300 ha        1 3M1      0.175000
     27 HAL         1.3330    2.0540    0.2130 ha        1 3M1      0.194000
     28 OAC         0.9840   -3.1450   -0.6110 oh        1 3M1     -0.486100
@<TRIPOS>BOND
     1    1   12 2   
     2    2   19 1   
     3    3   15 1   
     4    3   21 1   
     5    4   19 1   
     6    5   14 1   
     7    6    7 ar  
     8    6    8 ar  
     9    6   22 1   
    10    7    9 ar  
    11    7   23 1   
    12    8   14 ar  
    13    8   24 1   
    14    9   17 ar  
    15    9   25 1   
    16   10   13 ar  
    17   10   16 ar  
    18   10   26 1   
    19   11   16 ar  
    20   11   18 ar  
    21   11   27 1   
    22   12   16 1   
    23   12   17 1   
    24   13   15 ar  
    25   13   28 1   
    26   14   17 ar  
    27   15   18 ar  
    28   18   19 1   
    29   20   28 1   
@<TRIPOS>SUBSTRUCTURE
     1 3M1         1 TEMP              0 ****  ****    0 ROOT
