@<TRIPOS>MOLECULE
3M1
   28    29     1     0     0
SMALL
bcc


@<TRIPOS>ATOM
      1 OAA         5.0490   -0.8520   -0.2110 o         1 3M1     -0.277000
      2 OAB        -0.4140    0.1980    2.4480 o         1 3M1     -0.471200
      3 OAD         2.0080   -0.1240    4.9550 oh        1 3M1     -0.221000
      4 OAE         0.0700    1.9620    3.4890 o         1 3M1     -0.471200
      5 FAF         3.9660   -1.6330   -2.5880 f         1 3M1     -0.075000
      6 CAG         0.9970   -1.4410   -3.7210 c3        1 3M1     -0.259000
      7 CAH         1.8410    1.3260    0.3160 c1        1 3M1     -0.152000
      8 CAI         1.9460   -0.4940   -3.2280 c1        1 3M1     -0.010000
      9 CAJ         2.1170    1.1630   -0.9690 c2        1 3M1     -0.040000
     10 CAK         4.6150    0.0970    2.3440 c2        1 3M1     -0.183000
     11 CAL         2.4330    0.9560    1.4480 c2        1 3M1     -0.005000
     12 CAM         4.0700   -0.1100   -0.0870 c2        1 3M1      0.274000
     13 CAN         4.0010   -0.1610    3.5160 c2        1 3M1      0.022000
     14 CAO         3.0060   -0.7290   -2.2910 c2        1 3M1      0.131000
     15 CAP         2.5870    0.1400    3.7490 c2        1 3M1      0.165000
     16 CAQ         3.9130    0.7320    1.2060 c3        1 3M1     -0.069000
     17 CAR         3.0580    0.0540   -1.1630 c2        1 3M1     -0.214000
     18 CAS         1.8410    0.6700    2.7290 c2        1 3M1     -0.137000
     19 NAT         0.3870    0.9660    2.9020 no        1 3M1      0.854400
     20 HOAC        5.5160   -0.9690    4.3710 ho        1 3M1      0.244000
     21 HOAD        2.6740   -0.5060    5.5520 ho        1 3M1      0.259000
     22 HAG        -0.0170   -1.1190   -3.3420 hc        1 3M1      0.136000
     23 HAH         0.9580   -1.3520   -4.8430 hc        1 3M1      0.136000
     24 HAI         1.1650   -2.5110   -3.4380 hc        1 3M1      0.136000
     25 HAJ         1.7800    1.7570   -1.8270 ha        1 3M1      0.184000
     26 HAK         5.6750   -0.1530    2.1700 ha        1 3M1      0.165000
     27 HAL         4.4240    1.7190    0.9870 hc        1 3M1      0.149000
     28 OAC         4.6130   -0.7200    4.6180 oh        1 3M1     -0.271000
@<TRIPOS>BOND
     1    1   12 1   
     2    2   19 2   
     3    3   15 1   
     4    3   21 1   
     5    4   19 2   
     6    5   14 1   
     7    6    8 1   
     8    6   22 1   
     9    6   23 1   
    10    6   24 1   
    11    7    9 1   
    12    7   11 1   
    13    8   14 1   
    14    9   17 1   
    15    9   25 1   
    16   10   13 1   
    17   10   16 1   
    18   10   26 1   
    19   11   16 1   
    20   11   18 1   
    21   12   16 1   
    22   12   17 1   
    23   13   15 1   
    24   13   28 1   
    25   14   17 1   
    26   15   18 1   
    27   16   27 1   
    28   18   19 1   
    29   20   28 1   
@<TRIPOS>SUBSTRUCTURE
     1 3M1         1 TEMP              0 ****  ****    0 ROOT
