@<TRIPOS>MOLECULE
3M1
   28    29     1     0     0
SMALL
bcc


@<TRIPOS>ATOM
      1 OAA         5.1310    0.4040   -0.2410 o         1 3M1     -0.277000
      2 OAB        -0.1440   -1.3690    2.4130 o         1 3M1     -0.471200
      3 OAD         2.2230   -0.7590    4.9220 oh        1 3M1     -0.221000
      4 OAE        -0.4870    0.3270    3.6120 o         1 3M1     -0.471200
      5 FAF         4.4620   -0.5860   -2.6920 f         1 3M1     -0.075000
      6 CAG         1.7030   -1.6740   -3.8480 c3        1 3M1     -0.259000
      7 CAH         1.2980    0.8310    0.4210 c1        1 3M1     -0.152000
      8 CAI         2.1300   -0.4440   -3.2630 c1        1 3M1     -0.010000
      9 CAJ         1.5850    0.9180   -0.8690 c2        1 3M1     -0.040000
     10 CAK         4.3780    0.8380    2.3790 c2        1 3M1     -0.183000
     11 CAL         2.0220    0.6800    1.5260 c2        1 3M1     -0.005000
     12 CAM         3.9250    0.6050   -0.0690 c2        1 3M1      0.274000
     13 CAN         3.9780    0.2330    3.5150 c2        1 3M1      0.022000
     14 CAO         3.2030   -0.2460   -2.3320 c2        1 3M1      0.131000
     15 CAP         2.5880   -0.1630    3.7520 c2        1 3M1      0.165000
     16 CAQ         3.4360    1.1750    1.2880 c3        1 3M1     -0.069000
     17 CAR         2.9230    0.3790   -1.1420 c2        1 3M1     -0.214000
     18 CAS         1.6570    0.0520    2.7700 c2        1 3M1     -0.137000
     19 NAT         0.2320   -0.3620    2.9460 no        1 3M1      0.854400
     20 HOAC        5.7150    0.1360    4.3210 ho        1 3M1      0.244000
     21 HOAD        3.0050   -0.8440    5.4950 ho        1 3M1      0.259000
     22 HAG         2.3470   -2.5690   -3.6540 hc        1 3M1      0.136000
     23 HAH         0.6630   -1.8820   -3.4590 hc        1 3M1      0.136000
     24 HAI         1.5990   -1.5210   -4.9590 hc        1 3M1      0.136000
     25 HAJ         0.9940    1.3620   -1.6790 ha        1 3M1      0.184000
     26 HAK         5.4300    1.1130    2.2010 ha        1 3M1      0.165000
     27 HAL         3.4350    2.3000    1.1610 hc        1 3M1      0.149000
     28 OAC         4.8040   -0.0740    4.5760 oh        1 3M1     -0.271000
@<TRIPOS>BOND
     1    1   12 1   
     2    2   19 2   
     3    3   15 1   
     4    3   21 1   
     5    4   19 2   
     6    5   14 1   
     7    6    8 1   
     8    6   22 1   
     9    6   23 1   
    10    6   24 1   
    11    7    9 1   
    12    7   11 1   
    13    8   14 1   
    14    9   17 1   
    15    9   25 1   
    16   10   13 1   
    17   10   16 1   
    18   10   26 1   
    19   11   16 1   
    20   11   18 1   
    21   12   16 1   
    22   12   17 1   
    23   13   15 1   
    24   13   28 1   
    25   14   17 1   
    26   15   18 1   
    27   16   27 1   
    28   18   19 1   
    29   20   28 1   
@<TRIPOS>SUBSTRUCTURE
     1 3M1         1 TEMP              0 ****  ****    0 ROOT
