@<TRIPOS>MOLECULE
3M2
   27    28     1     0     0
SMALL
bcc


@<TRIPOS>ATOM
      1 CAA        -2.3020   -0.2450    1.9570 c3        1 3M2      0.161100
      2 NAB        -5.0750   -1.2710    2.0630 nh        1 3M2     -0.888800
      3 OAC        -4.5880    1.2390   -1.9080 o         1 3M2     -0.509100
      4 CAG        -1.8190    0.6670   -1.0390 ce        1 3M2     -0.061200
      5 CAH         0.5270    1.3740   -0.8450 ca        1 3M2     -0.043500
      6 CAI        -0.0300   -0.9260   -0.3580 ca        1 3M2     -0.043500
      7 NAJ        -5.2690   -0.0440   -0.0140 nc        1 3M2     -0.708100
      8 CAK         2.2710   -0.1870   -0.2050 ca        1 3M2      0.193100
      9 CAL        -0.4350    0.3640   -0.7240 ca        1 3M2     -0.105800
     10 CAM         1.8710    1.1130   -0.5810 ca        1 3M2     -0.095400
     11 CAN         1.3090   -1.2150   -0.0970 ca        1 3M2     -0.095400
     12 CAO        -4.5400   -0.6320    0.9590 cd        1 3M2      0.791100
     13 CAP        -4.3380    0.5870   -0.8940 c         1 3M2      0.687700
     14 CAQ        -2.9230    0.2830   -0.3790 cd        1 3M2     -0.058200
     15 NAR        -3.0770   -0.5450    0.7800 na        1 3M2     -0.598400
     16 HAA        -2.3130   -1.1440    2.6290 h1        1 3M2      0.054367
     17 HAAA       -1.2420   -0.0380    1.6520 h1        1 3M2      0.054367
     18 HAAB       -2.6920    0.6410    2.5280 h1        1 3M2      0.054367
     19 HNAB       -6.0440   -1.4960    2.0160 hn        1 3M2      0.437800
     20 HNAA       -4.4920   -1.9150    2.5450 hn        1 3M2      0.437800
     21 HOAD        4.1260    0.2720   -0.0610 ho        1 3M2      0.439000
     22 HAG        -1.9740    1.2930   -1.9420 ha        1 3M2      0.167000
     23 HAH         0.2090    2.3860   -1.1500 ha        1 3M2      0.162000
     24 HAI        -0.7880   -1.7260   -0.2890 ha        1 3M2      0.162000
     25 OAD         3.5700   -0.5160    0.0700 oh        1 3M2     -0.472100
     26 BRAE        3.1040    2.5160   -0.7460 br        1 3M2     -0.061600
     27 BRAF        1.7540   -2.9700    0.3840 br        1 3M2     -0.061600
@<TRIPOS>BOND
     1    1   15 1   
     2    1   16 1   
     3    1   17 1   
     4    1   18 1   
     5    2   12 1   
     6    2   19 1   
     7    2   20 1   
     8    3   13 2   
     9    4    9 1   
    10    4   14 2   
    11    4   22 1   
    12    5    9 ar  
    13    5   10 ar  
    14    5   23 1   
    15    6    9 ar  
    16    6   11 ar  
    17    6   24 1   
    18    7   12 2   
    19    7   13 1   
    20    8   10 ar  
    21    8   11 ar  
    22    8   25 1   
    23   10   26 1   
    24   11   27 1   
    25   12   15 1   
    26   13   14 1   
    27   14   15 1   
    28   21   25 1   
@<TRIPOS>SUBSTRUCTURE
     1 3M2         1 TEMP              0 ****  ****    0 ROOT
