@<TRIPOS>MOLECULE
3M2
   28    28     1     0     0
SMALL
bcc


@<TRIPOS>ATOM
      1 CAA         0.3110   -0.8980    0.2350 c1        1 3M2     -0.185000
      2 NAB         2.8880   -0.2440   -1.2090 n3        1 3M2     -0.344000
      3 OAC         3.2680    1.4700    3.1660 o         1 3M2     -0.182000
      4 CAG         0.4790    0.5630    2.9610 c1        1 3M2     -0.022000
      5 CAH        -1.5950    1.5550    3.6650 c2        1 3M2      0.214000
      6 CAI        -1.6320   -0.0360    1.8230 c2        1 3M2     -0.038000
      7 NAJ         3.4270    0.7960    0.8900 n2        1 3M2     -0.239000
      8 CAK        -3.7460    0.8660    2.7990 c2        1 3M2      0.280000
      9 CAL        -0.9150    0.6920    2.7480 c2        1 3M2     -0.210000
     10 CAM        -2.9860    1.6510    3.6840 c2        1 3M2     -0.394000
     11 CAN        -3.0950    0.0310    1.7420 c3        1 3M2     -0.217000
     12 CAO         2.6360    0.0510    0.1000 c2        1 3M2      0.205000
     13 CAP         2.8520    0.8800    2.1840 c2        1 3M2      0.300000
     14 CAQ         1.5320   -0.0210    2.2030 c3        1 3M2     -0.113000
     15 NAR         1.3820   -0.4100    0.7670 n3        1 3M2     -0.146000
     16 HAA         1.2360   -2.1190   -3.3170 ha        1 3M2      0.002000
     17 HAAA       -0.9930   -0.7280    1.0510 ha        1 3M2      0.322000
     18 HAAB        0.8570   -2.0180   -2.7640 ha        1 3M2      0.002000
     19 HNAB        0.2750   -1.1500   -0.8400 ha        1 3M2      0.119000
     20 HNAA        2.3320   -0.9020   -1.7020 hn        1 3M2      0.267000
     21 HOAD       -5.4750    1.3240    3.5150 ho        1 3M2      0.295000
     22 HAG         1.8230   -0.9560    2.7970 h1        1 3M2      0.214000
     23 HAH        -0.9740    2.1380    4.3810 ha        1 3M2      0.217000
     24 HAI        -3.5410   -1.0100    1.7600 h1        1 3M2      0.226000
     25 BRAE       -3.8050    2.7930    4.9180 br        1 3M2      0.163000
     26 BRAF       -3.5120    0.7280   -0.0360 br        1 3M2      0.153000
     27 HAB3        3.7500    0.0560   -1.6090 hn        1 3M2      0.267000
     28 OAD        -5.0720    0.7510    2.8220 oh        1 3M2     -0.157000
@<TRIPOS>BOND
     1    1   15 1   
     2    1   19 1   
     3    2   12 1   
     4    2   20 1   
     5    2   27 1   
     6    3   13 1   
     7    4    9 1   
     8    4   14 1   
     9    5    9 1   
    10    5   10 1   
    11    5   23 1   
    12    6    9 1   
    13    6   11 1   
    14    6   17 1   
    15    7   12 1   
    16    7   13 1   
    17    8   10 1   
    18    8   11 1   
    19    8   28 1   
    20   10   25 1   
    21   11   24 1   
    22   11   26 1   
    23   12   15 1   
    24   13   14 1   
    25   14   15 1   
    26   14   22 1   
    27   16   18 1   
    28   21   28 1   
@<TRIPOS>SUBSTRUCTURE
     1 3M2         1 TEMP              0 ****  ****    0 ROOT
