@<TRIPOS>MOLECULE
3M2
   28    28     1     0     0
SMALL
bcc


@<TRIPOS>ATOM
      1 CAA         0.2880   -0.8950    0.2200 c1        1 3M2     -0.185000
      2 NAB         2.8250   -0.2280   -1.2870 n3        1 3M2     -0.344000
      3 OAC         3.3050    1.4870    3.0780 o         1 3M2     -0.182000
      4 CAG         0.5150    0.5660    2.9410 c1        1 3M2     -0.022000
      5 CAH        -1.5450    1.5470    3.6960 c2        1 3M2      0.214000
      6 CAI        -1.6200   -0.0430    1.8550 c2        1 3M2     -0.038000
      7 NAJ         3.4110    0.8140    0.7980 n2        1 3M2     -0.239000
      8 CAK        -3.7130    0.8480    2.8830 c2        1 3M2      0.280000
      9 CAL        -0.8830    0.6880    2.7630 c2        1 3M2     -0.210000
     10 CAM        -2.9360    1.6360    3.7500 c2        1 3M2     -0.394000
     11 CAN        -3.0850    0.0170    1.8100 c3        1 3M2     -0.217000
     12 CAO         2.6050    0.0650    0.0280 c2        1 3M2      0.205000
     13 CAP         2.8670    0.8940    2.1060 c2        1 3M2      0.300000
     14 CAQ         1.5520   -0.0130    2.1570 c3        1 3M2     -0.113000
     15 NAR         1.3690   -0.4020    0.7250 n3        1 3M2     -0.146000
     16 HAA         1.1280   -2.1030   -3.3580 ha        1 3M2      0.002000
     17 HAAA       -0.9960   -0.7310    1.0670 ha        1 3M2      0.322000
     18 HAAB        0.7630   -2.0060   -2.7950 ha        1 3M2      0.002000
     19 HNAB        0.2270   -1.1460   -0.8540 ha        1 3M2      0.119000
     20 HNAA        3.6760    0.0760   -1.7070 hn        1 3M2      0.267000
     21 HOAD       -5.4270    1.2970    3.6420 ho        1 3M2      0.295000
     22 HAG         1.8620   -0.9470    2.7430 h1        1 3M2      0.214000
     23 HAH        -0.9090    2.1330    4.3980 ha        1 3M2      0.217000
     24 HAI        -3.5250   -1.0260    1.8380 h1        1 3M2      0.226000
     25 BRAE       -3.7300    2.7730    5.0050 br        1 3M2      0.163000
     26 BRAF       -3.5490    0.7130    0.0440 br        1 3M2      0.153000
     27 HAB3        2.2610   -0.8890   -1.7670 hn        1 3M2      0.267000
     28 OAD        -5.0380    0.7260    2.9390 oh        1 3M2     -0.157000
@<TRIPOS>BOND
     1    1   15 1   
     2    1   19 1   
     3    2   12 1   
     4    2   20 1   
     5    2   27 1   
     6    3   13 1   
     7    4    9 1   
     8    4   14 1   
     9    5    9 1   
    10    5   10 1   
    11    5   23 1   
    12    6    9 1   
    13    6   11 1   
    14    6   17 1   
    15    7   12 1   
    16    7   13 1   
    17    8   10 1   
    18    8   11 1   
    19    8   28 1   
    20   10   25 1   
    21   11   24 1   
    22   11   26 1   
    23   12   15 1   
    24   13   14 1   
    25   14   15 1   
    26   14   22 1   
    27   16   18 1   
    28   21   28 1   
@<TRIPOS>SUBSTRUCTURE
     1 3M2         1 TEMP              0 ****  ****    0 ROOT
