@<TRIPOS>MOLECULE
3M2
   27    24     1     0     0
SMALL
bcc


@<TRIPOS>ATOM
      1 CAA         3.4650   -0.2350    1.1370 c3        1 3M2     -0.103000
      2 NAB         4.3220   -0.3870   -1.6530 n3        1 3M2     -0.324000
      3 OAC        -0.1700    0.4020   -2.2080 o         1 3M2     -0.266000
      4 OAD        -5.4150    0.0200    0.0530 oh        1 3M2     -0.226000
      5 BRAE       -4.3440    2.9040    0.0330 br        1 3M2      0.061000
      6 BRAF       -4.3430   -2.7550    0.3610 br        1 3M2      0.091000
      7 CAG         0.2440    0.1570    0.8980 c1        1 3M2     -0.065000
      8 CAH        -1.9860    1.3190    0.4640 c1        1 3M2     -0.040000
      9 CAI        -1.9220   -1.1140    0.5130 c1        1 3M2     -0.016000
     10 NAJ         2.1050    0.0880   -2.2290 n1        1 3M2     -0.281000
     11 CAK        -4.0260    0.0540    0.1800 c2        1 3M2      0.151000
     12 CAL        -1.2590    0.1160    0.5920 c1        1 3M2     -0.091000
     13 CAM        -3.3670    1.2800    0.2590 c1        1 3M2     -0.266000
     14 CAN        -3.2960   -1.1520    0.3090 c2        1 3M2     -0.202000
     15 CAO         3.1030    0.1410   -1.3410 c2        1 3M2      0.201000
     16 CAP         0.8610    0.0810   -1.6650 c1        1 3M2      0.293000
     17 CAQ         1.1510    0.1400   -0.1240 c2        1 3M2     -0.111000
     18 NAR         2.6810    0.1740   -0.0190 n3        1 3M2     -0.221000
     19 HAA         4.4270   -0.2400    0.8990 h1        1 3M2      0.089667
     20 HAAA        3.3140    0.3960    1.8760 h1        1 3M2      0.089667
     21 HAAB        3.1950   -1.1270    1.4110 h1        1 3M2      0.089667
     22 HNAB        4.5400   -0.5380   -2.5130 hn        1 3M2      0.229500
     23 HNAA        4.9230   -0.5540   -0.9980 hn        1 3M2      0.229500
     24 HOAD       -5.7940    0.4500    0.7550 ho        1 3M2      0.236000
     25 HAG         0.5550    0.1390    1.8310 ha        1 3M2      0.133000
     26 HAH        -1.5400    2.1760    0.6080 ha        1 3M2      0.150000
     27 HAI        -1.4220   -1.9330    0.5700 ha        1 3M2      0.171000
@<TRIPOS>BOND
     1    1   18 1   
     2    1   19 1   
     3    1   20 1   
     4    1   21 1   
     5    2   15 1   
     6    2   22 1   
     7    2   23 1   
     8    3   16 1   
     9    4   11 1   
    10    4   24 1   
    11    5   13 1   
    12    6   14 1   
    13    7   17 1   
    14    7   25 1   
    15    8   12 1   
    16    8   26 1   
    17    9   14 1   
    18    9   27 1   
    19   10   15 1   
    20   11   13 1   
    21   11   14 1   
    22   15   18 1   
    23   16   17 1   
    24   17   18 1   
@<TRIPOS>SUBSTRUCTURE
     1 3M2         1 TEMP              0 ****  ****    0 ROOT
