@<TRIPOS>MOLECULE
3M2
   28    28     1     0     0
SMALL
bcc


@<TRIPOS>ATOM
      1 CAA         0.4640   -1.7550    0.5400 c1        1 3M2     -0.184000
      2 NAB         2.9740   -1.4990   -1.1280 n8        1 3M2     -0.339000
      3 OAC         3.3600    1.5480    2.4490 o         1 3M2     -0.182000
      4 CAG         0.6140    0.5140    2.6410 c1        1 3M2     -0.022000
      5 CAH        -1.4890    1.6060    3.0510 c2        1 3M2      0.214000
      6 CAI        -1.4900   -0.4990    1.8280 c2        1 3M2     -0.036000
      7 NAJ         3.5070    0.1800    0.5070 n2        1 3M2     -0.238000
      8 CAK        -3.6230    0.5950    2.5260 c2        1 3M2      0.280000
      9 CAL        -0.7880    0.5160    2.4420 c2        1 3M2     -0.209000
     10 CAM        -2.8820    1.6520    3.0840 c2        1 3M2     -0.394000
     11 CAN        -2.9550   -0.5140    1.7760 c3        1 3M2     -0.217000
     12 CAO         2.7370   -0.8100    0.0280 c2        1 3M2      0.203000
     13 CAP         2.9530    0.6550    1.7250 c2        1 3M2      0.300000
     14 CAQ         1.6790   -0.2430    2.0780 c3        1 3M2     -0.112000
     15 NAR         1.5210   -1.0810    0.8500 n3        1 3M2     -0.146000
     16 HAA        -0.4270    4.2960   -1.0410 ha        1 3M2      0.000000
     17 HAAA       -0.8380   -1.3780    1.3020 ha        1 3M2      0.321000
     18 HAAB       -0.6350    3.7550   -0.6910 ha        1 3M2      0.000000
     19 HNAB        0.4180   -2.3390   -0.3960 ha        1 3M2      0.117000
     20 HNAA        3.8140   -1.3130   -1.6310 hn        1 3M2      0.265500
     21 HOAD       -5.3570    1.1980    3.1110 ho        1 3M2      0.295000
     22 HAG         2.0250   -0.9230    2.9310 h1        1 3M2      0.214000
     23 HAH        -0.8810    2.4120    3.5190 ha        1 3M2      0.217000
     24 HAI        -3.3540   -1.5080    2.1460 h1        1 3M2      0.227000
     25 BrAE       -3.7280    3.1030    3.9060 br        1 3M2      0.164000
     26 BrAF       -3.4370   -0.4500   -0.1160 br        1 3M2      0.153000
     27 HAB3        2.4570   -2.3150   -1.3470 hn        1 3M2      0.265500
     28 OAD        -4.9410    0.4460    2.6290 oh        1 3M2     -0.157000
@<TRIPOS>BOND
     1    1   15 1   
     2    1   19 1   
     3    2   12 1   
     4    2   20 1   
     5    2   27 1   
     6    3   13 1   
     7    4    9 1   
     8    4   14 1   
     9    5    9 1   
    10    5   10 1   
    11    5   23 1   
    12    6    9 1   
    13    6   11 1   
    14    6   17 1   
    15    7   12 1   
    16    7   13 1   
    17    8   10 1   
    18    8   11 1   
    19    8   28 1   
    20   10   25 1   
    21   11   24 1   
    22   11   26 1   
    23   12   15 1   
    24   13   14 1   
    25   14   15 1   
    26   14   22 1   
    27   16   18 1   
    28   21   28 1   
@<TRIPOS>SUBSTRUCTURE
     1 3M2         1 TEMP              0 ****  ****    0 ROOT
