@<TRIPOS>MOLECULE
3M3
   35    34     1     0     0
SMALL
bcc


@<TRIPOS>ATOM
      1 CAA         0.6910    0.8710    0.2070 c3        1 3M3     -0.186000
      2 CAB         4.2020   -0.1600   -2.9530 c3        1 3M3     -0.153000
      3 CAD        -2.3520    5.6210   -8.1560 c1        1 3M3     -0.180000
      4 CAE         0.2010    0.4180   -8.8870 c2        1 3M3     -0.534000
      5 CAF        -1.8590    5.2700   -7.1240 c1        1 3M3     -0.144000
      6 CAG        -0.1950    0.9310   -7.7590 c1        1 3M3      0.142000
      7 CAH         0.8290    1.5860   -3.2420 c3        1 3M3     -0.164000
      8 CAI        -0.1800    1.7760   -4.3610 c3        1 3M3     -0.029000
      9 CAJ         0.9490    0.1130   -2.8960 c3        1 3M3     -0.100000
     10 NAK         2.8100   -0.5150    0.3440 n2        1 3M3     -0.046000
     11 NAL         3.7390   -0.4890   -0.4560 n2        1 3M3     -0.014000
     12 OAM        -0.3100    3.1980   -4.5360 os        1 3M3     -0.205000
     13 CAN        -1.2780    4.8480   -5.9040 c2        1 3M3      0.080000
     14 CAO         1.4810   -0.2960   -0.3410 c3        1 3M3     -0.118000
     15 CAP         3.2640   -0.2370   -1.8250 c2        1 3M3     -0.132000
     16 CAQ        -0.9080    3.5490   -5.7240 c2        1 3M3     -0.045000
     17 CAR         1.9000   -0.1140   -1.8030 c2        1 3M3     -0.144000
     18 HAA        -0.2630    0.9630   -0.3660 hc        1 3M3      0.090333
     19 HAAA        0.4540    0.7060    1.2860 hc        1 3M3      0.090333
     20 HAAB        1.2590    1.8270    0.1080 hc        1 3M3      0.090333
     21 HAB         3.6430    0.0220   -3.9040 hc        1 3M3      0.093667
     22 HABA        4.7820   -1.1120   -3.0490 hc        1 3M3      0.093667
     23 HABB        4.9310    0.6770   -2.7990 hc        1 3M3      0.093667
     24 HAD         1.0440    0.8170   -9.4770 ha        1 3M3      0.198500
     25 HAE        -0.2690   -0.4600   -9.3600 ha        1 3M3      0.198500
     26 HAF        -2.7900    5.9340   -9.0690 ha        1 3M3      0.226000
     27 HAG        -1.0440    2.7700   -6.4920 h4        1 3M3      0.178000
     28 HAH         0.1650    1.2940   -5.3150 h1        1 3M3      0.088500
     29 HAHA        0.5040    2.1690   -2.3400 hc        1 3M3      0.103500
     30 HAI         1.8240    1.9910   -3.5610 hc        1 3M3      0.103500
     31 HAIA       -1.1850    1.3650   -4.0780 h1        1 3M3      0.088500
     32 HAJ        -0.0620   -0.2840   -2.6020 hc        1 3M3      0.092500
     33 HAJA        1.2800   -0.4570   -3.8080 hc        1 3M3      0.092500
     34 HNAK        0.8910   -1.2480   -0.2220 h1        1 3M3      0.143000
     35 FAC        -1.1010    5.7900   -4.9410 f         1 3M3     -0.094000
@<TRIPOS>BOND
     1    1   14 1   
     2    1   18 1   
     3    1   19 1   
     4    1   20 1   
     5    2   15 1   
     6    2   21 1   
     7    2   22 1   
     8    2   23 1   
     9    3    5 1   
    10    3   26 1   
    11    4    6 1   
    12    4   24 1   
    13    4   25 1   
    14    5   13 1   
    15    7    8 1   
    16    7    9 1   
    17    7   29 1   
    18    7   30 1   
    19    8   12 1   
    20    8   28 1   
    21    8   31 1   
    22    9   17 1   
    23    9   32 1   
    24    9   33 1   
    25   10   11 1   
    26   10   14 1   
    27   11   15 1   
    28   12   16 1   
    29   13   16 1   
    30   13   35 1   
    31   14   17 1   
    32   14   34 1   
    33   15   17 1   
    34   16   27 1   
@<TRIPOS>SUBSTRUCTURE
     1 3M3         1 TEMP              0 ****  ****    0 ROOT
