@<TRIPOS>MOLECULE
3M3
   35    35     1     0     0
SMALL
bcc


@<TRIPOS>ATOM
      1 CAA         0.4320   -0.8660    0.6470 c3        1 3M3     -0.184000
      2 CAB         3.0350    3.0540   -3.6060 c1        1 3M3     -0.063000
      3 CAD        -0.5360    4.6180   -9.4420 c2        1 3M3     -0.104000
      4 CAE        -0.8990    1.3240   -7.1860 cu        1 3M3     -0.192500
      5 CAF        -0.0020    4.0700   -8.3980 c1        1 3M3     -0.231000
      6 CAG        -1.6590    2.2610   -6.6440 cu        1 3M3     -0.192500
      7 CAH         1.1060    1.1610   -3.3830 c3        1 3M3     -0.177000
      8 CAI         0.1060    1.2030   -4.5240 c3        1 3M3     -0.021000
      9 CAJ         0.7930    0.0470   -2.4060 c3        1 3M3     -0.093000
     10 NAK         2.9570   -0.6300    0.6310 n2        1 3M3     -0.053000
     11 NAL         3.5890    0.2660    0.0770 n2        1 3M3     -0.021000
     12 OAM         0.4970    2.3290   -5.3130 os        1 3M3     -0.257000
     13 CAN         0.5340    3.5040   -7.3350 c2        1 3M3      0.143000
     14 CAO         1.7110   -0.9870   -0.1500 c3        1 3M3     -0.124000
     15 CAP         2.9330    0.7120   -1.1460 c2        1 3M3     -0.184000
     16 CAQ        -0.1820    2.4630   -6.5370 cx        1 3M3      0.100000
     17 CAR         1.7880   -0.0130   -1.3310 c2        1 3M3     -0.155000
     18 HAA        -0.4310   -1.1430   -0.0060 hc        1 3M3      0.087000
     19 HAAA        0.4570   -1.5540    1.5270 hc        1 3M3      0.087000
     20 HAAB        0.2820    0.1780    1.0140 hc        1 3M3      0.087000
     21 HAB         3.3770    1.5110   -1.7560 h4        1 3M3      0.219000
     22 HABA        3.0060    3.0420   -4.7070 ha        1 3M3      0.024500
     23 HABB        2.5070    3.9350   -3.2070 ha        1 3M3      0.024500
     24 HAD        -0.7740    0.4110   -7.7320 ha        1 3M3      0.196000
     25 HAE        -0.4160    4.1970  -10.4530 ha        1 3M3      0.133500
     26 HAF        -1.1410    5.5360   -9.3800 ha        1 3M3      0.133500
     27 HAG        -2.6170    2.6780   -6.4120 ha        1 3M3      0.196000
     28 HAH         0.1480    0.2670   -5.1410 h1        1 3M3      0.076000
     29 HAHA        1.0860    2.1460   -2.8400 hc        1 3M3      0.114000
     30 HAI         2.1390    1.0100   -3.8020 hc        1 3M3      0.114000
     31 HAIA       -0.9420    1.3560   -4.1550 h1        1 3M3      0.076000
     32 HAJ        -0.2280    0.2020   -1.9600 hc        1 3M3      0.095000
     33 HAJA        0.7710   -0.9390   -2.9480 hc        1 3M3      0.095000
     34 HNAK        1.8420   -2.0460   -0.5090 h1        1 3M3      0.141000
     35 FAC         1.7740    3.8290   -6.8920 f         1 3M3     -0.090000
@<TRIPOS>BOND
     1    1   14 1   
     2    1   18 1   
     3    1   19 1   
     4    1   20 1   
     5    2   22 1   
     6    2   23 1   
     7    3    5 1   
     8    3   25 1   
     9    3   26 1   
    10    4    6 1   
    11    4   16 1   
    12    4   24 1   
    13    5   13 1   
    14    6   16 1   
    15    6   27 1   
    16    7    8 1   
    17    7    9 1   
    18    7   29 1   
    19    7   30 1   
    20    8   12 1   
    21    8   28 1   
    22    8   31 1   
    23    9   17 1   
    24    9   32 1   
    25    9   33 1   
    26   10   11 1   
    27   10   14 1   
    28   11   15 1   
    29   12   16 1   
    30   13   16 1   
    31   13   35 1   
    32   14   17 1   
    33   14   34 1   
    34   15   17 1   
    35   15   21 1   
@<TRIPOS>SUBSTRUCTURE
     1 3M3         1 TEMP              0 ****  ****    0 ROOT
