@<TRIPOS>MOLECULE
3M3
   35    36     1     0     0
SMALL
bcc


@<TRIPOS>ATOM
      1 CAA         3.3220    2.4780   -0.1140 c3        1 3M3     -0.035800
      2 CAB         3.9580   -2.5740    0.3540 c3        1 3M3     -0.121400
      3 CAD        -5.6170    0.0510    0.7670 ca        1 3M3     -0.141000
      4 CAE        -4.6660   -0.2940    1.7230 ca        1 3M3     -0.109000
      5 CAF        -5.2210    0.4450   -0.5100 ca        1 3M3     -0.138000
      6 CAG        -3.3050   -0.2520    1.4200 ca        1 3M3     -0.185000
      7 CAH         0.7470    0.0250   -0.0110 c3        1 3M3     -0.084400
      8 CAI        -0.5890   -0.1330    0.6940 c3        1 3M3      0.128400
      9 CAJ         1.8820   -0.2390    0.9620 c3        1 3M3      0.005900
     10 NAK         5.0640    0.7000   -0.6270 na        1 3M3     -0.016600
     11 NAL         5.2710   -0.6100   -0.5270 nc        1 3M3     -0.513800
     12 OAM        -1.5820    0.2240   -0.2780 os        1 3M3     -0.316900
     13 CAN        -3.8580    0.4950   -0.8370 ca        1 3M3      0.099900
     14 CAO         3.8160    1.0930   -0.1230 cc        1 3M3     -0.092600
     15 CAP         4.1560   -1.1450    0.0520 cd        1 3M3      0.314600
     16 CAQ        -2.8910    0.1410    0.1440 ca        1 3M3      0.097100
     17 CAR         3.1960   -0.0890    0.3290 cd        1 3M3     -0.252600
     18 HAA         2.9340    2.7600   -1.1260 hc        1 3M3      0.054033
     19 HAAA        2.4830    2.5650    0.6220 hc        1 3M3      0.054033
     20 HAAB        4.1250    3.2010    0.1730 hc        1 3M3      0.054033
     21 HAB         3.8350   -2.7110    1.4580 hc        1 3M3      0.049367
     22 HABA        3.0300   -2.9390   -0.1540 hc        1 3M3      0.049367
     23 HABB        4.8200   -3.1980    0.0120 hc        1 3M3      0.049367
     24 HAD        -6.6880    0.0140    1.0150 ha        1 3M3      0.138000
     25 HAE        -4.9850   -0.6050    2.7300 ha        1 3M3      0.136000
     26 HAF        -5.9660    0.7190   -1.2720 ha        1 3M3      0.150000
     27 HAG        -2.5690   -0.5270    2.1870 ha        1 3M3      0.141000
     28 HAH         0.8010   -0.6880   -0.8740 hc        1 3M3      0.062700
     29 HAHA        0.8320    1.0620   -0.4290 hc        1 3M3      0.062700
     30 HAI        -0.7500   -1.1920    1.0250 h1        1 3M3      0.038700
     31 HAIA       -0.6670    0.5550    1.5770 h1        1 3M3      0.038700
     32 HAJ         1.8000    0.4750    1.8280 hc        1 3M3      0.046200
     33 HAJA        1.7860   -1.2800    1.3760 hc        1 3M3      0.046200
     34 HNAK        5.7550    1.2900   -1.0250 hn        1 3M3      0.319700
     35 FAC        -3.4650    0.8770   -2.0740 f         1 3M3     -0.127900
@<TRIPOS>BOND
     1    1   14 1   
     2    1   18 1   
     3    1   19 1   
     4    1   20 1   
     5    2   15 1   
     6    2   21 1   
     7    2   22 1   
     8    2   23 1   
     9    3    4 ar  
    10    3    5 ar  
    11    3   24 1   
    12    4    6 ar  
    13    4   25 1   
    14    5   13 ar  
    15    5   26 1   
    16    6   16 ar  
    17    6   27 1   
    18    7    8 1   
    19    7    9 1   
    20    7   28 1   
    21    7   29 1   
    22    8   12 1   
    23    8   30 1   
    24    8   31 1   
    25    9   17 1   
    26    9   32 1   
    27    9   33 1   
    28   10   11 1   
    29   10   14 1   
    30   10   34 1   
    31   11   15 2   
    32   12   16 1   
    33   13   16 ar  
    34   13   35 1   
    35   14   17 2   
    36   15   17 1   
@<TRIPOS>SUBSTRUCTURE
     1 3M3         1 TEMP              0 ****  ****    0 ROOT
