@<TRIPOS>MOLECULE
3M3
   35    33     1     0     0
SMALL
bcc


@<TRIPOS>ATOM
      1 CAA        -0.4510    0.1710    4.2850 c3        1 3M3     -0.152500
      2 CAB         4.0590   -0.2660    1.7730 c3        1 3M3     -0.152500
      3 FAC        -1.2670    2.3050   -3.6030 f         1 3M3     -0.107000
      4 CAD        -3.0290   -0.1110   -5.2160 c1        1 3M3     -0.126000
      5 CAE        -2.6700   -1.3040   -4.6080 c1        1 3M3     -0.126000
      6 CAF        -2.6250    1.0960   -4.6660 c1        1 3M3     -0.140000
      7 CAG        -1.9080   -1.2900   -3.4500 c1        1 3M3     -0.129000
      8 CAH         0.2200   -0.3990    0.2910 c3        1 3M3     -0.165000
      9 CAI        -0.8010    0.1770   -0.6650 c3        1 3M3     -0.024000
     10 CAJ         0.6940    0.6840    1.2360 c3        1 3M3     -0.081000
     11 NAK         2.0650   -0.1900    4.5070 n2        1 3M3     -0.122000
     12 NAL         3.1420   -0.2550    3.6600 n2        1 3M3     -0.122000
     13 OAM        -0.4380   -0.1420   -1.9880 os        1 3M3     -0.215000
     14 CAN        -1.8630    1.1100   -3.5090 c2        1 3M3      0.034000
     15 CAO         0.9570   -0.0020    3.7600 c2        1 3M3     -0.085500
     16 CAP         2.6900   -0.1080    2.3970 c2        1 3M3     -0.085500
     17 CAQ        -1.5040   -0.0830   -2.9010 c2        1 3M3      0.043000
     18 CAR         1.3360    0.0500    2.4500 c2        1 3M3     -0.177000
     19 HAA        -0.8240    1.0120    3.9490 hc        1 3M3      0.091000
     20 HAAA       -0.4340    0.1890    5.2650 hc        1 3M3      0.091000
     21 HAAB       -1.0070   -0.5770    3.9820 hc        1 3M3      0.091000
     22 HAB         3.9760   -0.2540    0.7970 hc        1 3M3      0.091000
     23 HABA        4.4510   -1.1180    2.0580 hc        1 3M3      0.091000
     24 HABB        4.6370    0.4720    2.0610 hc        1 3M3      0.091000
     25 HAD        -3.5660   -0.1200   -6.0310 ha        1 3M3      0.138500
     26 HAE        -2.9540   -2.1530   -4.9950 ha        1 3M3      0.138500
     27 HAF        -2.8780    1.9360   -5.0940 ha        1 3M3      0.149000
     28 HAG        -1.6550   -2.1300   -3.0220 ha        1 3M3      0.153000
     29 HAH        -0.1870   -1.1240    0.8050 hc        1 3M3      0.098500
     30 HAHA        0.9820   -0.7450   -0.2150 hc        1 3M3      0.098500
     31 HAI        -1.6830   -0.2020   -0.4680 h1        1 3M3      0.086000
     32 HAIA       -0.8330    1.1510   -0.5610 h1        1 3M3      0.086000
     33 HAJ        -0.0690    1.2280    1.5170 hc        1 3M3      0.086500
     34 HAJA        1.3480    1.2520    0.7800 hc        1 3M3      0.086500
     35 HNAK        2.0920   -0.2600    5.4160 DU        1 3M3      0.269000
@<TRIPOS>BOND
     1    1   15 1   
     2    1   19 1   
     3    1   20 1   
     4    1   21 1   
     5    2   16 1   
     6    2   22 1   
     7    2   23 1   
     8    2   24 1   
     9    3   14 1   
    10    4    5 1   
    11    4   25 1   
    12    5   26 1   
    13    6   14 1   
    14    6   27 1   
    15    7   17 1   
    16    7   28 1   
    17    8    9 1   
    18    8   10 1   
    19    8   29 1   
    20    8   30 1   
    21    9   13 1   
    22    9   31 1   
    23    9   32 1   
    24   10   18 1   
    25   10   33 1   
    26   10   34 1   
    27   11   12 1   
    28   11   15 1   
    29   12   16 1   
    30   13   17 1   
    31   14   17 1   
    32   15   18 1   
    33   16   18 1   
@<TRIPOS>SUBSTRUCTURE
     1 3M3         1 TEMP              0 ****  ****    0 ROOT
