@<TRIPOS>MOLECULE
3M4
   33    35     1     0     0
SMALL
bcc


@<TRIPOS>ATOM
      1 CAA        -3.5360    3.3650   -0.0050 c3        1 3M4     -0.101100
      2 CAB        -4.3000   -2.2570    0.0010 ca        1 3M4     -0.061000
      3 CAC        -3.1340   -3.0240    0.0020 ca        1 3M4     -0.180000
      4 CAD         5.2340    1.2020    0.0030 ca        1 3M4      0.383700
      5 CAE         5.1120   -1.0930   -0.0040 ca        1 3M4      0.383700
      6 CAF        -4.2340   -0.8680   -0.0010 ca        1 3M4     -0.221000
      7 CAG        -1.8900   -2.4010    0.0020 ca        1 3M4     -0.044000
      8 CAH         3.8340    1.3330    0.0030 ca        1 3M4     -0.211300
      9 CAI         3.7060   -1.0760   -0.0040 ca        1 3M4     -0.211300
     10 CAJ        -4.0050    1.9290   -0.0040 c3        1 3M4      0.128400
     11 NAK         5.8750    0.0170   -0.0010 nb        1 3M4     -0.654000
     12 NAL         0.8570    1.3930   -0.0020 nc        1 3M4     -0.368300
     13 NAM         0.7450   -0.8940    0.0000 nd        1 3M4     -0.693000
     14 OAN        -2.8090    1.1300   -0.0020 os        1 3M4     -0.308900
     15 OAO        -0.4050    1.0480   -0.0010 os        1 3M4     -0.103100
     16 CAP         3.0550    0.1660   -0.0010 ca        1 3M4     -0.086500
     17 CAQ        -2.9830   -0.2310   -0.0010 ca        1 3M4      0.180100
     18 CAR         1.5970    0.2470   -0.0010 cd        1 3M4      0.575500
     19 CAS        -1.7940   -1.0010    0.0000 ca        1 3M4     -0.193500
     20 CAT        -0.4890   -0.3800   -0.0000 cc        1 3M4      0.581900
     21 HAA        -4.4260    4.0380   -0.0060 hc        1 3M4      0.054033
     22 HAAA       -2.9160    3.5740    0.8990 hc        1 3M4      0.054033
     23 HAAB       -2.9160    3.5720   -0.9090 hc        1 3M4      0.054033
     24 HAB        -5.2830   -2.7540    0.0010 ha        1 3M4      0.139000
     25 HAC        -3.1960   -4.1220    0.0030 ha        1 3M4      0.143000
     26 HAE         5.6610   -2.0520   -0.0070 h4        1 3M4      0.025100
     27 HAF        -5.1620   -0.2790   -0.0010 ha        1 3M4      0.145000
     28 HAG        -0.9710   -3.0090    0.0020 ha        1 3M4      0.159000
     29 HAH         3.3760    2.3320    0.0060 ha        1 3M4      0.162000
     30 HAI         3.1440   -2.0200   -0.0070 ha        1 3M4      0.162000
     31 HAJ        -4.6060    1.6960    0.9140 h1        1 3M4      0.040700
     32 HAJA       -4.6060    1.6940   -0.9210 h1        1 3M4      0.040700
     33 HAD         5.8810    2.0980    0.0060 h4        1 3M4      0.025100
@<TRIPOS>BOND
     1    1   10 1   
     2    1   21 1   
     3    1   22 1   
     4    1   23 1   
     5    2    3 ar  
     6    2    6 ar  
     7    2   24 1   
     8    3    7 ar  
     9    3   25 1   
    10    4    8 ar  
    11    4   11 ar  
    12    4   33 1   
    13    5    9 ar  
    14    5   11 ar  
    15    5   26 1   
    16    6   17 ar  
    17    6   27 1   
    18    7   19 ar  
    19    7   28 1   
    20    8   16 ar  
    21    8   29 1   
    22    9   16 ar  
    23    9   30 1   
    24   10   14 1   
    25   10   31 1   
    26   10   32 1   
    27   12   15 1   
    28   12   18 2   
    29   13   18 1   
    30   13   20 2   
    31   14   17 1   
    32   15   20 1   
    33   16   18 1   
    34   17   19 ar  
    35   19   20 1   
@<TRIPOS>SUBSTRUCTURE
     1 3M4         1 TEMP              0 ****  ****    0 ROOT
