@<TRIPOS>MOLECULE
3M4
   33    28     1     0     0
SMALL
bcc


@<TRIPOS>ATOM
      1 CAA        -2.4890   -3.4190   -1.7840 c3        1 3M4     -0.251000
      2 CAB         2.2120   -3.7810    0.4540 c1        1 3M4     -0.118250
      3 CAC         2.6260   -2.7720    1.3090 c1        1 3M4     -0.118250
      4 CAD        -1.2550    5.4030   -0.1670 c1        1 3M4     -0.118250
      5 CAE         0.4610    5.5290    1.4490 c1        1 3M4     -0.082000
      6 CAF         1.1600   -3.5610   -0.4210 c1        1 3M4     -0.220000
      7 CAG         1.9870   -1.5420    1.2900 c1        1 3M4     -0.045000
      8 CAH        -1.0520    4.0370   -0.2790 c1        1 3M4     -0.118250
      9 CAI         0.6660    4.1620    1.3390 c1        1 3M4     -0.142000
     10 CAJ        -1.1730   -2.7170   -2.0350 c3        1 3M4     -0.024000
     11 NAK        -0.4970    6.1370    0.6950 n1        1 3M4     -0.128000
     12 NAL        -1.1590    1.3480    1.1450 n2        1 3M4     -0.033000
     13 NAM         0.7400    1.1620    0.0830 n2        1 3M4     -0.167000
     14 OAN        -0.7800   -2.0260   -0.8730 os        1 3M4     -0.191000
     15 OAO        -0.8590    0.0240    1.0350 os        1 3M4     -0.046000
     16 CAP        -0.0920    3.4260    0.4760 c1        1 3M4      0.021000
     17 CAQ         0.5220   -2.3310   -0.4410 c2        1 3M4      0.135000
     18 CAR        -0.1740    2.0450    0.5590 c1        1 3M4     -0.058000
     19 CAS         0.9350   -1.3210    0.4150 c1        1 3M4     -0.086000
     20 CAT         0.3110   -0.0840    0.3800 c1        1 3M4      0.082000
     21 HAA        -2.6200   -4.1190   -2.4580 hc        1 3M4      0.090000
     22 HAAA       -2.4790   -3.8230   -0.8910 hc        1 3M4      0.090000
     23 HAAB       -3.2210   -2.7700   -1.8410 hc        1 3M4      0.090000
     24 HAB         2.6620   -4.6480    0.4680 ha        1 3M4      0.151000
     25 HAC         3.3670   -2.9280    1.9260 ha        1 3M4      0.151000
     26 HAD        -1.9410    5.8400   -0.7060 ha        1 3M4      0.151000
     27 HAE         1.0040    6.0550    2.0660 ha        1 3M4      0.162000
     28 HAF         0.8690   -4.2710   -1.0240 ha        1 3M4      0.146000
     29 HAG         2.2780   -0.8310    1.8920 ha        1 3M4      0.159000
     30 HAH        -1.5950    3.5110   -0.8960 ha        1 3M4      0.151000
     31 HAI         1.3530    3.7270    1.8790 ha        1 3M4      0.163000
     32 HAJ        -0.4890   -3.3790   -2.2680 h1        1 3M4      0.101500
     33 HAJA       -1.2770   -2.0820   -2.7740 h1        1 3M4      0.101500
@<TRIPOS>BOND
     1    1   10 1   
     2    1   21 1   
     3    1   22 1   
     4    1   23 1   
     5    2    3 1   
     6    2   24 1   
     7    3   25 1   
     8    4    8 1   
     9    4   26 1   
    10    5   11 1   
    11    5   27 1   
    12    6   17 1   
    13    6   28 1   
    14    7   19 1   
    15    7   29 1   
    16    8   30 1   
    17    9   16 1   
    18    9   31 1   
    19   10   14 1   
    20   10   32 1   
    21   10   33 1   
    22   12   15 1   
    23   12   18 1   
    24   13   18 1   
    25   13   20 1   
    26   14   17 1   
    27   15   20 1   
    28   17   19 1   
@<TRIPOS>SUBSTRUCTURE
     1 3M4         1 TEMP              0 ****  ****    0 ROOT
