@<TRIPOS>MOLECULE
3M4
   33    35     1     0     0
SMALL
bcc


@<TRIPOS>ATOM
      1 CAA        -0.0420   -0.0010    0.3260 c3        1 3M4     -0.101100
      2 CAB         5.6060   -0.0030    0.8670 ca        1 3M4     -0.061000
      3 CAC         6.0860   -0.0000    2.1770 ca        1 3M4     -0.180000
      4 CAD         0.0590    0.0140    9.3580 ca        1 3M4      0.383700
      5 CAE         2.3210    0.0290    9.7640 ca        1 3M4      0.383700
      6 CAF         4.2380   -0.0030    0.6140 ca        1 3M4     -0.221000
      7 CAG         5.1950    0.0030    3.2460 ca        1 3M4     -0.044000
      8 CAH         0.2510    0.0100    7.9650 ca        1 3M4     -0.211300
      9 CAI         2.6260    0.0250    8.3910 ca        1 3M4     -0.211300
     10 CAJ         1.4630   -0.0020    0.1980 c3        1 3M4      0.128400
     11 NAK         1.0660    0.0230   10.2530 nb        1 3M4     -0.654000
     12 NAL         0.8730    0.0090    5.0530 nc        1 3M4     -0.368300
     13 NAM         3.1260    0.0100    5.4670 nd        1 3M4     -0.693000
     14 OAN         1.9670    0.0010    1.5440 os        1 3M4     -0.308900
     15 OAO         1.4970    0.0060    3.9040 os        1 3M4     -0.103100
     16 CAP         1.5650    0.0150    7.4730 ca        1 3M4     -0.086500
     17 CAQ         3.3320    0.0000    1.6860 ca        1 3M4      0.180100
     18 CAR         1.8190    0.0120    6.0350 cd        1 3M4      0.575500
     19 CAS         3.8100    0.0030    3.0200 ca        1 3M4     -0.193500
     20 CAT         2.9070    0.0060    4.1480 cc        1 3M4      0.581900
     21 HAA        -0.3870   -0.9040    0.8840 hc        1 3M4      0.054033
     22 HAAA       -0.4930   -0.0030   -0.6950 hc        1 3M4      0.054033
     23 HAAB       -0.3860    0.9050    0.8800 hc        1 3M4      0.054033
     24 HAB         6.3140   -0.0050    0.0230 ha        1 3M4      0.139000
     25 HAC         7.1690   -0.0000    2.3680 ha        1 3M4      0.143000
     26 HAE         3.1290    0.0360   10.5170 h4        1 3M4      0.025100
     27 HAF         3.8770   -0.0050   -0.4240 ha        1 3M4      0.145000
     28 HAG         5.5770    0.0050    4.2800 ha        1 3M4      0.159000
     29 HAH        -0.6160    0.0020    7.2910 ha        1 3M4      0.162000
     30 HAI         3.6740    0.0300    8.0600 ha        1 3M4      0.162000
     31 HAJ         1.8280   -0.9210   -0.3320 h1        1 3M4      0.040700
     32 HAJA        1.8290    0.9140   -0.3360 h1        1 3M4      0.040700
     33 HAD        -0.9610    0.0100    9.7830 h4        1 3M4      0.025100
@<TRIPOS>BOND
     1    1   10 1   
     2    1   21 1   
     3    1   22 1   
     4    1   23 1   
     5    2    3 ar  
     6    2    6 ar  
     7    2   24 1   
     8    3    7 ar  
     9    3   25 1   
    10    4    8 ar  
    11    4   11 ar  
    12    4   33 1   
    13    5    9 ar  
    14    5   11 ar  
    15    5   26 1   
    16    6   17 ar  
    17    6   27 1   
    18    7   19 ar  
    19    7   28 1   
    20    8   16 ar  
    21    8   29 1   
    22    9   16 ar  
    23    9   30 1   
    24   10   14 1   
    25   10   31 1   
    26   10   32 1   
    27   12   15 1   
    28   12   18 2   
    29   13   18 1   
    30   13   20 2   
    31   14   17 1   
    32   15   20 1   
    33   16   18 1   
    34   17   19 ar  
    35   19   20 1   
@<TRIPOS>SUBSTRUCTURE
     1 3M4         1 TEMP              0 ****  ****    0 ROOT
