@<TRIPOS>MOLECULE
3M5
   43    43     1     0     0
SMALL
bcc


@<TRIPOS>ATOM
      1 CA         -0.6650    0.7470   -0.5590 c3        1 3M5     -0.008500
      2 CB         -0.0210   -0.5420   -0.0180 c3        1 3M5     -0.130400
      3 C          -1.4190    1.3030    0.6610 c         1 3M5      0.706600
      4 O          -1.9080    2.4150    0.7970 o         1 3M5     -0.541500
      5 OAC        -1.4690    0.3990    1.6700 os        1 3M5     -0.341900
      6 CAB        -0.7410   -0.8040    1.3090 c3        1 3M5      0.116400
      7 N           0.2830    1.7500   -1.1230 n4        1 3M5     -0.668800
      8 CAG        -0.2330    2.4260   -2.3930 c         1 3M5      0.572100
      9 OAL         0.4620    2.2260   -3.3730 o         1 3M5     -0.387100
     10 CAH        -1.4760    3.2500   -2.2780 c3        1 3M5     -0.290400
     11 CAI        -2.6850    2.5230   -2.8520 c         1 3M5      0.602100
     12 OAM        -2.7260    1.2910   -2.8320 o         1 3M5     -0.531100
     13 CAJ        -3.7470    3.4260   -3.3850 c3        1 3M5     -0.170400
     14 CAN        -5.0680    2.7100   -3.5790 c3        1 3M5     -0.077400
     15 CAO        -6.0970    3.6400   -4.1840 c3        1 3M5     -0.080400
     16 CAP        -7.4230    2.9330   -4.3710 c3        1 3M5     -0.078400
     17 CAQ        -8.4550    3.8590   -4.9780 c3        1 3M5     -0.079400
     18 CAR        -9.7810    3.1540   -5.1660 c3        1 3M5     -0.079400
     19 CAS       -10.8120    4.0720   -5.7700 c3        1 3M5     -0.094100
     20 H1         -1.4270    0.4830   -1.3640 hx        1 3M5      0.179700
     21 H2          1.0810   -0.4420    0.1500 hc        1 3M5      0.098200
     22 H3         -0.1840   -1.3900   -0.7310 hc        1 3M5      0.098200
     23 H4         -1.5000   -1.6250    1.2300 h1        1 3M5      0.106200
     24 H5         -0.0360   -0.9990    2.1580 h1        1 3M5      0.106200
     25 H6          1.1770    1.2840   -1.3400 hn        1 3M5      0.465300
     26 H7         -1.7200    3.5260   -1.2120 hc        1 3M5      0.142700
     27 H8         -1.2980    4.2020   -2.8550 hc        1 3M5      0.142700
     28 H9         -3.8800    4.2960   -2.6860 hc        1 3M5      0.089200
     29 H10        -3.3890    3.8360   -4.3700 hc        1 3M5      0.089200
     30 H11        -5.4360    2.3250   -2.5910 hc        1 3M5      0.061200
     31 H12        -4.9170    1.8190   -4.2450 hc        1 3M5      0.061200
     32 H13        -6.2390    4.5330   -3.5190 hc        1 3M5      0.045200
     33 H14        -5.7310    4.0180   -5.1750 hc        1 3M5      0.045200
     34 H15        -7.7920    2.5550   -3.3800 hc        1 3M5      0.044700
     35 H16        -7.2820    2.0390   -5.0350 hc        1 3M5      0.044700
     36 H17        -8.5960    4.7530   -4.3140 hc        1 3M5      0.042200
     37 H18        -8.0870    4.2370   -5.9680 hc        1 3M5      0.042200
     38 H19       -10.1480    2.7750   -4.1750 hc        1 3M5      0.040700
     39 H20        -9.6380    2.2590   -5.8290 hc        1 3M5      0.040700
     40 H21       -10.9870    4.9570   -5.1110 hc        1 3M5      0.037033
     41 H22       -11.7810    3.5320   -5.9000 hc        1 3M5      0.037033
     42 H23       -10.4770    4.4400   -6.7690 hc        1 3M5      0.037033
     43 H24         0.4590    2.4830   -0.4220 hn        1 3M5      0.465300
@<TRIPOS>BOND
     1    1    2 1   
     2    1    3 1   
     3    1    7 1   
     4    1   20 1   
     5    2    6 1   
     6    2   21 1   
     7    2   22 1   
     8    3    4 2   
     9    3    5 1   
    10    5    6 1   
    11    6   23 1   
    12    6   24 1   
    13    7    8 1   
    14    7   25 1   
    15    7   43 1   
    16    8    9 2   
    17    8   10 1   
    18   10   11 1   
    19   10   26 1   
    20   10   27 1   
    21   11   12 2   
    22   11   13 1   
    23   13   14 1   
    24   13   28 1   
    25   13   29 1   
    26   14   15 1   
    27   14   30 1   
    28   14   31 1   
    29   15   16 1   
    30   15   32 1   
    31   15   33 1   
    32   16   17 1   
    33   16   34 1   
    34   16   35 1   
    35   17   18 1   
    36   17   36 1   
    37   17   37 1   
    38   18   19 1   
    39   18   38 1   
    40   18   39 1   
    41   19   40 1   
    42   19   41 1   
    43   19   42 1   
@<TRIPOS>SUBSTRUCTURE
     1 3M5         1 TEMP              0 ****  ****    0 ROOT
