@<TRIPOS>MOLECULE
3M5
   43    43     1     0     0
SMALL
bcc


@<TRIPOS>ATOM
      1 CA         -0.6760    0.7590   -0.5330 c3        1 3M5     -0.008500
      2 CB         -0.0960   -0.4960    0.1420 c3        1 3M5     -0.130400
      3 C          -1.3210    1.5220    0.6360 c         1 3M5      0.706600
      4 O          -1.7230    2.6760    0.6480 o         1 3M5     -0.541500
      5 OAC        -1.3810    0.7580    1.7570 os        1 3M5     -0.341900
      6 CAB        -0.7600   -0.5330    1.5230 c3        1 3M5      0.116400
      7 N           0.3090    1.6080   -1.2640 ny        1 3M5     -0.668800
      8 CAG        -0.2260    2.1550   -2.5870 c         1 3M5      0.572100
      9 OAL         0.3990    1.7800   -3.5630 o         1 3M5     -0.387100
     10 CAH        -1.4000    3.0800   -2.5250 c3        1 3M5     -0.290400
     11 CAI        -2.6870    2.3820   -2.9450 c         1 3M5      0.602100
     12 OAM        -2.8130    1.1690   -2.7630 o         1 3M5     -0.531100
     13 CAJ        -3.7090    3.2890   -3.5430 c3        1 3M5     -0.170400
     14 CAN        -5.0870    2.6590   -3.5800 c3        1 3M5     -0.077400
     15 CAO        -6.0790    3.5820   -4.2560 c3        1 3M5     -0.080400
     16 CAP        -7.4600    2.9620   -4.2860 c3        1 3M5     -0.078400
     17 CAQ        -8.4550    3.8800   -4.9630 c3        1 3M5     -0.079400
     18 CAR        -9.8370    3.2620   -4.9950 c3        1 3M5     -0.079400
     19 CAS       -10.8310    4.1720   -5.6680 c3        1 3M5     -0.094100
     20 H1         -1.4970    0.4550   -1.2620 hx        1 3M5      0.179700
     21 H2         -0.3570   -1.4130   -0.4460 hc        1 3M5      0.098200
     22 H3          1.0180   -0.4610    0.2460 hc        1 3M5      0.098200
     23 H4         -1.5780   -1.2960    1.5850 h1        1 3M5      0.106200
     24 H5         -0.0260   -0.6720    2.3580 h1        1 3M5      0.106200
     25 H6          1.1540    1.0500   -1.4580 hn        1 3M5      0.465300
     26 H7         -1.5660    3.5070   -1.4940 hc        1 3M5      0.142700
     27 H8         -1.1860    3.9350   -3.2290 hc        1 3M5      0.142700
     28 H9         -3.3770    3.5410   -4.5890 hc        1 3M5      0.088700
     29 H10        -3.7400    4.2490   -2.9590 hc        1 3M5      0.088700
     30 H11        -5.4260    2.4350   -2.5340 hc        1 3M5      0.061200
     31 H12        -5.0370    1.6810   -4.1280 hc        1 3M5      0.061200
     32 H13        -5.7410    3.7980   -5.3040 hc        1 3M5      0.045200
     33 H14        -6.1190    4.5610   -3.7090 hc        1 3M5      0.045200
     34 H15        -7.4200    1.9820   -4.8310 hc        1 3M5      0.044700
     35 H16        -7.7990    2.7450   -3.2390 hc        1 3M5      0.044700
     36 H17        -8.4950    4.8600   -4.4190 hc        1 3M5      0.042200
     37 H18        -8.1160    4.0960   -6.0110 hc        1 3M5      0.042200
     38 H19        -9.7950    2.2810   -5.5380 hc        1 3M5      0.040700
     39 H20       -10.1740    3.0450   -3.9470 hc        1 3M5      0.040700
     40 H21       -10.9050    5.1460   -5.1260 hc        1 3M5      0.037033
     41 H22       -10.5270    4.3800   -6.7220 hc        1 3M5      0.037033
     42 H23       -11.8420    3.6980   -5.6810 hc        1 3M5      0.037033
     43 H24         0.5740    2.4070   -0.6730 hn        1 3M5      0.465300
@<TRIPOS>BOND
     1    1    2 1   
     2    1    3 1   
     3    1    7 1   
     4    1   20 1   
     5    2    6 1   
     6    2   21 1   
     7    2   22 1   
     8    3    4 2   
     9    3    5 1   
    10    5    6 1   
    11    6   23 1   
    12    6   24 1   
    13    7    8 1   
    14    7   25 1   
    15    7   43 1   
    16    8    9 2   
    17    8   10 1   
    18   10   11 1   
    19   10   26 1   
    20   10   27 1   
    21   11   12 2   
    22   11   13 1   
    23   13   14 1   
    24   13   28 1   
    25   13   29 1   
    26   14   15 1   
    27   14   30 1   
    28   14   31 1   
    29   15   16 1   
    30   15   32 1   
    31   15   33 1   
    32   16   17 1   
    33   16   34 1   
    34   16   35 1   
    35   17   18 1   
    36   17   36 1   
    37   17   37 1   
    38   18   19 1   
    39   18   38 1   
    40   18   39 1   
    41   19   40 1   
    42   19   41 1   
    43   19   42 1   
@<TRIPOS>SUBSTRUCTURE
     1 3M5         1 TEMP              0 ****  ****    0 ROOT
