@<TRIPOS>MOLECULE
3M8
   24    24     1     0     0
SMALL
bcc


@<TRIPOS>ATOM
      1 OAQ         0.0690    0.2050   -0.2100 o         1 3M8     -0.743200
      2 SAN         1.4650    0.0420   -0.1250 s6        1 3M8      1.430800
      3 OAO         1.9800    0.0330    1.1890 o         1 3M8     -0.743200
      4 OAP         1.9940   -0.9720   -0.9510 o         1 3M8     -0.743200
      5 CAM         2.1180    1.5730   -0.8390 c3        1 3M8     -0.278600
      6 CAL         3.6030    1.5540   -0.8350 c3        1 3M8      0.023700
      7 SAK         4.1090    3.0960   -1.5580 ss        1 3M8     -0.130000
      8 CAB         5.7840    3.0930   -1.5650 ca        1 3M8      0.098900
      9 CAC         6.5560    2.0310   -1.0730 ca        1 3M8     -0.268000
     10 CAD         7.9520    2.0930   -1.1090 ca        1 3M8      0.191100
     11 OAI         8.7430    1.0730   -0.6370 oh        1 3M8     -0.500100
     12 CAE         8.6260    3.2070   -1.6310 ca        1 3M8     -0.246000
     13 CAF         7.8580    4.2700   -2.1240 ca        1 3M8      0.210900
     14 FAH         8.4930    5.3530   -2.6320 f         1 3M8     -0.137900
     15 CAA         6.4450    4.2260   -2.0960 ca        1 3M8     -0.116000
     16 CAG         5.6990    5.3200   -2.6030 cg        1 3M8      0.259800
     17 NAJ         5.1040    6.2280   -3.0230 n1        1 3M8     -0.381800
     18 H1          1.7220    2.4280   -0.2420 h1        1 3M8      0.081700
     19 H2          1.7160    1.6680   -1.8760 h1        1 3M8      0.081700
     20 H3          3.9850    0.6900   -1.4370 h1        1 3M8      0.081700
     21 H4          3.9900    1.4610    0.2100 h1        1 3M8      0.081700
     22 H5          6.0650    1.1390   -0.6550 ha        1 3M8      0.158000
     23 H6          8.1610    0.3710   -0.3070 ho        1 3M8      0.429000
     24 H7          9.7220    3.2400   -1.6530 ha        1 3M8      0.160000
@<TRIPOS>BOND
     1    1    2 1   
     2    2    3 1   
     3    2    4 1   
     4    2    5 1   
     5    5    6 1   
     6    5   18 1   
     7    5   19 1   
     8    6    7 1   
     9    6   20 1   
    10    6   21 1   
    11    7    8 1   
    12    8    9 ar  
    13    8   15 ar  
    14    9   10 ar  
    15    9   22 1   
    16   10   11 1   
    17   10   12 ar  
    18   11   23 1   
    19   12   13 ar  
    20   12   24 1   
    21   13   14 1   
    22   13   15 ar  
    23   15   16 1   
    24   16   17 3   
@<TRIPOS>SUBSTRUCTURE
     1 3M8         1 TEMP              0 ****  ****    0 ROOT
