@<TRIPOS>MOLECULE
3M8
   24    24     1     0     0
SMALL
bcc


@<TRIPOS>ATOM
      1 OAQ        -0.1000    0.3060   -0.3610 o         1 3M8     -0.742867
      2 SAN         1.2850    0.1010   -0.2060 s6        1 3M8      1.431800
      3 OAO         1.7360    0.1110    1.1300 o         1 3M8     -0.742867
      4 OAP         1.8150   -0.9480   -0.9850 o         1 3M8     -0.742867
      5 CAM         2.0140    1.5950   -0.9270 c3        1 3M8     -0.279600
      6 CAL         3.4980    1.5610   -0.8450 c3        1 3M8      0.027700
      7 SAK         4.0260    3.0880   -1.5860 ss        1 3M8     -0.131000
      8 CAB         5.6980    3.1180   -1.5270 ca        1 3M8      0.090900
      9 CAC         6.4710    2.0880   -0.9760 ca        1 3M8     -0.212000
     10 CAD         7.8660    2.1860   -0.9630 ca        1 3M8      0.189100
     11 OAI         8.5510    1.1330   -0.4050 oh        1 3M8     -0.489100
     12 CAE         8.5320    3.3000   -1.4920 ca        1 3M8     -0.305000
     13 CAF         7.7610    4.3340   -2.0440 ca        1 3M8      0.216900
     14 FAH         8.3920    5.4160   -2.5590 f         1 3M8     -0.138900
     15 CAA         6.3510    4.2540   -2.0670 ca        1 3M8     -0.115000
     16 CAG         5.5980    5.3140   -2.6320 cg        1 3M8      0.259800
     17 NAJ         4.9970    6.1940   -3.1000 n1        1 3M8     -0.381800
     18 H1          1.6700    1.6640   -1.9860 h1        1 3M8      0.081200
     19 H2          1.6000    2.4740   -0.3780 h1        1 3M8      0.081200
     20 H3          3.9060    0.6830   -1.4040 h1        1 3M8      0.083700
     21 H4          3.8350    1.4960    0.2200 h1        1 3M8      0.083700
     22 H5          5.9960    1.1910   -0.5480 ha        1 3M8      0.174000
     23 H6          9.4980    1.3280   -0.4610 ho        1 3M8      0.416000
     24 H7          9.6260    3.3730   -1.4800 ha        1 3M8      0.144000
@<TRIPOS>BOND
     1    1    2 1   
     2    2    3 1   
     3    2    4 1   
     4    2    5 1   
     5    5    6 1   
     6    5   18 1   
     7    5   19 1   
     8    6    7 1   
     9    6   20 1   
    10    6   21 1   
    11    7    8 1   
    12    8    9 ar  
    13    8   15 ar  
    14    9   10 ar  
    15    9   22 1   
    16   10   11 1   
    17   10   12 ar  
    18   11   23 1   
    19   12   13 ar  
    20   12   24 1   
    21   13   14 1   
    22   13   15 ar  
    23   15   16 1   
    24   16   17 3   
@<TRIPOS>SUBSTRUCTURE
     1 3M8         1 TEMP              0 ****  ****    0 ROOT
