@<TRIPOS>MOLECULE
3M9
   57    60     1     0     0
SMALL
bcc


@<TRIPOS>ATOM
      1 C01         2.1430    0.9660    0.3490 c3        1 3M9      0.082000
      2 N02         1.0410    1.2680   -0.5560 na        1 3M9      0.048400
      3 C09         0.7000    0.6070   -1.7620 cc        1 3M9     -0.274900
      4 C10        -0.4430    1.3010   -2.2120 cd        1 3M9      0.330200
      5 N11        -0.7140    2.3050   -1.2620 nd        1 3M9     -0.301000
      6 N12         0.1450    2.2590   -0.3300 nc        1 3M9     -0.133800
      7 C23         1.3960   -0.5200   -2.4090 c3        1 3M9      0.205100
      8 N24         0.7010   -1.8250   -2.1670 ny        1 3M9     -0.690800
      9 C25         1.3400   -2.9370   -3.0000 c         1 3M9      0.588700
     10 C26         0.4400   -3.7990   -3.7490 ca        1 3M9     -0.240600
     11 O27         2.5640   -2.9520   -2.9630 o         1 3M9     -0.440100
     12 C28        -0.9100   -4.0080   -3.4120 ca        1 3M9     -0.033000
     13 C29        -1.6980   -4.8560   -4.1710 ca        1 3M9     -0.170500
     14 C30        -1.1410   -5.5210   -5.2910 ca        1 3M9      0.234900
     15 C31         0.2160   -5.3280   -5.6230 ca        1 3M9     -0.170500
     16 C32         0.9970   -4.4800   -4.8530 ca        1 3M9     -0.033000
     17 F33        -1.9080   -6.3390   -6.0290 f         1 3M9     -0.080900
     18 C03         1.7010    0.1510    1.5810 c3        1 3M9     -0.052100
     19 C13         1.1800   -1.1960    1.2270 ca        1 3M9     -0.135300
     20 C14         2.0390   -2.2500    0.9990 ca        1 3M9     -0.124000
     21 C15         1.5390   -3.5590    0.7610 ca        1 3M9     -0.072000
     22 C16         0.1350   -3.7750    0.7630 ca        1 3M9     -0.061000
     23 C17        -0.7320   -2.6700    0.9920 ca        1 3M9     -0.123000
     24 C18        -0.2250   -1.4150    1.2170 ca        1 3M9     -0.146000
     25 C19         2.4110   -4.6660    0.5730 ca        1 3M9     -0.123000
     26 C20         1.9010   -5.9320    0.4080 ca        1 3M9     -0.098000
     27 C21         0.5010   -6.1480    0.4180 ca        1 3M9     -0.094000
     28 C22        -0.3640   -5.0930    0.5860 ca        1 3M9     -0.128000
     29 C04         2.8120    2.2780    0.8350 c3        1 3M9     -0.162400
     30 C05         4.1670    2.0140    1.3930 c         1 3M9      0.592100
     31 N06         4.8620    3.2540    2.0450 ny        1 3M9     -0.473300
     32 O07         4.8590    1.0180    1.4300 o         1 3M9     -0.383100
     33 O08         4.5990    4.3230    1.2620 oh        1 3M9     -0.362300
     34 H1          2.9020    0.3630   -0.2350 h1        1 3M9      0.082700
     35 H2         -1.0490    1.1810   -3.1120 h4        1 3M9      0.086100
     36 H3          1.4090   -0.3440   -3.5280 hx        1 3M9      0.124700
     37 H4          2.4650   -0.6340   -2.0620 hx        1 3M9      0.124700
     38 H5         -0.2900   -1.7320   -2.4100 hn        1 3M9      0.467300
     39 H6         -1.3660   -3.5360   -2.5270 ha        1 3M9      0.154500
     40 H7         -2.7560   -5.0290   -3.9130 ha        1 3M9      0.190000
     41 H8          0.6470   -5.8580   -6.4910 ha        1 3M9      0.190000
     42 H9          2.0630   -4.3360   -5.1030 ha        1 3M9      0.154500
     43 H10         2.6030    0.0360    2.2430 hc        1 3M9      0.079700
     44 H11         0.9220    0.7220    2.1570 hc        1 3M9      0.079700
     45 H12         3.1310   -2.1090    1.0420 ha        1 3M9      0.144000
     46 H13        -1.8190   -2.8510    1.0290 ha        1 3M9      0.161000
     47 H14        -0.9020   -0.5730    1.4350 ha        1 3M9      0.155000
     48 H15         3.4990   -4.4950    0.5840 ha        1 3M9      0.150000
     49 H16         2.5750   -6.7950    0.2820 ha        1 3M9      0.164000
     50 H17         0.1180   -7.1750    0.3030 ha        1 3M9      0.164000
     51 H18        -1.4540   -5.2570    0.6170 ha        1 3M9      0.154000
     52 H19         2.9300    3.0170   -0.0150 hc        1 3M9      0.143700
     53 H20         2.1570    2.7730    1.6080 hc        1 3M9      0.143700
     54 H21         4.4780    3.3950    2.9980 hn        1 3M9      0.475300
     55 H22         5.0970    5.1070    1.5980 ho        1 3M9      0.491000
     56 H242        0.7660   -2.0750   -1.1640 hn        1 3M9      0.467300
     57 H062        5.8840    3.0710    2.1120 hn        1 3M9      0.475300
@<TRIPOS>BOND
     1    1    2 1   
     2    1   18 1   
     3    1   29 1   
     4    1   34 1   
     5    2    3 1   
     6    2    6 1   
     7    3    4 2   
     8    3    7 1   
     9    4    5 1   
    10    4   35 1   
    11    5    6 2   
    12    7    8 1   
    13    7   36 1   
    14    7   37 1   
    15    8    9 1   
    16    8   38 1   
    17    8   56 1   
    18    9   10 1   
    19    9   11 2   
    20   10   12 ar  
    21   10   16 ar  
    22   12   13 ar  
    23   12   39 1   
    24   13   14 ar  
    25   13   40 1   
    26   14   15 ar  
    27   14   17 1   
    28   15   16 ar  
    29   15   41 1   
    30   16   42 1   
    31   18   19 1   
    32   18   43 1   
    33   18   44 1   
    34   19   20 ar  
    35   19   24 ar  
    36   20   21 ar  
    37   20   45 1   
    38   21   22 ar  
    39   21   25 ar  
    40   22   23 ar  
    41   22   28 ar  
    42   23   24 ar  
    43   23   46 1   
    44   24   47 1   
    45   25   26 ar  
    46   25   48 1   
    47   26   27 ar  
    48   26   49 1   
    49   27   28 ar  
    50   27   50 1   
    51   28   51 1   
    52   29   30 1   
    53   29   52 1   
    54   29   53 1   
    55   30   31 1   
    56   30   32 2   
    57   31   33 1   
    58   31   54 1   
    59   31   57 1   
    60   33   55 1   
@<TRIPOS>SUBSTRUCTURE
     1 3M9         1 TEMP              0 ****  ****    0 ROOT
