@<TRIPOS>MOLECULE
3M9
   57    60     1     0     0
SMALL
bcc


@<TRIPOS>ATOM
      1 C01         2.1060    0.9910    0.3860 c3        1 3M9      0.084000
      2 N02         1.0120    1.2860   -0.5320 na        1 3M9      0.047400
      3 C09         0.6860    0.6220   -1.7390 cc        1 3M9     -0.273900
      4 C10        -0.4580    1.3070   -2.2000 cd        1 3M9      0.328200
      5 N11        -0.7450    2.3100   -1.2540 nd        1 3M9     -0.299000
      6 N12         0.1060    2.2710   -0.3140 nc        1 3M9     -0.134800
      7 C23         1.3930   -0.5020   -2.3790 c3        1 3M9      0.205100
      8 N24         0.6840   -1.8060   -2.1690 n4        1 3M9     -0.690800
      9 C25         1.3210   -2.9090   -3.0160 c         1 3M9      0.589700
     10 C26         0.4170   -3.7730   -3.7590 ca        1 3M9     -0.240600
     11 O27         2.5450   -2.9160   -2.9940 o         1 3M9     -0.440100
     12 C28        -0.9310   -3.9810   -3.4160 ca        1 3M9     -0.033000
     13 C29        -1.7220   -4.8310   -4.1700 ca        1 3M9     -0.170500
     14 C30        -1.1710   -5.4960   -5.2920 ca        1 3M9      0.234900
     15 C31         0.1850   -5.3030   -5.6310 ca        1 3M9     -0.170500
     16 C32         0.9690   -4.4530   -4.8650 ca        1 3M9     -0.033000
     17 F33        -1.9410   -6.3150   -6.0270 f         1 3M9     -0.080900
     18 C03         1.6610    0.1550    1.6020 c3        1 3M9     -0.052100
     19 C13         1.1720   -1.1980    1.2270 ca        1 3M9     -0.135300
     20 C14         2.0550   -2.2310    0.9970 ca        1 3M9     -0.122000
     21 C15         1.5850   -3.5480    0.7420 ca        1 3M9     -0.071000
     22 C16         0.1860   -3.7940    0.7310 ca        1 3M9     -0.061000
     23 C17        -0.7070   -2.7100    0.9610 ca        1 3M9     -0.124000
     24 C18        -0.2290   -1.4470    1.2020 ca        1 3M9     -0.146000
     25 C19         2.4820   -4.6340    0.5510 ca        1 3M9     -0.123000
     26 C20         2.0000   -5.9100    0.3710 ca        1 3M9     -0.097000
     27 C21         0.6060   -6.1550    0.3680 ca        1 3M9     -0.093000
     28 C22        -0.2840   -5.1210    0.5380 ca        1 3M9     -0.128000
     29 C04         2.7440    2.3100    0.8980 c3        1 3M9     -0.167400
     30 C05         4.0980    2.0640    1.4720 c         1 3M9      0.560100
     31 N06         4.7470    3.3010    2.1530 n4        1 3M9     -0.471300
     32 O07         4.8030    1.0750    1.4940 o         1 3M9     -0.382100
     33 O08         4.8840    4.3150    1.2690 oh        1 3M9     -0.348300
     34 H1          2.8840    0.4100   -0.1950 h1        1 3M9      0.082700
     35 H2         -1.0560    1.1820   -3.1050 h4        1 3M9      0.086100
     36 H3          1.4380   -0.3160   -3.4960 hx        1 3M9      0.124700
     37 H4          2.4510   -0.6270   -2.0040 hx        1 3M9      0.124700
     38 H5         -0.3040   -1.7000   -2.4220 hn        1 3M9      0.467800
     39 H6         -1.3830   -3.5090   -2.5300 ha        1 3M9      0.154000
     40 H7         -2.7800   -5.0040   -3.9070 ha        1 3M9      0.190000
     41 H8          0.6120   -5.8330   -6.5010 ha        1 3M9      0.190000
     42 H9          2.0340   -4.3090   -5.1210 ha        1 3M9      0.154000
     43 H10         0.8620    0.7050    2.1710 hc        1 3M9      0.080200
     44 H11         2.5540    0.0510    2.2760 hc        1 3M9      0.080200
     45 H12         3.1430   -2.0680    1.0510 ha        1 3M9      0.144000
     46 H13        -1.7900   -2.9140    0.9880 ha        1 3M9      0.161000
     47 H14        -0.9240   -0.6210    1.4230 ha        1 3M9      0.156000
     48 H15         3.5660   -4.4400    0.5720 ha        1 3M9      0.150000
     49 H16         2.6930   -6.7570    0.2430 ha        1 3M9      0.164000
     50 H17         0.2450   -7.1900    0.2410 ha        1 3M9      0.164000
     51 H18        -1.3700   -5.3080    0.5590 ha        1 3M9      0.154000
     52 H19         2.8560    3.0630    0.0630 hc        1 3M9      0.141200
     53 H20         2.0670    2.7740    1.6720 hc        1 3M9      0.141200
     54 H21         4.1060    3.6630    2.8900 hn        1 3M9      0.488300
     55 H22         5.7660    4.2520    0.8330 ho        1 3M9      0.486000
     56 H242        0.7360   -2.0750   -1.1700 hn        1 3M9      0.467800
     57 H062        5.6470    3.0350    2.5970 hn        1 3M9      0.488300
@<TRIPOS>BOND
     1    1    2 1   
     2    1   18 1   
     3    1   29 1   
     4    1   34 1   
     5    2    3 1   
     6    2    6 1   
     7    3    4 2   
     8    3    7 1   
     9    4    5 1   
    10    4   35 1   
    11    5    6 2   
    12    7    8 1   
    13    7   36 1   
    14    7   37 1   
    15    8    9 1   
    16    8   38 1   
    17    8   56 1   
    18    9   10 1   
    19    9   11 2   
    20   10   12 ar  
    21   10   16 ar  
    22   12   13 ar  
    23   12   39 1   
    24   13   14 ar  
    25   13   40 1   
    26   14   15 ar  
    27   14   17 1   
    28   15   16 ar  
    29   15   41 1   
    30   16   42 1   
    31   18   19 1   
    32   18   43 1   
    33   18   44 1   
    34   19   20 ar  
    35   19   24 ar  
    36   20   21 ar  
    37   20   45 1   
    38   21   22 ar  
    39   21   25 ar  
    40   22   23 ar  
    41   22   28 ar  
    42   23   24 ar  
    43   23   46 1   
    44   24   47 1   
    45   25   26 ar  
    46   25   48 1   
    47   26   27 ar  
    48   26   49 1   
    49   27   28 ar  
    50   27   50 1   
    51   28   51 1   
    52   29   30 1   
    53   29   52 1   
    54   29   53 1   
    55   30   31 1   
    56   30   32 2   
    57   31   33 1   
    58   31   54 1   
    59   31   57 1   
    60   33   55 1   
@<TRIPOS>SUBSTRUCTURE
     1 3M9         1 TEMP              0 ****  ****    0 ROOT
