@<TRIPOS>MOLECULE
3MA
   20    21     1     0     0
SMALL
bcc


@<TRIPOS>ATOM
      1 N9         -0.0210   -0.0690    0.0130 na        1 3MA     -0.286500
      2 C4          1.3630   -0.0210    0.0310 cc        1 3MA      0.090700
      3 N3          2.2980    0.0120    1.0310 na        1 3MA     -0.103900
      4 CN3         1.9290   -0.0010    2.4380 c3        1 3MA     -0.042400
      5 C2          3.6300    0.0570    0.6190 cc        1 3MA      0.606400
      6 N1          4.0640    0.0710   -0.6470 nd        1 3MA     -0.637000
      7 C6          3.1520    0.0400   -1.6690 cd        1 3MA      0.604200
      8 N6          3.6370    0.0670   -3.0590 n4        1 3MA     -0.825300
      9 C5          1.7770   -0.0070   -1.4040 cc        1 3MA     -0.019900
     10 N7          0.6330   -0.0490   -2.2090 nc        1 3MA     -0.528100
     11 C8         -0.4060   -0.0840   -1.3600 cd        1 3MA      0.564700
     12 HN9        -0.6370   -0.0900    0.7990 hn        1 3MA      0.376700
     13 H31         1.3610   -0.9450    2.6680 h1        1 3MA      0.123700
     14 H32         2.8560    0.0340    3.0770 h1        1 3MA      0.123700
     15 H33         1.2930    0.9000    2.6670 h1        1 3MA      0.123700
     16 H2          4.4180    0.0830    1.4220 h5        1 3MA      0.148100
     17 HN61        3.7480    1.0500   -3.3620 hn        1 3MA      0.507467
     18 HN62        2.9510   -0.4030   -3.6740 hn        1 3MA      0.507467
     19 H8         -1.4780   -0.1220   -1.6540 h5        1 3MA      0.158800
     20 H63         4.5540   -0.4090   -3.1400 hn        1 3MA      0.507467
@<TRIPOS>BOND
     1    1    2 2   
     2    1   11 1   
     3    1   12 1   
     4    2    3 1   
     5    2    9 1   
     6    3    4 1   
     7    3    5 1   
     8    4   13 1   
     9    4   14 1   
    10    4   15 1   
    11    5    6 2   
    12    5   16 1   
    13    6    7 1   
    14    7    8 1   
    15    7    9 2   
    16    8   17 1   
    17    8   18 1   
    18    8   20 1   
    19    9   10 1   
    20   10   11 2   
    21   11   19 1   
@<TRIPOS>SUBSTRUCTURE
     1 3MA         1 TEMP              0 ****  ****    0 ROOT
