@<TRIPOS>MOLECULE
3MA
   19    20     1     0     0
SMALL
bcc


@<TRIPOS>ATOM
      1 N9         -0.0300    0.0870    0.0140 na        1 3MA     -0.292500
      2 C4          1.3590    0.0280    0.0070 cc        1 3MA      0.063700
      3 N3          2.2960   -0.0400    1.0250 na        1 3MA     -0.208900
      4 CN3         1.9120   -0.0640    2.4160 c3        1 3MA     -0.008400
      5 C2          3.6210   -0.0840    0.6010 cc        1 3MA      0.630400
      6 N1          4.0670   -0.0680   -0.6440 nd        1 3MA     -0.738000
      7 C6          3.1600    0.0010   -1.7120 cd        1 3MA      0.821200
      8 N6          3.5900    0.0180   -2.9850 nv        1 3MA     -0.860500
      9 C5          1.7570    0.0510   -1.3890 cc        1 3MA     -0.140900
     10 N7          0.6160    0.1220   -2.1980 nc        1 3MA     -0.500100
     11 C8         -0.4220    0.1420   -1.3500 cd        1 3MA      0.445700
     12 HN9        -0.6240    0.0900    0.8060 hn        1 3MA      0.340700
     13 H31         2.8290   -0.1190    3.0620 h1        1 3MA      0.086700
     14 H32         1.2680   -0.9630    2.6150 h1        1 3MA      0.086700
     15 H33         1.3430    0.8730    2.6670 h1        1 3MA      0.086700
     16 H2          4.3950   -0.1400    1.4070 h5        1 3MA      0.099100
     17 HN61        2.9270    0.0680   -3.7290 hn        1 3MA      0.486800
     18 HN62        4.5630   -0.0170   -3.2070 hn        1 3MA      0.486800
     19 H8         -1.4850    0.1960   -1.6340 h5        1 3MA      0.115800
@<TRIPOS>BOND
     1    1    2 2   
     2    1   11 1   
     3    1   12 1   
     4    2    3 1   
     5    2    9 1   
     6    3    4 1   
     7    3    5 1   
     8    4   13 1   
     9    4   14 1   
    10    4   15 1   
    11    5    6 2   
    12    5   16 1   
    13    6    7 1   
    14    7    8 1   
    15    7    9 2   
    16    8   17 1   
    17    8   18 1   
    18    9   10 1   
    19   10   11 2   
    20   11   19 1   
@<TRIPOS>SUBSTRUCTURE
     1 3MA         1 TEMP              0 ****  ****    0 ROOT
