@<TRIPOS>MOLECULE
3MA
   19    20     1     0     0
SMALL
bcc


@<TRIPOS>ATOM
      1 N9          1.3530   -1.6010    0.0600 na        1 3MA     -0.292500
      2 C4          0.7600   -0.3450    0.0170 cc        1 3MA      0.063700
      3 N3          1.2870    0.9350   -0.0210 na        1 3MA     -0.208900
      4 CN3         2.7090    1.1760   -0.0200 c3        1 3MA     -0.008400
      5 C2          0.3430    1.9580   -0.0590 cc        1 3MA      0.630400
      6 N1         -0.9740    1.8360   -0.0620 nd        1 3MA     -0.738000
      7 C6         -1.5600    0.5610   -0.0250 cd        1 3MA      0.821200
      8 N6         -2.8940    0.4130   -0.0280 nh        1 3MA     -0.860500
      9 C5         -0.6730   -0.5750    0.0160 cc        1 3MA     -0.140900
     10 N7         -0.9260   -1.9520    0.0580 nc        1 3MA     -0.500100
     11 C8          0.2820   -2.5350    0.0840 cd        1 3MA      0.445700
     12 HN9         2.3210   -1.8050    0.0720 hn        1 3MA      0.340700
     13 H31         2.9090    2.2810   -0.0540 h1        1 3MA      0.086700
     14 H32         3.1650    0.7500    0.9150 h1        1 3MA      0.086700
     15 H33         3.1760    0.6920   -0.9210 h1        1 3MA      0.086700
     16 H2          0.7470    3.0010   -0.0890 h5        1 3MA      0.099100
     17 HN61       -3.5060    1.2010   -0.0570 hn        1 3MA      0.486800
     18 HN62       -3.2890   -0.5040   -0.0010 hn        1 3MA      0.486800
     19 H8          0.4730   -3.6190    0.1190 h5        1 3MA      0.115800
@<TRIPOS>BOND
     1    1    2 2   
     2    1   11 1   
     3    1   12 1   
     4    2    3 1   
     5    2    9 1   
     6    3    4 1   
     7    3    5 1   
     8    4   13 1   
     9    4   14 1   
    10    4   15 1   
    11    5    6 2   
    12    5   16 1   
    13    6    7 1   
    14    7    8 1   
    15    7    9 2   
    16    8   17 1   
    17    8   18 1   
    18    9   10 1   
    19   10   11 2   
    20   11   19 1   
@<TRIPOS>SUBSTRUCTURE
     1 3MA         1 TEMP              0 ****  ****    0 ROOT
