@<TRIPOS>MOLECULE
3MA
   19    14     1     0     0
SMALL
bcc


@<TRIPOS>ATOM
      1 N9         -2.0360    0.0270    0.1600 n2        1 3MA     -0.204000
      2 C4         -0.6760    0.0270    0.1600 c1        1 3MA      0.088000
      3 N3          0.2370    0.0270    1.1710 n2        1 3MA     -0.164000
      4 CN3        -0.0160   -0.0390    2.5710 c3        1 3MA     -0.107000
      5 C2          1.5710    0.0270    0.8870 c1        1 3MA      0.142000
      6 N1          1.9930    0.0270   -0.4120 n1        1 3MA     -0.212000
      7 C6          1.0960    0.0270   -1.4100 c1        1 3MA      0.300000
      8 N6          1.8010   -0.0310   -2.6400 n2        1 3MA     -0.258000
      9 C5         -0.2600    0.0270   -1.1230 c1        1 3MA     -0.215000
     10 N7         -1.3610    0.0270   -1.9210 n1        1 3MA     -0.073000
     11 C8         -2.4540    0.0270   -1.1260 c1        1 3MA     -0.010000
     12 HN9        -2.5720    0.0270    0.8980 DU        1 3MA      0.268000
     13 H31        -0.9770    0.0150    2.7310 h1        1 3MA      0.126000
     14 H32         0.4300    0.7050    3.0180 h1        1 3MA      0.126000
     15 H33         0.3260   -0.8830    2.9240 h1        1 3MA      0.126000
     16 H2          2.2250    0.0270    1.6120 ha        1 3MA      0.236000
     17 HN61        2.7130   -0.0460   -2.6420 hn        1 3MA      0.282000
     18 HN62        1.3430   -0.0420   -3.4290 hn        1 3MA      0.282000
     19 H8         -3.3830    0.0240   -1.4270 DU        1 3MA      0.268000
@<TRIPOS>BOND
     1    1    2 1   
     2    1   11 1   
     3    2    9 1   
     4    3    4 1   
     5    3    5 1   
     6    4   13 1   
     7    4   14 1   
     8    4   15 1   
     9    5   16 1   
    10    6    7 1   
    11    7    9 1   
    12    8   17 1   
    13    8   18 1   
    14   10   11 1   
@<TRIPOS>SUBSTRUCTURE
     1 3MA         1 TEMP              0 ****  ****    0 ROOT
