@<TRIPOS>MOLECULE
3MA
   19    20     1     0     0
SMALL
bcc


@<TRIPOS>ATOM
      1 N9         -0.0300    0.0850    0.0070 na        1 3MA     -0.292500
      2 C4          1.3580    0.0280    0.0050 cc        1 3MA      0.063700
      3 N3          2.2910   -0.0400    1.0260 na        1 3MA     -0.208900
      4 CN3         1.9030   -0.0640    2.4150 c3        1 3MA     -0.008400
      5 C2          3.6190   -0.0830    0.6070 cc        1 3MA      0.630400
      6 N1          4.0690   -0.0660   -0.6360 nd        1 3MA     -0.738000
      7 C6          3.1660    0.0020   -1.7080 cd        1 3MA      0.821200
      8 N6          3.6000    0.0210   -2.9790 nh        1 3MA     -0.860500
      9 C5          1.7610    0.0510   -1.3890 cc        1 3MA     -0.140900
     10 N7          0.6230    0.1220   -2.2030 nc        1 3MA     -0.500100
     11 C8         -0.4180    0.1400   -1.3580 cd        1 3MA      0.445700
     12 HN9        -0.6270    0.0870    0.7970 hn        1 3MA      0.340700
     13 H31         2.8180   -0.1180    3.0650 h1        1 3MA      0.087033
     14 H32         1.2600   -0.9650    2.6130 h1        1 3MA      0.087033
     15 H33         1.3310    0.8710    2.6650 h1        1 3MA      0.087033
     16 H2          4.3890   -0.1380    1.4160 h5        1 3MA      0.099100
     17 HN61        4.5740   -0.0130   -3.1980 hn        1 3MA      0.486800
     18 HN62        2.9390    0.0700   -3.7260 hn        1 3MA      0.486800
     19 H8         -1.4810    0.1930   -1.6460 h5        1 3MA      0.115800
@<TRIPOS>BOND
     1    1    2 2   
     2    1   11 1   
     3    1   12 1   
     4    2    3 1   
     5    2    9 1   
     6    3    4 1   
     7    3    5 1   
     8    4   13 1   
     9    4   14 1   
    10    4   15 1   
    11    5    6 2   
    12    5   16 1   
    13    6    7 1   
    14    7    8 1   
    15    7    9 2   
    16    8   17 1   
    17    8   18 1   
    18    9   10 1   
    19   10   11 2   
    20   11   19 1   
@<TRIPOS>SUBSTRUCTURE
     1 3MA         1 TEMP              0 ****  ****    0 ROOT
