@<TRIPOS>MOLECULE
3MB
   20    17     1     0     0
SMALL
bcc


@<TRIPOS>ATOM
      1 C3         -1.1060   -0.2830   -0.7160 c1        1 3MB      0.073000
      2 O3         -1.8430   -0.4050   -1.9120 o         1 3MB     -0.206000
      3 C7         -2.1930    0.8470   -2.5160 c3        1 3MB     -0.077000
      4 C2          0.2870   -0.3590   -0.7470 c1        1 3MB     -0.104000
      5 C1          1.0230   -0.3350    0.4620 c1        1 3MB     -0.089000
      6 C           2.5030   -0.3610    0.4260 c2        1 3MB      0.343000
      7 O           3.0610   -0.4010   -0.6020 o         1 3MB     -0.365000
      8 N           3.2470   -0.2450    1.6290 n         1 3MB     -0.434000
      9 C6          0.3550   -0.2360    1.6800 c1        1 3MB     -0.143000
     10 C5         -1.0410   -0.1590    1.7090 c1        1 3MB     -0.103000
     11 C4         -1.7720   -0.1830    0.5070 c2        1 3MB     -0.186000
     12 H71        -3.0820    1.1090   -2.2270 h1        1 3MB      0.085000
     13 H72        -2.1820    0.7510   -3.5080 h1        1 3MB      0.085000
     14 H73        -1.5340    1.5470   -2.2420 h1        1 3MB      0.085000
     15 H2          0.7630   -0.3780   -1.6180 ha        1 3MB      0.171000
     16 HN1         2.8800    0.1670    2.3560 hn        1 3MB      0.226500
     17 HN2         4.0530   -0.6390    1.6960 hn        1 3MB      0.226500
     18 H6          0.8810   -0.2200    2.5460 ha        1 3MB      0.136000
     19 H5         -1.4990   -0.0910    2.5470 ha        1 3MB      0.136000
     20 H4         -2.8000   -0.1270    0.5290 ha        1 3MB      0.140000
@<TRIPOS>BOND
     1    1    4 1   
     2    1   11 1   
     3    2    3 1   
     4    3   12 1   
     5    3   13 1   
     6    3   14 1   
     7    4   15 1   
     8    5    6 1   
     9    5    9 1   
    10    6    7 1   
    11    6    8 1   
    12    8   16 1   
    13    8   17 1   
    14    9   18 1   
    15   10   11 1   
    16   10   19 1   
    17   11   20 1   
@<TRIPOS>SUBSTRUCTURE
     1 3MB         1 TEMP              0 ****  ****    0 ROOT
