@<TRIPOS>MOLECULE
3MB
   21    21     1     0     0
SMALL
bcc


@<TRIPOS>ATOM
      1 C3         -0.0930    0.0050    0.1750 ca        1 3MB      0.142100
      2 O3         -0.7320    0.0100   -1.0380 os        1 3MB     -0.305900
      3 C7         -2.1610    0.0010   -1.0120 c3        1 3MB      0.104700
      4 C2          1.3150    0.0160    0.0930 ca        1 3MB     -0.069000
      5 C1          2.0680    0.0120    1.2750 ca        1 3MB     -0.170600
      6 C           3.5170    0.0230    1.1070 c         1 3MB      0.576700
      7 O           4.1880    0.0470    0.0870 o         1 3MB     -0.411100
      8 N           4.3580    0.0010    2.3780 nz        1 3MB     -0.763400
      9 C6          1.4290   -0.0020    2.5270 ca        1 3MB     -0.142000
     10 C5          0.0400   -0.0120    2.5870 ca        1 3MB     -0.077000
     11 C4         -0.7310   -0.0090    1.4230 ca        1 3MB     -0.134000
     12 H71        -2.4290    0.0070   -2.1010 h1        1 3MB      0.064700
     13 H72        -2.5480    0.9150   -0.5020 h1        1 3MB      0.064700
     14 H73        -2.5370   -0.9260   -0.5160 h1        1 3MB      0.064700
     15 H2          1.8010    0.0270   -0.8980 ha        1 3MB      0.189000
     16 HN1         4.1460    0.8250    2.9470 hn        1 3MB      0.467800
     17 HN2         5.3560    0.0050    2.1330 hn        1 3MB      0.467800
     18 H6          1.9890   -0.0040    3.4730 ha        1 3MB      0.124000
     19 H5         -0.4640   -0.0220    3.5690 ha        1 3MB      0.167000
     20 H4         -1.8310   -0.0170    1.4950 ha        1 3MB      0.173000
     21 HN3         4.1460   -0.8410    2.9200 hn        1 3MB      0.467800
@<TRIPOS>BOND
     1    1    2 1   
     2    1    4 ar  
     3    1   11 ar  
     4    2    3 1   
     5    3   12 1   
     6    3   13 1   
     7    3   14 1   
     8    4    5 ar  
     9    4   15 1   
    10    5    6 1   
    11    5    9 ar  
    12    6    7 2   
    13    6    8 1   
    14    8   16 1   
    15    8   17 1   
    16    8   21 1   
    17    9   10 ar  
    18    9   18 1   
    19   10   11 ar  
    20   10   19 1   
    21   11   20 1   
@<TRIPOS>SUBSTRUCTURE
     1 3MB         1 TEMP              0 ****  ****    0 ROOT
