@<TRIPOS>MOLECULE
3MB
   20    20     1     0     0
SMALL
bcc


@<TRIPOS>ATOM
      1 C3          0.1290    0.0130    1.4150 ca        1 3MB      0.118100
      2 O3          1.0700    0.1580    2.4160 os        1 3MB     -0.322900
      3 C7          0.5730    0.1660    3.7490 c3        1 3MB      0.112700
      4 C2          0.6620   -0.0490    0.1130 ca        1 3MB     -0.104000
      5 C1         -0.2080   -0.1780   -0.9680 ca        1 3MB     -0.109600
      6 C           0.3810   -0.2480   -2.3370 c         1 3MB      0.669700
      7 O           1.4430   -0.8610   -2.5710 o         1 3MB     -0.604100
      8 N          -0.2770    0.3980   -3.3560 n         1 3MB     -0.674000
      9 C6         -1.5910   -0.2630   -0.7620 ca        1 3MB     -0.143000
     10 C5         -2.1020   -0.2080    0.5320 ca        1 3MB     -0.103000
     11 C4         -1.2510   -0.0650    1.6290 ca        1 3MB     -0.186000
     12 H71         1.5000    0.2620    4.3700 h1        1 3MB      0.045700
     13 H72        -0.1020    1.0410    3.9120 h1        1 3MB      0.045700
     14 H73         0.0410   -0.7890    3.9790 h1        1 3MB      0.045700
     15 H2          1.7510   -0.0080   -0.0410 ha        1 3MB      0.171000
     16 HN1         0.1100    0.3900   -4.2660 hn        1 3MB      0.313000
     17 HN2        -1.0830    0.9390   -3.1800 hn        1 3MB      0.313000
     18 H6         -2.2770   -0.3920   -1.6120 ha        1 3MB      0.136000
     19 H5         -3.1880   -0.2800    0.6950 ha        1 3MB      0.136000
     20 H4         -1.6720   -0.0200    2.6430 ha        1 3MB      0.140000
@<TRIPOS>BOND
     1    1    2 1   
     2    1    4 ar  
     3    1   11 ar  
     4    2    3 1   
     5    3   12 1   
     6    3   13 1   
     7    3   14 1   
     8    4    5 ar  
     9    4   15 1   
    10    5    6 1   
    11    5    9 ar  
    12    6    7 2   
    13    6    8 1   
    14    8   16 1   
    15    8   17 1   
    16    9   10 ar  
    17    9   18 1   
    18   10   11 ar  
    19   10   19 1   
    20   11   20 1   
@<TRIPOS>SUBSTRUCTURE
     1 3MB         1 TEMP              0 ****  ****    0 ROOT
