@<TRIPOS>MOLECULE
3MB
   21    21     1     0     0
SMALL
bcc


@<TRIPOS>ATOM
      1 C3         -0.0930    0.0040    0.1750 ca        1 3MB      0.142100
      2 O3         -0.7310    0.0090   -1.0390 os        1 3MB     -0.305900
      3 C7         -2.1600    0.0030   -1.0140 c3        1 3MB      0.104700
      4 C2          1.3150    0.0110    0.0930 ca        1 3MB     -0.069000
      5 C1          2.0680    0.0060    1.2760 ca        1 3MB     -0.170600
      6 C           3.5170    0.0130    1.1090 c         1 3MB      0.576700
      7 O           4.1890    0.0230    0.0880 o         1 3MB     -0.411100
      8 N           4.3570    0.0090    2.3800 n4        1 3MB     -0.763400
      9 C6          1.4280   -0.0050    2.5270 ca        1 3MB     -0.142000
     10 C5          0.0390   -0.0110    2.5870 ca        1 3MB     -0.077000
     11 C4         -0.7320   -0.0070    1.4220 ca        1 3MB     -0.134000
     12 H71        -2.4270    0.0090   -2.1030 h1        1 3MB      0.064700
     13 H72        -2.5460    0.9190   -0.5050 h1        1 3MB      0.064700
     14 H73        -2.5380   -0.9230   -0.5170 h1        1 3MB      0.064700
     15 H2          1.8020    0.0190   -0.8970 ha        1 3MB      0.189000
     16 HN1         4.1410    0.8370    2.9410 hn        1 3MB      0.467467
     17 HN2         5.3550    0.0150    2.1360 hn        1 3MB      0.467467
     18 H6          1.9870   -0.0090    3.4730 ha        1 3MB      0.124000
     19 H5         -0.4660   -0.0200    3.5680 ha        1 3MB      0.167000
     20 H4         -1.8310   -0.0120    1.4930 ha        1 3MB      0.173000
     21 HN3         4.1490   -0.8290    2.9300 hn        1 3MB      0.467467
@<TRIPOS>BOND
     1    1    2 1   
     2    1    4 ar  
     3    1   11 ar  
     4    2    3 1   
     5    3   12 1   
     6    3   13 1   
     7    3   14 1   
     8    4    5 ar  
     9    4   15 1   
    10    5    6 1   
    11    5    9 ar  
    12    6    7 2   
    13    6    8 1   
    14    8   16 1   
    15    8   17 1   
    16    8   21 1   
    17    9   10 ar  
    18    9   18 1   
    19   10   11 ar  
    20   10   19 1   
    21   11   20 1   
@<TRIPOS>SUBSTRUCTURE
     1 3MB         1 TEMP              0 ****  ****    0 ROOT
