@<TRIPOS>MOLECULE
3MC
   17    15     1     0     0
SMALL
bcc


@<TRIPOS>ATOM
      1 N3         -0.0300    0.0000   -0.7230 n2        1 3MC     -0.250000
      2 CN3        -0.7400    0.0000   -1.9570 c2        1 3MC     -0.119000
      3 N1          2.1650    0.0000    0.5410 n         1 3MC     -0.273000
      4 C2          1.4320    0.0000   -0.7230 c2        1 3MC      0.391000
      5 O2          2.0390   -0.0120   -1.7760 o         1 3MC     -0.250000
      6 C4         -0.7400    0.0000    0.5060 c1        1 3MC      0.329000
      7 N4         -2.1590   -0.0060    0.5060 n2        1 3MC     -0.309000
      8 C5         -0.0110    0.0000    1.7700 c2        1 3MC     -0.337000
      9 C6          1.4580    0.0000    1.7710 c2        1 3MC      0.140000
     10 H31        -1.3930   -0.7260   -1.9570 ha        1 3MC      0.133667
     11 H32        -1.2030    0.8530   -2.0670 ha        1 3MC      0.133667
     12 H33        -0.1130   -0.1260   -2.6940 ha        1 3MC      0.133667
     13 HN1         3.0770    0.0000    0.5400 hn        1 3MC      0.308000
     14 HN41       -2.6130   -0.4050    1.1890 hn        1 3MC      0.278000
     15 HN42       -2.6160    0.4210   -0.1580 hn        1 3MC      0.278000
     16 H5         -0.5000    0.0000    2.6160 ha        1 3MC      0.203000
     17 H6          1.9470    0.0000    2.6160 h4        1 3MC      0.211000
@<TRIPOS>BOND
     1    1    4 1   
     2    1    6 1   
     3    2   10 1   
     4    2   11 1   
     5    2   12 1   
     6    3    4 1   
     7    3    9 1   
     8    3   13 1   
     9    4    5 1   
    10    6    8 1   
    11    7   14 1   
    12    7   15 1   
    13    8    9 1   
    14    8   16 1   
    15    9   17 1   
@<TRIPOS>SUBSTRUCTURE
     1 3MC         1 TEMP              0 ****  ****    0 ROOT
