@<TRIPOS>MOLECULE
3MC
   18    18     1     0     0
SMALL
bcc


@<TRIPOS>ATOM
      1 N3         -0.0230    0.0010   -0.0510 n         1 3MC     -0.310400
      2 CN3        -0.7180    0.0100   -1.3270 c3        1 3MC      0.009300
      3 N1          2.0980   -0.0100    1.2060 n         1 3MC     -0.334100
      4 C2          1.4220   -0.0010   -0.0680 c         1 3MC      0.777500
      5 O2          2.0550    0.0040   -1.1180 o         1 3MC     -0.407500
      6 C4         -0.6820   -0.0050    1.1590 cc        1 3MC      0.392800
      7 N4         -2.1650   -0.0030    1.1800 n4        1 3MC     -0.815600
      8 C5          0.0020   -0.0140    2.3750 cc        1 3MC     -0.353600
      9 C6          1.4300   -0.0160    2.3580 cd        1 3MC      0.214600
     10 H31         0.0330    0.0160   -2.1750 h1        1 3MC      0.120367
     11 H32        -1.3440   -0.9190   -1.4300 h1        1 3MC      0.120367
     12 H33        -1.3450    0.9390   -1.4170 h1        1 3MC      0.120367
     13 HN1         3.1160   -0.0120    1.1570 hn        1 3MC      0.436500
     14 HN41       -2.5330    0.8470    0.7150 hn        1 3MC      0.508800
     15 HN42       -2.4950   -0.0150    2.1620 hn        1 3MC      0.508800
     16 H5         -0.5030   -0.0190    3.3600 ha        1 3MC      0.238000
     17 H6          2.0050   -0.0230    3.3230 h4        1 3MC      0.265000
     18 H43        -2.5370   -0.8370    0.6920 hn        1 3MC      0.508800
@<TRIPOS>BOND
     1    1    2 1   
     2    1    4 1   
     3    1    6 2   
     4    2   10 1   
     5    2   11 1   
     6    2   12 1   
     7    3    4 1   
     8    3    9 1   
     9    3   13 1   
    10    4    5 2   
    11    6    7 1   
    12    6    8 1   
    13    7   14 1   
    14    7   15 1   
    15    7   18 1   
    16    8    9 2   
    17    8   16 1   
    18    9   17 1   
@<TRIPOS>SUBSTRUCTURE
     1 3MC         1 TEMP              0 ****  ****    0 ROOT
