@<TRIPOS>MOLECULE
3MC
   17    17     1     0     0
SMALL
bcc


@<TRIPOS>ATOM
      1 N3          0.1840    0.7280    0.0140 n         1 3MC     -0.354400
      2 CN3         0.4710    2.1490    0.0180 c3        1 3MC      0.036300
      3 N1         -1.4800   -1.0670    0.0610 n         1 3MC     -0.429100
      4 C2         -1.1920    0.3190    0.0650 c         1 3MC      0.800500
      5 O2         -2.1020    1.1560    0.1110 o         1 3MC     -0.525500
      6 C4          1.1990   -0.2200   -0.0380 cc        1 3MC      0.454400
      7 N4          2.5040    0.1370   -0.0870 nh        1 3MC     -0.447200
      8 C5          0.8400   -1.6260   -0.0380 cc        1 3MC     -0.423600
      9 C6         -0.4840   -1.9950    0.0110 cd        1 3MC      0.142600
     10 H31         1.0890    2.4090    0.9190 h1        1 3MC      0.094367
     11 H32         1.0150    2.4290   -0.9250 h1        1 3MC      0.094367
     12 H33        -0.4910    2.7330    0.0630 h1        1 3MC      0.094367
     13 HN1        -2.4500   -1.3230    0.0980 hn        1 3MC      0.394500
     14 HN41        2.8050    1.0870   -0.0880 hn        1 3MC      0.327700
     15 HN42        3.1990   -0.5780   -0.1220 hn        1 3MC      0.327700
     16 H5          1.6300   -2.3910   -0.0790 ha        1 3MC      0.203000
     17 H6         -0.7930   -3.0640    0.0120 h4        1 3MC      0.211000
@<TRIPOS>BOND
     1    1    2 1   
     2    1    4 1   
     3    1    6 2   
     4    2   10 1   
     5    2   11 1   
     6    2   12 1   
     7    3    4 1   
     8    3    9 1   
     9    3   13 1   
    10    4    5 2   
    11    6    7 1   
    12    6    8 1   
    13    7   14 1   
    14    7   15 1   
    15    8    9 2   
    16    8   16 1   
    17    9   17 1   
@<TRIPOS>SUBSTRUCTURE
     1 3MC         1 TEMP              0 ****  ****    0 ROOT
