@<TRIPOS>MOLECULE
3MD
   17    16     1     0     0
SMALL
bcc


@<TRIPOS>ATOM
      1 N           1.5940    0.7330   -0.3910 n3        1 3MD     -0.915800
      2 CB         -0.5910   -0.1420    0.5250 c3        1 3MD     -0.186700
      3 CG         -0.0670   -0.3080    1.9640 c         1 3MD      0.905600
      4 OD1         0.7050    0.5730    2.4610 o         1 3MD     -0.882800
      5 OD2        -0.4500   -1.3110    2.6420 o         1 3MD     -0.882800
      6 CA          0.5400   -0.2580   -0.5220 c3        1 3MD      0.069500
      7 CB1        -1.3220    1.1760    0.4100 c3        1 3MD     -0.076100
      8 C          -0.0750   -0.2730   -1.9530 c         1 3MD      0.911600
      9 O          -0.3100    0.8220   -2.5520 o         1 3MD     -0.878300
     10 OXT        -0.3190   -1.3970   -2.4860 o         1 3MD     -0.878300
     11 H           1.2900    1.5770   -0.8440 hn        1 3MD      0.339800
     12 H2          1.7260    0.9380    0.5870 hn        1 3MD      0.339800
     13 HB         -1.3070   -0.9820    0.3180 hc        1 3MD      0.044700
     14 HA          1.0270   -1.2650   -0.3600 h1        1 3MD      0.040700
     15 HB11       -0.6960    1.9990    0.8360 hc        1 3MD      0.016367
     16 HB12       -1.5420    1.4070   -0.6620 hc        1 3MD      0.016367
     17 HB13       -2.2820    1.1390    0.9810 hc        1 3MD      0.016367
@<TRIPOS>BOND
     1    1    6 1   
     2    1   11 1   
     3    1   12 1   
     4    2    3 1   
     5    2    6 1   
     6    2    7 1   
     7    2   13 1   
     8    3    4 1   
     9    3    5 1   
    10    6    8 1   
    11    6   14 1   
    12    7   15 1   
    13    7   16 1   
    14    7   17 1   
    15    8    9 1   
    16    8   10 1   
@<TRIPOS>SUBSTRUCTURE
     1 3MD         1 TEMP              0 ****  ****    0 ROOT
