@<TRIPOS>MOLECULE
3MD
   17    16     1     0     0
SMALL
bcc


@<TRIPOS>ATOM
      1 N          -1.8220   -0.6090    0.3490 n3        1 3MD     -0.915800
      2 CB          0.1050    0.6250   -0.3640 c3        1 3MD     -0.186700
      3 CG          1.5040    0.9470    0.1140 c         1 3MD      0.905600
      4 OD1         2.4370    0.1220   -0.0690 o         1 3MD     -0.882800
      5 OD2         1.7340    2.0410    0.6940 o         1 3MD     -0.882800
      6 CA         -0.3990   -0.6090    0.3490 c3        1 3MD      0.069500
      7 CB1         0.1270    0.3720   -1.8560 c3        1 3MD     -0.076100
      8 C           0.1040   -0.6090    1.7730 c         1 3MD      0.911600
      9 O          -0.2440    0.3060    2.5640 o         1 3MD     -0.878300
     10 OXT         0.8730   -1.5250    2.1690 o         1 3MD     -0.878300
     11 H          -2.1260   -1.3310   -0.1190 hn        1 3MD      0.339800
     12 H2         -2.1260   -0.6530    1.2070 hn        1 3MD      0.339800
     13 HB         -0.4870    1.3770   -0.1700 hc        1 3MD      0.044700
     14 HA         -0.0740   -1.4060   -0.1110 h1        1 3MD      0.040700
     15 HB11       -0.7880    0.2780   -2.1840 hc        1 3MD      0.016367
     16 HB12        0.6240   -0.4470   -2.0400 hc        1 3MD      0.016367
     17 HB13        0.5580    1.1230   -2.3070 hc        1 3MD      0.016367
@<TRIPOS>BOND
     1    1    6 1   
     2    1   11 1   
     3    1   12 1   
     4    2    3 1   
     5    2    6 1   
     6    2    7 1   
     7    2   13 1   
     8    3    4 1   
     9    3    5 1   
    10    6    8 1   
    11    6   14 1   
    12    7   15 1   
    13    7   16 1   
    14    7   17 1   
    15    8    9 1   
    16    8   10 1   
@<TRIPOS>SUBSTRUCTURE
     1 3MD         1 TEMP              0 ****  ****    0 ROOT
