@<TRIPOS>MOLECULE
3ME
   56    56     1     0     0
SMALL
bcc


@<TRIPOS>ATOM
      1 P          -2.2830   -5.0150    4.2990 p4        1 3ME      1.695200
      2 OP1        -3.3030   -5.4030    3.2750 o         1 3ME     -0.928000
      3 OP2        -1.3940   -6.2020    4.6000 os        1 3ME     -1.215000
      4 O5'        -1.3960   -3.8160    3.7380 os        1 3ME     -0.574200
      5 C5'        -1.5200   -3.4660    2.3700 c3        1 3ME      0.224400
      6 C4'        -0.6660   -2.4170    2.0850 c3        1 3ME      0.071100
      7 O4'         0.4070   -2.8560    1.0710 os        1 3ME     -0.415600
      8 C1'         0.0780   -2.2690   -0.0450 c3        1 3ME      0.279500
      9 N1         -0.7510   -3.1280   -0.8240 n         1 3ME     -0.365000
     10 C6         -1.8200   -2.5810   -1.5890 cc        1 3ME      0.079600
     11 C2         -0.4270   -4.5680   -0.9300 c         1 3ME      0.789500
     12 O2          0.3290   -5.0720   -0.1390 o         1 3ME     -0.725500
     13 N3         -1.1430   -5.4130   -1.8920 n         1 3ME     -0.596500
     14 C4         -2.1970   -4.8670   -2.6720 c         1 3ME      0.715700
     15 O4         -2.7820   -5.5550   -3.4410 o         1 3ME     -0.694500
     16 C5         -2.5470   -3.4310   -2.5450 cd        1 3ME     -0.300400
     17 C5A        -3.6540   -2.8470   -3.3890 c3        1 3ME     -0.040900
     18 C2'        -0.7300   -0.9370    0.3640 c3        1 3ME      0.093100
     19 O2'         0.2160    0.1420    0.7130 os        1 3ME     -0.387600
     20 CB'         0.3960    1.1170   -0.3310 c3        1 3ME      0.120400
     21 CC'         0.8310    2.4850    0.2940 c3        1 3ME      0.089400
     22 OD'         1.8000    3.0850   -0.5240 os        1 3ME     -0.435600
     23 CE'         1.7860    4.4930   -0.4870 c3        1 3ME      0.132400
     24 CF'         3.2680    5.0360   -0.5250 c3        1 3ME      0.159800
     25 NG'         3.2560    6.4380   -0.8120 n3        1 3ME     -0.735600
     26 CI'         3.5500    7.1800    0.3940 c3        1 3ME      0.157100
     27 CJ'         4.2350    6.7260   -1.7900 c3        1 3ME      0.157100
     28 C3'        -1.4460   -1.2560    1.4020 c3        1 3ME      0.117100
     29 O3'        -1.5570   -0.0970    2.3250 oh        1 3ME     -0.630800
     30 H5'1       -2.4570   -3.1900    2.1820 h1        1 3ME      0.005700
     31 H5'2       -1.2900   -4.2320    1.8180 h1        1 3ME      0.005700
     32 H4'        -0.2370   -2.0950    2.9130 h1        1 3ME      0.028700
     33 H1'         0.8790   -2.0330   -0.5470 h2        1 3ME      0.090700
     34 HC6        -2.0440   -1.6510   -1.5040 h4        1 3ME      0.319000
     35 HN3        -0.9410   -6.3080   -1.9580 hn        1 3ME      0.317500
     36 H5A1       -3.6390   -1.8580   -3.3170 hc        1 3ME      0.056033
     37 H5A2       -4.5250   -3.1870   -3.0720 hc        1 3ME      0.056033
     38 H5A3       -3.5220   -3.1100   -4.3310 hc        1 3ME      0.056033
     39 H2'        -1.3010   -0.6570   -0.3620 h1        1 3ME      0.063700
     40 HB'1        1.0920    0.8060   -0.9540 h1        1 3ME      0.055700
     41 HB'2       -0.4600    1.2360   -0.8240 h1        1 3ME      0.055700
     42 HC'1        1.2040    2.3330    1.1840 h1        1 3ME      0.048200
     43 HC'2        0.0540    3.0740    0.3620 h1        1 3ME      0.048200
     44 HE'1        1.2910    4.8360   -1.2640 h1        1 3ME      0.034200
     45 HE'2        1.3440    4.7970    0.3470 h1        1 3ME      0.034200
     46 HF'1        3.6940    4.8850    0.3450 h1        1 3ME      0.041700
     47 HF'2        3.7810    4.5550   -1.2360 h1        1 3ME      0.041700
     48 HI'1        2.8840    6.9800    1.0680 h1        1 3ME      0.026867
     49 HI'2        4.4450    6.9230    0.7300 h1        1 3ME      0.026867
     50 HI'3        3.5380    8.1420    0.1980 h1        1 3ME      0.026867
     51 HJ'1        4.0330    6.2290   -2.6130 h1        1 3ME      0.026867
     52 HJ'2        4.2320    7.6770   -1.9790 h1        1 3ME      0.026867
     53 HJ'3        5.1220    6.4610   -1.4550 h1        1 3ME      0.026867
     54 H3'        -2.3120   -1.5520    1.1320 h1        1 3ME      0.150700
     55 HO3'       -2.4210    0.0090    2.5740 ho        1 3ME      0.471000
     56 OXT        -2.9820   -4.5740    5.5650 o         1 3ME     -0.976800
@<TRIPOS>BOND
     1    1    2 1   
     2    1    4 1   
     3    1   56 2   
     4    4    5 1   
     5    5    6 1   
     6    5   30 1   
     7    5   31 1   
     8    6    7 1   
     9    6   28 1   
    10    6   32 1   
    11    7    8 1   
    12    8    9 1   
    13    8   18 1   
    14    8   33 1   
    15    9   10 1   
    16    9   11 1   
    17   10   16 2   
    18   10   34 1   
    19   11   12 2   
    20   11   13 1   
    21   13   14 1   
    22   13   35 1   
    23   14   15 2   
    24   14   16 1   
    25   16   17 1   
    26   17   36 1   
    27   17   37 1   
    28   17   38 1   
    29   18   19 1   
    30   18   28 1   
    31   18   39 1   
    32   19   20 1   
    33   20   21 1   
    34   20   40 1   
    35   20   41 1   
    36   21   22 1   
    37   21   42 1   
    38   21   43 1   
    39   22   23 1   
    40   23   24 1   
    41   23   44 1   
    42   23   45 1   
    43   24   25 1   
    44   24   46 1   
    45   24   47 1   
    46   25   26 1   
    47   25   27 1   
    48   26   48 1   
    49   26   49 1   
    50   26   50 1   
    51   27   51 1   
    52   27   52 1   
    53   27   53 1   
    54   28   29 1   
    55   28   54 1   
    56   29   55 1   
@<TRIPOS>SUBSTRUCTURE
     1 3ME         1 TEMP              0 ****  ****    0 ROOT
