@<TRIPOS>MOLECULE
3ME
   56    57     1     0     0
SMALL
bcc


@<TRIPOS>ATOM
      1 P           3.7190   -0.0790    1.6230 p5        1 3ME      1.342900
      2 OP1         3.7870   -1.2460    0.6670 o         1 3ME     -0.923833
      3 OP2         2.9150    1.0610    1.0210 o         1 3ME     -0.923833
      4 O5'         2.5590   -0.7690    2.7130 os        1 3ME     -0.567200
      5 C5'         1.2730   -0.3130    2.6660 c3        1 3ME      0.222400
      6 C4'         0.3510   -1.1740    1.7660 c3        1 3ME      0.064100
      7 O4'        -0.9140   -0.4790    1.6240 os        1 3ME     -0.433600
      8 C1'        -1.1830   -0.1720    0.2620 c3        1 3ME      0.270500
      9 N1         -1.0440    1.2660   -0.0080 n         1 3ME     -0.370000
     10 C6          0.1660    1.9230    0.1660 cc        1 3ME      0.052600
     11 C2         -2.2110    2.0100   -0.2830 c         1 3ME      0.795500
     12 O2         -3.3370    1.4720   -0.4570 o         1 3ME     -0.720500
     13 N3         -2.1030    3.4030   -0.4150 n         1 3ME     -0.597500
     14 C4         -0.8860    4.1010   -0.2550 c         1 3ME      0.716700
     15 O4         -0.9290    5.3430   -0.3840 o         1 3ME     -0.683500
     16 C5          0.2860    3.2830    0.0410 cd        1 3ME     -0.288400
     17 C5A         1.6000    3.9330    0.2210 c3        1 3ME     -0.044900
     18 C2'        -0.2320   -1.0500   -0.6160 c3        1 3ME      0.099100
     19 O2'        -0.9490   -2.2070   -1.0290 os        1 3ME     -0.392600
     20 CB'        -1.6950   -1.9960   -2.2250 c3        1 3ME      0.083400
     21 CC'        -2.5980   -3.2130   -2.4000 c3        1 3ME      0.126400
     22 OD'        -3.9200   -2.9790   -1.9310 os        1 3ME     -0.430600
     23 CE'        -4.0140   -2.8160   -0.5160 c3        1 3ME      0.118400
     24 CF'        -4.7560   -1.5070   -0.2130 c3        1 3ME      0.142800
     25 NG'        -6.2070   -1.6100   -0.3260 n3        1 3ME     -0.733600
     26 CI'        -6.8200   -2.1930    0.8450 c3        1 3ME      0.163100
     27 CJ'        -6.8260   -0.3620   -0.7120 c3        1 3ME      0.163100
     28 C3'         0.9060   -1.4270    0.3500 c3        1 3ME      0.116100
     29 O3'         1.3350   -2.7530    0.1830 oh        1 3ME     -0.627800
     30 H5'1        0.8290   -0.3660    3.7050 h1        1 3ME      0.000200
     31 H5'2        1.2250    0.7570    2.3180 h1        1 3ME      0.000200
     32 H4'         0.1020   -2.1450    2.2680 h1        1 3ME      0.052700
     33 H1'        -2.2690   -0.4510    0.0960 h2        1 3ME      0.090700
     34 HC6         1.0870    1.2970    0.4150 h4        1 3ME      0.305000
     35 HN3        -2.9400    3.9030   -0.6060 hn        1 3ME      0.321500
     36 H5A1        1.9340    4.4030   -0.7370 hc        1 3ME      0.059367
     37 H5A2        1.5280    4.7380    0.9940 hc        1 3ME      0.059367
     38 H5A3        2.3640    3.1660    0.5490 hc        1 3ME      0.059367
     39 H2'         0.1710   -0.5010   -1.5050 h1        1 3ME      0.062700
     40 HB'1       -2.3080   -1.0590   -2.1490 h1        1 3ME      0.036700
     41 HB'2       -0.9860   -1.9090   -3.0900 h1        1 3ME      0.036700
     42 HC'1       -2.7420   -3.4300   -3.4910 h1        1 3ME      0.049200
     43 HC'2       -2.1520   -4.1030   -1.8830 h1        1 3ME      0.049200
     44 HE'1       -4.5630   -3.7150   -0.1300 h1        1 3ME      0.053700
     45 HE'2       -2.9970   -2.7630   -0.0410 h1        1 3ME      0.053700
     46 HF'1       -4.4510   -1.1780    0.8240 h1        1 3ME      0.062700
     47 HF'2       -4.3820   -0.7210   -0.9330 h1        1 3ME      0.062700
     48 HI'1       -6.7490   -1.5410    1.7600 h1        1 3ME      0.022533
     49 HI'2       -7.9050   -2.3810    0.6310 h1        1 3ME      0.022533
     50 HI'3       -6.3220   -3.1710    1.0710 h1        1 3ME      0.022533
     51 HJ'1       -6.3810   -0.0210   -1.6830 h1        1 3ME      0.022533
     52 HJ'2       -7.9250   -0.5330   -0.8580 h1        1 3ME      0.022533
     53 HJ'3       -6.6910    0.4570    0.0470 h1        1 3ME      0.022533
     54 H3'         1.7880   -0.7190    0.1730 h1        1 3ME      0.156700
     55 HO3'        2.3060   -2.7170    0.3270 ho        1 3ME      0.477000
     56 OXT         4.8940    0.2760    2.4690 o         1 3ME     -0.923833
@<TRIPOS>BOND
     1    1    2 1   
     2    1    3 1   
     3    1    4 1   
     4    1   56 1   
     5    4    5 1   
     6    5    6 1   
     7    5   30 1   
     8    5   31 1   
     9    6    7 1   
    10    6   28 1   
    11    6   32 1   
    12    7    8 1   
    13    8    9 1   
    14    8   18 1   
    15    8   33 1   
    16    9   10 1   
    17    9   11 1   
    18   10   16 2   
    19   10   34 1   
    20   11   12 2   
    21   11   13 1   
    22   13   14 1   
    23   13   35 1   
    24   14   15 2   
    25   14   16 1   
    26   16   17 1   
    27   17   36 1   
    28   17   37 1   
    29   17   38 1   
    30   18   19 1   
    31   18   28 1   
    32   18   39 1   
    33   19   20 1   
    34   20   21 1   
    35   20   40 1   
    36   20   41 1   
    37   21   22 1   
    38   21   42 1   
    39   21   43 1   
    40   22   23 1   
    41   23   24 1   
    42   23   44 1   
    43   23   45 1   
    44   24   25 1   
    45   24   46 1   
    46   24   47 1   
    47   25   26 1   
    48   25   27 1   
    49   26   48 1   
    50   26   49 1   
    51   26   50 1   
    52   27   51 1   
    53   27   52 1   
    54   27   53 1   
    55   28   29 1   
    56   28   54 1   
    57   29   55 1   
@<TRIPOS>SUBSTRUCTURE
     1 3ME         1 TEMP              0 ****  ****    0 ROOT
