@<TRIPOS>MOLECULE
3MF
   27    26     1     0     0
SMALL
bcc


@<TRIPOS>ATOM
      1 C1         -2.4230   -0.6150   -1.6530 c3        1 3MF      0.030400
      2 C2         -0.9100   -0.6150   -1.6530 c         1 3MF      0.516100
      3 C3         -0.1540   -0.6150   -0.3430 c3        1 3MF      0.013100
      4 C4          0.5240    0.7230   -0.1520 c3        1 3MF      0.158100
      5 C5          0.8050    0.9410    1.3160 c3        1 3MF      0.112100
      6 C6          1.6680    2.1710    1.4880 c3        1 3MF      0.095400
      7 C7          0.3270   -2.8950    0.0360 c3        1 3MF      0.113700
      8 O1         -2.8930   -0.7080   -2.9800 oh        1 3MF     -0.587800
      9 O2         -0.3030   -0.6160   -2.7050 o         1 3MF     -0.519100
     10 O3          0.8160   -1.6330   -0.3620 os        1 3MF     -0.421600
     11 O4          1.7350    0.7420   -0.8700 oh        1 3MF     -0.593800
     12 O5         -0.4100    1.1200    2.0050 oh        1 3MF     -0.610800
     13 O6          1.8700    2.4150    2.8620 oh        1 3MF     -0.614800
     14 H11        -2.7490    0.2130   -1.2500 h1        1 3MF      0.073700
     15 H12        -2.7490   -1.3780   -1.1380 h1        1 3MF      0.073700
     16 H3         -0.7770   -0.7720    0.3920 h1        1 3MF      0.095700
     17 H4         -0.0600    1.4330   -0.4810 h1        1 3MF      0.087700
     18 H5          1.2710    0.1630    1.6770 h1        1 3MF      0.065700
     19 H61         2.5290    2.0270    1.0520 h1        1 3MF      0.044700
     20 H62         1.2230    2.9390    1.0830 h1        1 3MF      0.044700
     21 H71         1.0700   -3.4510    0.3380 h1        1 3MF      0.045700
     22 H72        -0.3120   -2.7810    0.7650 h1        1 3MF      0.045700
     23 H73        -0.1160   -3.3250   -0.7200 h1        1 3MF      0.045700
     24 HO1        -3.7800   -0.7430   -2.9770 ho        1 3MF      0.420000
     25 HO4         1.6750    1.3260   -1.5360 ho        1 3MF      0.426000
     26 HO5        -0.3190    0.8430    2.8430 ho        1 3MF      0.428000
     27 HO6         2.4420    3.0860    2.9620 ho        1 3MF      0.411000
@<TRIPOS>BOND
     1    1    2 1   
     2    1    8 1   
     3    1   14 1   
     4    1   15 1   
     5    2    3 1   
     6    2    9 2   
     7    3    4 1   
     8    3   10 1   
     9    3   16 1   
    10    4    5 1   
    11    4   11 1   
    12    4   17 1   
    13    5    6 1   
    14    5   12 1   
    15    5   18 1   
    16    6   13 1   
    17    6   19 1   
    18    6   20 1   
    19    7   10 1   
    20    7   21 1   
    21    7   22 1   
    22    7   23 1   
    23    8   24 1   
    24   11   25 1   
    25   12   26 1   
    26   13   27 1   
@<TRIPOS>SUBSTRUCTURE
     1 3MF         1 TEMP              0 ****  ****    0 ROOT
