@<TRIPOS>MOLECULE
3MF
   27    26     1     0     0
SMALL
bcc


@<TRIPOS>ATOM
      1 C1         -1.2000    1.1020    2.3010 c3        1 3MF      0.030400
      2 C2          0.0180    0.2470    2.0360 c         1 3MF      0.516100
      3 C3          0.5490    0.2570    0.6190 c3        1 3MF      0.013100
      4 C4         -0.5560   -0.0150   -0.4210 c3        1 3MF      0.158100
      5 C5         -0.0250    0.3060   -1.8310 c3        1 3MF      0.112100
      6 C6         -1.0870   -0.0250   -2.8830 c3        1 3MF      0.095400
      7 O1         -1.3160    1.4630    3.6590 oh        1 3MF     -0.587800
      8 O2          0.5460   -0.3950    2.9480 o         1 3MF     -0.519100
      9 O3          1.5220   -0.7650    0.4150 os        1 3MF     -0.421600
     10 O4         -1.0250   -1.3440   -0.3580 oh        1 3MF     -0.593800
     11 O5          0.2840    1.6910   -1.8440 oh        1 3MF     -0.610800
     12 O6         -0.5040    0.2840   -4.1400 oh        1 3MF     -0.614800
     13 H11        -1.1390    2.0740    1.7410 h1        1 3MF      0.073700
     14 H12        -2.1140    0.5310    1.9750 h1        1 3MF      0.073700
     15 H3          0.9950    1.2740    0.4170 h1        1 3MF      0.095700
     16 H4         -1.4550    0.6260   -0.2020 h1        1 3MF      0.087700
     17 H5          0.9100   -0.2900   -2.0320 h1        1 3MF      0.065700
     18 H61        -1.3550   -1.1120   -2.8250 h1        1 3MF      0.044700
     19 H62        -2.0040    0.6010   -2.7210 h1        1 3MF      0.044700
     20 H71         3.4250   -1.3480    0.6860 h1        1 3MF      0.045700
     21 H72         3.2120    0.4660    0.4700 h1        1 3MF      0.045700
     22 H73         2.7450   -0.3300    2.0580 h1        1 3MF      0.045700
     23 HO1        -1.1080    0.6810    4.1910 ho        1 3MF      0.420000
     24 HO4        -0.2570   -1.9300   -0.4200 ho        1 3MF      0.426000
     25 HO5         0.4950    1.9150   -2.7600 ho        1 3MF      0.428000
     26 HO6        -1.1610    0.0700   -4.8110 ho        1 3MF      0.411000
     27 C7          2.8020   -0.4570    0.9490 c3        1 3MF      0.113700
@<TRIPOS>BOND
     1    1    2 1   
     2    1    7 1   
     3    1   13 1   
     4    1   14 1   
     5    2    3 1   
     6    2    8 2   
     7    3    4 1   
     8    3    9 1   
     9    3   15 1   
    10    4    5 1   
    11    4   10 1   
    12    4   16 1   
    13    5    6 1   
    14    5   11 1   
    15    5   17 1   
    16    6   12 1   
    17    6   18 1   
    18    6   19 1   
    19    7   23 1   
    20    9   27 1   
    21   10   24 1   
    22   11   25 1   
    23   12   26 1   
    24   20   27 1   
    25   21   27 1   
    26   22   27 1   
@<TRIPOS>SUBSTRUCTURE
     1 3MF         1 TEMP              0 ****  ****    0 ROOT
