@<TRIPOS>MOLECULE
3MG
   27    27     1     0     0
SMALL
bcc


@<TRIPOS>ATOM
      1 O6          3.9320    0.1260   -0.3490 oh        1 3MG     -0.593800
      2 C6          2.8580    0.7930    0.2750 c3        1 3MG      0.140400
      3 C5          1.5140    0.3420   -0.3040 c3        1 3MG      0.111100
      4 O5          1.3550   -1.0230    0.0920 os        1 3MG     -0.459600
      5 C4          0.3600    1.1830    0.2580 c3        1 3MG      0.118100
      6 O4          0.5430    2.5070   -0.2110 oh        1 3MG     -0.594800
      7 C3         -0.9960    0.6310   -0.2260 c3        1 3MG      0.108100
      8 O3         -1.9700    1.3850    0.4900 os        1 3MG     -0.429600
      9 C7         -3.2530    1.3940   -0.1180 c3        1 3MG      0.113700
     10 C2         -1.0970   -0.8640    0.1060 c3        1 3MG      0.066100
     11 O2         -2.2380   -1.3750   -0.5610 oh        1 3MG     -0.595800
     12 C1          0.1590   -1.6120   -0.3950 c3        1 3MG      0.308900
     13 O1          0.2160   -2.9130    0.1230 oh        1 3MG     -0.594800
     14 HO6         3.8030   -0.8200   -0.2030 ho        1 3MG      0.411000
     15 H61         2.8760    0.6170    1.3830 h1        1 3MG      0.064700
     16 H62         3.0050    1.8830    0.0480 h1        1 3MG      0.064700
     17 H5          1.5330    0.4060   -1.4270 h1        1 3MG      0.073700
     18 H4          0.3830    1.1700    1.3840 h1        1 3MG      0.062700
     19 HO4        -0.2220    3.0120    0.0980 ho        1 3MG      0.424000
     20 H3         -1.1150    0.7870   -1.3330 h1        1 3MG      0.071700
     21 H71        -3.8810    1.9990    0.5830 h1        1 3MG      0.044367
     22 H72        -3.2030    1.8830   -1.1230 h1        1 3MG      0.044367
     23 H73        -3.6520    0.3550   -0.2160 h1        1 3MG      0.044367
     24 H2         -1.2110   -1.0020    1.2170 h1        1 3MG      0.062700
     25 HO2        -2.2350   -2.3320   -0.4180 ho        1 3MG      0.419000
     26 H1          0.1620   -1.7050   -1.5160 h2        1 3MG      0.088700
     27 HO1         0.5570   -2.8640    1.0280 ho        1 3MG      0.426000
@<TRIPOS>BOND
     1    1    2 1   
     2    1   14 1   
     3    2    3 1   
     4    2   15 1   
     5    2   16 1   
     6    3    4 1   
     7    3    5 1   
     8    3   17 1   
     9    4   12 1   
    10    5    6 1   
    11    5    7 1   
    12    5   18 1   
    13    6   19 1   
    14    7    8 1   
    15    7   10 1   
    16    7   20 1   
    17    8    9 1   
    18    9   21 1   
    19    9   22 1   
    20    9   23 1   
    21   10   11 1   
    22   10   12 1   
    23   10   24 1   
    24   11   25 1   
    25   12   13 1   
    26   12   26 1   
    27   13   27 1   
@<TRIPOS>SUBSTRUCTURE
     1 3MG         1 TEMP              0 ****  ****    0 ROOT
