@<TRIPOS>MOLECULE
3MG
   27    27     1     0     0
SMALL
bcc


@<TRIPOS>ATOM
      1 O6         -3.0120    1.0280   -0.7130 oh        1 3MG     -0.590800
      2 C6         -1.6020    1.0280   -0.7130 c3        1 3MG      0.112400
      3 C5         -1.1070    1.0280    0.6870 c3        1 3MG      0.070100
      4 O5         -1.5500   -0.2260    1.3550 os        1 3MG     -0.446600
      5 C4          0.3980    1.1770    0.6740 c3        1 3MG      0.116100
      6 O4          0.8550    1.4070    2.0220 oh        1 3MG     -0.585800
      7 C3          1.0780   -0.0270    0.1360 c3        1 3MG      0.118100
      8 O3          0.7940   -0.1310   -1.2840 os        1 3MG     -0.418600
      9 C7          1.9490   -0.1460   -2.1000 c3        1 3MG      0.112700
     10 C2          0.6290   -1.2800    0.8130 c3        1 3MG      0.100100
     11 O2          1.1060   -1.2750    2.1640 oh        1 3MG     -0.597800
     12 C1         -0.8830   -1.4180    0.8270 c3        1 3MG      0.291900
     13 O1         -1.3270   -1.6440   -0.4710 oh        1 3MG     -0.632800
     14 HO6        -3.3080    1.4960   -1.4060 ho        1 3MG      0.409000
     15 H61        -1.2760    0.2310   -1.1730 h1        1 3MG      0.058200
     16 H62        -1.2760    1.8250   -1.1730 h1        1 3MG      0.058200
     17 H5         -1.4950    1.7900    1.1590 h1        1 3MG      0.103700
     18 H4          0.6350    1.9470    0.1230 h1        1 3MG      0.111700
     19 HO4         1.0990    2.2550    2.1110 ho        1 3MG      0.406000
     20 H3          2.0420    0.0720    0.2600 h1        1 3MG      0.075700
     21 H71         2.4440    0.6860   -1.9780 h1        1 3MG      0.042367
     22 H72         2.5140   -0.9020   -1.8500 h1        1 3MG      0.042367
     23 H73         1.6840   -0.2330   -3.0360 h1        1 3MG      0.042367
     24 H2          1.0110   -2.0470    0.3450 h1        1 3MG      0.081700
     25 HO2         1.5030   -2.0490    2.3410 ho        1 3MG      0.415000
     26 H1         -1.1250   -2.1850    1.3810 h2        1 3MG      0.079700
     27 HO1        -1.7810   -2.4060   -0.5010 ho        1 3MG      0.422000
@<TRIPOS>BOND
     1    1    2 1   
     2    1   14 1   
     3    2    3 1   
     4    2   15 1   
     5    2   16 1   
     6    3    4 1   
     7    3    5 1   
     8    3   17 1   
     9    4   12 1   
    10    5    6 1   
    11    5    7 1   
    12    5   18 1   
    13    6   19 1   
    14    7    8 1   
    15    7   10 1   
    16    7   20 1   
    17    8    9 1   
    18    9   21 1   
    19    9   22 1   
    20    9   23 1   
    21   10   11 1   
    22   10   12 1   
    23   10   24 1   
    24   11   25 1   
    25   12   13 1   
    26   12   26 1   
    27   13   27 1   
@<TRIPOS>SUBSTRUCTURE
     1 3MG         1 TEMP              0 ****  ****    0 ROOT
