@<TRIPOS>MOLECULE
3MH
   16    16     1     0     0
SMALL
bcc


@<TRIPOS>ATOM
      1 S1          0.0870   -0.2440   -0.1030 s         1 3MH     -0.541400
      2 C1          1.6860   -0.1320   -0.0330 c         1 3MH      0.365600
      3 C2          2.4370   -0.0490    1.2070 cc        1 3MH     -0.135400
      4 C6          1.6620   -0.0710    2.4670 c3        1 3MH     -0.051900
      5 C3          3.8070    0.0460    1.2060 cd        1 3MH     -0.062000
      6 C4          4.5260    0.0660   -0.0150 cd        1 3MH     -0.209000
      7 C5          3.8380   -0.0120   -1.2050 cc        1 3MH      0.006600
      8 N1          2.4580   -0.1070   -1.2080 n         1 3MH     -0.113500
      9 O1          1.9050   -0.1760   -2.4150 oh        1 3MH     -0.401100
     10 H1          0.9420    0.7860    2.4920 hc        1 3MH      0.059367
     11 H2          2.3380   -0.0030    3.3550 hc        1 3MH      0.059367
     12 H3          1.0650   -1.0170    2.5360 hc        1 3MH      0.059367
     13 H4          4.3660    0.1080    2.1540 ha        1 3MH      0.148000
     14 H5          5.6210    0.1420   -0.0180 ha        1 3MH      0.160000
     15 H6          4.3250   -0.0020   -2.1970 h4        1 3MH      0.181000
     16 H7          0.9210   -0.2410   -2.2850 ho        1 3MH      0.474000
@<TRIPOS>BOND
     1    1    2 2   
     2    2    3 1   
     3    2    8 1   
     4    3    4 1   
     5    3    5 2   
     6    4   10 1   
     7    4   11 1   
     8    4   12 1   
     9    5    6 1   
    10    5   13 1   
    11    6    7 2   
    12    6   14 1   
    13    7    8 1   
    14    7   15 1   
    15    8    9 1   
    16    9   16 1   
@<TRIPOS>SUBSTRUCTURE
     1 3MH         1 TEMP              0 ****  ****    0 ROOT
