@<TRIPOS>MOLECULE
3MH
   16    16     1     0     0
SMALL
bcc


@<TRIPOS>ATOM
      1 S1          0.0880   -0.2380   -0.1100 s         1 3MH     -0.541400
      2 C1          1.6870   -0.1310   -0.0350 c         1 3MH      0.365600
      3 C2          2.4340   -0.0440    1.2060 cc        1 3MH     -0.135400
      4 C6          1.6550   -0.0570    2.4650 c3        1 3MH     -0.051900
      5 C3          3.8050    0.0460    1.2090 cd        1 3MH     -0.062000
      6 C4          4.5270    0.0570   -0.0090 cd        1 3MH     -0.209000
      7 C5          3.8430   -0.0240   -1.2010 cc        1 3MH      0.006600
      8 N1          2.4630   -0.1150   -1.2080 n         1 3MH     -0.113500
      9 O1          1.9140   -0.1880   -2.4170 oh        1 3MH     -0.401100
     10 H1          2.3280    0.0130    3.3530 hc        1 3MH      0.059367
     11 H2          1.0540   -1.0000    2.5350 hc        1 3MH      0.059367
     12 H3          0.9380    0.8040    2.4820 hc        1 3MH      0.059367
     13 H4          4.3600    0.1120    2.1580 ha        1 3MH      0.148000
     14 H5          5.6230    0.1290   -0.0090 ha        1 3MH      0.160000
     15 H6          4.3330   -0.0220   -2.1920 h4        1 3MH      0.181000
     16 H7          0.9290   -0.2490   -2.2890 ho        1 3MH      0.474000
@<TRIPOS>BOND
     1    1    2 2   
     2    2    3 1   
     3    2    8 1   
     4    3    4 1   
     5    3    5 2   
     6    4   10 1   
     7    4   11 1   
     8    4   12 1   
     9    5    6 1   
    10    5   13 1   
    11    6    7 2   
    12    6   14 1   
    13    7    8 1   
    14    7   15 1   
    15    8    9 1   
    16    9   16 1   
@<TRIPOS>SUBSTRUCTURE
     1 3MH         1 TEMP              0 ****  ****    0 ROOT
