@<TRIPOS>MOLECULE
3MI
   26    26     1     0     0
SMALL
bcc


@<TRIPOS>ATOM
      1 OAA         0.0000    0.0000    0.0000 o         1 3MI     -0.478000
      2 OAB         1.9770    0.6110   -0.9030 o         1 3MI     -0.478000
      3 CAE         1.3830    0.0000    2.4900 c2        1 3MI     -0.146000
      4 CAF         2.0380   -0.0220    3.6850 c2        1 3MI     -0.038000
      5 CAG         6.2020   -7.5060    4.5460 c2        1 3MI     -0.141000
      6 CAH         5.7920   -5.1430    4.6170 c2        1 3MI     -0.110000
      7 CAI         4.0050   -6.6550    4.0900 c2        1 3MI     -0.110000
      8 CAJ         1.7960   -2.3440    2.1950 c2        1 3MI     -0.086000
      9 NAK         3.2740   -1.5230    5.2860 n2        1 3MI     -0.121000
     10 OAL         3.0810   -3.3580    4.1060 os        1 3MI     -0.066000
     11 CAM         1.3480    0.0000    0.0000 c1        1 3MI      0.510000
     12 CAN         6.6610   -6.2140    4.7450 c2        1 3MI     -0.081500
     13 CAO         4.8740   -7.7270    4.2190 c2        1 3MI     -0.081500
     14 CAP         1.2620   -1.1600    1.7450 c1        1 3MI     -0.110000
     15 CAQ         4.4650   -5.3630    4.2890 c1        1 3MI      0.074000
     16 CAR         3.5790   -2.8380    5.2560 c1        1 3MI     -0.115000
     17 CAS         2.5910   -1.2260    4.1620 c2        1 3MI     -0.124000
     18 CAT         2.4720   -2.3670    3.4300 c2        1 3MI     -0.048000
     19 HAE         0.9580    0.9260    2.1230 ha        1 3MI      0.127000
     20 HAF         2.1320    0.8860    4.2680 ha        1 3MI      0.096000
     21 HAG         6.8820   -8.3440    4.6470 ha        1 3MI      0.121000
     22 HAH         6.1580   -4.1310    4.7430 ha        1 3MI      0.134000
     23 HAI         2.9670   -6.8280    3.8350 ha        1 3MI      0.134000
     24 HAJ         1.6880   -3.2460    1.6050 ha        1 3MI      0.106000
     25 ClC         8.3650   -5.9330    5.1980 cl        1 3MI      0.016500
     26 ClD         4.3690   -9.4110    3.9120 cl        1 3MI      0.016500
@<TRIPOS>BOND
     1    1   11 1   
     2    2   11 1   
     3    3    4 1   
     4    3   14 1   
     5    3   19 1   
     6    4   17 1   
     7    4   20 1   
     8    5   12 1   
     9    5   13 1   
    10    5   21 1   
    11    6   12 1   
    12    6   15 1   
    13    6   22 1   
    14    7   13 1   
    15    7   15 1   
    16    7   23 1   
    17    8   14 1   
    18    8   18 1   
    19    8   24 1   
    20    9   16 1   
    21    9   17 1   
    22   10   16 1   
    23   10   18 1   
    24   12   25 1   
    25   13   26 1   
    26   17   18 1   
@<TRIPOS>SUBSTRUCTURE
     1 3MI         1 TEMP              0 ****  ****    0 ROOT
