@<TRIPOS>MOLECULE
3MI
   26    21     1     0     0
SMALL
bcc


@<TRIPOS>ATOM
      1 OAA        -4.3880   -3.1520   -2.6940 o         1 3MI     -0.818800
      2 OAB        -2.6030   -4.0060   -3.6100 o         1 3MI     -0.818800
      3 CAE        -2.0450   -3.2580   -0.4190 c1        1 3MI     -0.051500
      4 CAF        -1.2780   -2.6090    0.5340 c1        1 3MI     -0.051500
      5 CAG         2.9240    3.4840    1.6940 c1        1 3MI     -0.051500
      6 CAH         2.5240    1.3560    0.6580 c1        1 3MI     -0.051500
      7 CAI         0.6740    2.7480    1.2930 c1        1 3MI     -0.038500
      8 CAJ        -1.7500   -1.4070   -1.9190 c1        1 3MI     -0.044500
      9 NAK         0.0310   -0.4910    1.0000 n1        1 3MI     -0.518600
     10 OAL        -0.3450    0.4640   -0.9530 os        1 3MI     -0.196200
     11 CAM        -3.1380   -3.3050   -2.7120 c         1 3MI      0.856800
     12 CAN         3.4070    2.3100    1.1370 c1        1 3MI      0.026900
     13 CAO         1.5570    3.7030    1.7720 c1        1 3MI      0.026900
     14 CAP        -2.2810   -2.6570   -1.6460 cg        1 3MI     -0.043200
     15 CAQ         1.1570    1.5740    0.7360 c1        1 3MI      0.020000
     16 CAR         0.2740    0.6210    0.2540 c1        1 3MI      0.374400
     17 CAS        -0.7380   -1.3390    0.2580 cg        1 3MI     -0.041200
     18 CAT        -0.9700   -0.7470   -0.9520 c1        1 3MI      0.012600
     19 CLC         5.1260    2.0500    1.0080 cl        1 3MI     -0.109400
     20 CLD         1.1850    5.2320    2.5220 cl        1 3MI     -0.109400
     21 HAE        -2.4410   -4.1270   -0.2180 ha        1 3MI      0.088500
     22 HAF        -1.0940   -3.0410    1.3900 ha        1 3MI      0.088500
     23 HAG         3.5460    4.1560    2.0310 ha        1 3MI      0.106500
     24 HAH         2.8640    0.5240    0.2750 ha        1 3MI      0.106500
     25 HAI        -0.2880    2.9020    1.3480 ha        1 3MI      0.118500
     26 HAJ        -1.9110   -0.9860   -2.7860 ha        1 3MI      0.116500
@<TRIPOS>BOND
     1    1   11 1   
     2    2   11 1   
     3    3    4 3   
     4    3   21 1   
     5    4   22 1   
     6    5   13 3   
     7    5   23 1   
     8    6   12 3   
     9    6   24 1   
    10    7   15 3   
    11    7   25 1   
    12    8   14 3   
    13    8   26 1   
    14    9   16 3   
    15    9   17 1   
    16   10   16 1   
    17   10   18 1   
    18   11   14 1   
    19   12   19 1   
    20   13   20 1   
    21   17   18 3   
@<TRIPOS>SUBSTRUCTURE
     1 3MI         1 TEMP              0 ****  ****    0 ROOT
