@<TRIPOS>MOLECULE
3MI
   26    28     1     0     0
SMALL
bcc


@<TRIPOS>ATOM
      1 OAA        -6.7670   -0.0520    0.0010 o         1 3MI     -0.818800
      2 OAB        -5.7970    1.9640   -0.0010 o         1 3MI     -0.818800
      3 CAE        -4.2890   -1.3680    0.0020 ca        1 3MI     -0.121000
      4 CAF        -3.0740   -2.0410    0.0020 ca        1 3MI     -0.097000
      5 CAG         4.3110    0.3300    0.0000 ca        1 3MI     -0.124000
      6 CAH         2.4600   -1.2530    0.0020 ca        1 3MI     -0.095000
      7 CAI         2.0150    1.1380   -0.0000 ca        1 3MI     -0.095000
      8 CAJ        -3.2310    0.8350   -0.0000 ca        1 3MI     -0.102000
      9 NAK        -0.5360   -1.6120    0.0020 nc        1 3MI     -0.540100
     10 OAL        -0.7240    0.6940    0.0000 os        1 3MI     -0.317700
     11 CAM        -5.7560    0.7030    0.0000 c         1 3MI      0.908200
     12 CAN         3.8300   -0.9820    0.0010 ca        1 3MI      0.015400
     13 CAO         3.3900    1.3810   -0.0000 ca        1 3MI      0.015400
     14 CAP        -4.3800    0.0390    0.0010 ca        1 3MI     -0.094600
     15 CAQ         1.5510   -0.1850    0.0010 ca        1 3MI     -0.063900
     16 CAR         0.1220   -0.4530    0.0010 cd        1 3MI      0.525200
     17 CAS        -1.9030   -1.2700    0.0020 ca        1 3MI      0.018400
     18 CAT        -2.0170    0.1630    0.0010 ca        1 3MI      0.029100
     19 HAE        -5.2410   -1.9280    0.0020 ha        1 3MI      0.163000
     20 HAF        -3.0240   -3.1370    0.0030 ha        1 3MI      0.129000
     21 HAG         5.3930    0.5310    0.0000 ha        1 3MI      0.154000
     22 HAH         2.0940   -2.2930    0.0020 ha        1 3MI      0.175000
     23 HAI         1.2920    1.9710   -0.0010 ha        1 3MI      0.175000
     24 HAJ        -3.3170    1.9310   -0.0010 ha        1 3MI      0.174000
     25 CLC         4.9410   -2.2730    0.0030 cl        1 3MI     -0.097900
     26 CLD         3.9600    2.9850   -0.0020 cl        1 3MI     -0.097900
@<TRIPOS>BOND
     1    1   11 1   
     2    2   11 1   
     3    3    4 ar  
     4    3   14 ar  
     5    3   19 1   
     6    4   17 ar  
     7    4   20 1   
     8    5   12 ar  
     9    5   13 ar  
    10    5   21 1   
    11    6   12 ar  
    12    6   15 ar  
    13    6   22 1   
    14    7   13 ar  
    15    7   15 ar  
    16    7   23 1   
    17    8   14 ar  
    18    8   18 ar  
    19    8   24 1   
    20    9   16 2   
    21    9   17 1   
    22   10   16 1   
    23   10   18 1   
    24   11   14 1   
    25   12   25 1   
    26   13   26 1   
    27   15   16 1   
    28   17   18 ar  
@<TRIPOS>SUBSTRUCTURE
     1 3MI         1 TEMP              0 ****  ****    0 ROOT
