@<TRIPOS>MOLECULE
3MJ
   50    50     1     0     0
SMALL
bcc


@<TRIPOS>ATOM
      1 C7          0.0480   -0.0390    0.0860 ca        1 3MJ     -0.140000
      2 C5          2.1020   -0.0520    1.3930 ca        1 3MJ      0.048100
      3 C6          1.4420   -0.0490    0.1500 ca        1 3MJ      0.094600
      4 C4          1.3330   -0.0460    2.5750 ca        1 3MJ      0.094600
      5 C3         -0.0670   -0.0370    2.5100 ca        1 3MJ     -0.140000
      6 C2         -0.7060   -0.0340    1.2680 ca        1 3MJ     -0.139600
      7 C1         -2.1840   -0.0240    1.1530 c         1 3MJ      0.579700
      8 C11        -2.9660   -0.0220    2.4360 c3        1 3MJ     -0.175400
      9 C12        -4.4610   -0.0150    2.2010 c3        1 3MJ     -0.075400
     10 C13        -5.2170   -0.0130    3.5110 c3        1 3MJ     -0.079400
     11 C14        -6.7130   -0.0070    3.2770 c3        1 3MJ     -0.078400
     12 C15        -7.4730   -0.0040    4.5860 c3        1 3MJ     -0.079400
     13 C16        -8.9680    0.0010    4.3530 c3        1 3MJ     -0.079400
     14 C17        -9.7290    0.0040    5.6610 c3        1 3MJ     -0.078400
     15 O8          1.9030   -0.0490    3.8250 oh        1 3MJ     -0.503100
     16 O9          3.4700   -0.0610    1.5330 oh        1 3MJ     -0.509100
     17 O10         2.2550   -0.0550   -0.9640 oh        1 3MJ     -0.503100
     18 C18       -11.2250    0.0090    5.4280 c3        1 3MJ     -0.079400
     19 C19       -11.9850    0.0110    6.7360 c3        1 3MJ     -0.079400
     20 C20       -13.4810    0.0150    6.5040 c3        1 3MJ     -0.080400
     21 C21       -14.2430    0.0180    7.8040 c3        1 3MJ     -0.092100
     22 O22        -2.7370   -0.0180    0.0450 o         1 3MJ     -0.535100
     23 H1         -0.4700   -0.0360   -0.8860 ha        1 3MJ      0.160500
     24 H2         -0.6320   -0.0330    3.4540 ha        1 3MJ      0.160500
     25 H3         -2.6710    0.8830    3.0320 hc        1 3MJ      0.069700
     26 H4         -2.6790   -0.9310    3.0300 hc        1 3MJ      0.069700
     27 H5         -4.7390    0.8870    1.5950 hc        1 3MJ      0.055700
     28 H6         -4.7470   -0.9140    1.5930 hc        1 3MJ      0.055700
     29 H7         -4.9350   -0.9170    4.1120 hc        1 3MJ      0.038700
     30 H8         -4.9270    0.8880    4.1130 hc        1 3MJ      0.038700
     31 H9         -7.0030   -0.9080    2.6750 hc        1 3MJ      0.042700
     32 H10        -6.9950    0.8970    2.6760 hc        1 3MJ      0.042700
     33 H11        -7.1900   -0.9080    5.1880 hc        1 3MJ      0.039700
     34 H12        -7.1830    0.8970    5.1880 hc        1 3MJ      0.039700
     35 H13        -9.2520    0.9050    3.7510 hc        1 3MJ      0.039700
     36 H14        -9.2580   -0.9000    3.7510 hc        1 3MJ      0.039700
     37 H15        -9.4450   -0.9000    6.2630 hc        1 3MJ      0.039700
     38 H16        -9.4400    0.9050    6.2630 hc        1 3MJ      0.039700
     39 H17         2.8670   -0.0560    3.7160 ho        1 3MJ      0.439000
     40 H18         3.8600   -0.0650    0.6450 ho        1 3MJ      0.451000
     41 H19         1.6850   -0.0510   -1.7470 ho        1 3MJ      0.439000
     42 H20       -11.5140   -0.8930    4.8260 hc        1 3MJ      0.039700
     43 H21       -11.5080    0.9120    4.8260 hc        1 3MJ      0.039700
     44 H22       -11.6960    0.9130    7.3380 hc        1 3MJ      0.039700
     45 H23       -11.7020   -0.8920    7.3380 hc        1 3MJ      0.039700
     46 H24       -13.7630    0.9190    5.9000 hc        1 3MJ      0.038700
     47 H25       -13.7680   -0.8860    5.9010 hc        1 3MJ      0.038700
     48 H26       -15.3430    0.0210    7.6100 hc        1 3MJ      0.032700
     49 H27       -13.9890    0.9220    8.4080 hc        1 3MJ      0.032700
     50 H28       -13.9940   -0.8880    8.4080 hc        1 3MJ      0.032700
@<TRIPOS>BOND
     1    1    3 ar  
     2    1    6 ar  
     3    1   23 1   
     4    2    3 ar  
     5    2    4 ar  
     6    2   16 1   
     7    3   17 1   
     8    4    5 ar  
     9    4   15 1   
    10    5    6 ar  
    11    5   24 1   
    12    6    7 1   
    13    7    8 1   
    14    7   22 2   
    15    8    9 1   
    16    8   25 1   
    17    8   26 1   
    18    9   10 1   
    19    9   27 1   
    20    9   28 1   
    21   10   11 1   
    22   10   29 1   
    23   10   30 1   
    24   11   12 1   
    25   11   31 1   
    26   11   32 1   
    27   12   13 1   
    28   12   33 1   
    29   12   34 1   
    30   13   14 1   
    31   13   35 1   
    32   13   36 1   
    33   14   18 1   
    34   14   37 1   
    35   14   38 1   
    36   15   39 1   
    37   16   40 1   
    38   17   41 1   
    39   18   19 1   
    40   18   42 1   
    41   18   43 1   
    42   19   20 1   
    43   19   44 1   
    44   19   45 1   
    45   20   21 1   
    46   20   46 1   
    47   20   47 1   
    48   21   48 1   
    49   21   49 1   
    50   21   50 1   
@<TRIPOS>SUBSTRUCTURE
     1 3MJ         1 TEMP              0 ****  ****    0 ROOT
