@<TRIPOS>MOLECULE
3ML
   18    18     1     0     0
SMALL
bcc


@<TRIPOS>ATOM
      1 CAA         0.3020    0.3010   -0.6900 c3        1 3ML     -0.084900
      2 CAI         1.6370    0.0860   -0.1310 c2        1 3ML     -0.017400
      3 CAE         2.0450    0.0990    1.1620 ce        1 3ML     -0.318200
      4 CAJ         3.4970   -0.1760    1.1900 c         1 3ML      0.714800
      5 OAC         4.3250   -0.2620    2.0950 o         1 3ML     -0.629500
      6 OAG         3.9590   -0.3510   -0.1030 os        1 3ML     -0.429900
      7 CAK         2.8300   -0.1880   -1.0300 c3        1 3ML      0.160300
      8 CAF         2.7010   -1.4170   -1.8980 c3        1 3ML     -0.206400
      9 CAH         1.9110   -1.1220   -3.1900 c         1 3ML      0.911600
     10 OAD         1.6750    0.0840   -3.4970 o         1 3ML     -0.841300
     11 OAB         1.5400   -2.1140   -3.8740 o         1 3ML     -0.841300
     12 HAA         0.3840    0.5920   -1.7760 hc        1 3ML      0.070700
     13 HAAA       -0.2850   -0.6520   -0.6390 hc        1 3ML      0.070700
     14 HAAB       -0.2510    1.0890   -0.1230 hc        1 3ML      0.070700
     15 HAE         1.4710    0.2710    2.0680 ha        1 3ML      0.155000
     16 HAK         3.0660    0.7120   -1.6630 h1        1 3ML      0.116700
     17 HAF         3.7250   -1.7640   -2.1900 hc        1 3ML      0.049200
     18 HAFA        2.2010   -2.2480   -1.3430 hc        1 3ML      0.049200
@<TRIPOS>BOND
     1    1    2 1   
     2    1   12 1   
     3    1   13 1   
     4    1   14 1   
     5    2    3 2   
     6    2    7 1   
     7    3    4 1   
     8    3   15 1   
     9    4    5 2   
    10    4    6 1   
    11    6    7 1   
    12    7    8 1   
    13    7   16 1   
    14    8    9 1   
    15    8   17 1   
    16    8   18 1   
    17    9   10 1   
    18    9   11 1   
@<TRIPOS>SUBSTRUCTURE
     1 3ML         1 TEMP              0 ****  ****    0 ROOT
