@<TRIPOS>MOLECULE
3ML
   18    18     1     0     0
SMALL
bcc


@<TRIPOS>ATOM
      1 CAA        -0.8110    2.4130    0.6030 c3        1 3ML     -0.084900
      2 CAI        -1.2050    1.0710    0.1760 c2        1 3ML     -0.017400
      3 CAE        -2.4040    0.6220   -0.2710 ce        1 3ML     -0.318200
      4 CAJ        -2.2740   -0.8190   -0.5710 c         1 3ML      0.714800
      5 OAC        -3.0580   -1.6710   -0.9860 o         1 3ML     -0.629500
      6 OAG        -0.9830   -1.2340   -0.2980 os        1 3ML     -0.429900
      7 CAK        -0.2170   -0.0830    0.2030 c3        1 3ML      0.160300
      8 CAF         1.0160    0.1170   -0.6450 c3        1 3ML     -0.206400
      9 CAH         2.0920    0.9360    0.0990 c         1 3ML      0.911600
     10 OAD         1.9530    1.1370    1.3410 o         1 3ML     -0.841300
     11 OAB         3.0610    1.3640   -0.5850 o         1 3ML     -0.841300
     12 HAA        -0.5540    3.0330   -0.2950 hc        1 3ML      0.070700
     13 HAAA       -1.6380    2.9190    1.1580 hc        1 3ML      0.070700
     14 HAAB        0.1090    2.3550    1.2510 hc        1 3ML      0.070700
     15 HAE        -3.3370    1.1610   -0.4100 ha        1 3ML      0.155000
     16 HAK         0.0750   -0.3320    1.2620 h1        1 3ML      0.116700
     17 HAF         1.4530   -0.8830   -0.8930 hc        1 3ML      0.049200
     18 HAFA        0.7630    0.6300   -1.6040 hc        1 3ML      0.049200
@<TRIPOS>BOND
     1    1    2 1   
     2    1   12 1   
     3    1   13 1   
     4    1   14 1   
     5    2    3 2   
     6    2    7 1   
     7    3    4 1   
     8    3   15 1   
     9    4    5 2   
    10    4    6 1   
    11    6    7 1   
    12    7    8 1   
    13    7   16 1   
    14    8    9 1   
    15    8   17 1   
    16    8   18 1   
    17    9   10 1   
    18    9   11 1   
@<TRIPOS>SUBSTRUCTURE
     1 3ML         1 TEMP              0 ****  ****    0 ROOT
