@<TRIPOS>MOLECULE
3ML
   18    17     1     0     0
SMALL
bcc


@<TRIPOS>ATOM
      1 CAA        -1.8370    0.6870    0.7310 c3        1 3ML     -0.211000
      2 CAI        -0.2720    0.7780    0.6920 c2        1 3ML     -0.013000
      3 CAE         0.4160    0.7830    1.8190 c1        1 3ML     -0.296000
      4 CAJ         1.6920    0.2450    1.7170 c1        1 3ML      0.330000
      5 OAC         2.6210    0.5150    2.4110 o         1 3ML     -0.353000
      6 OAG         1.7690   -0.2790    0.2800 os        1 3ML     -0.267000
      7 CAK         0.4410    0.2740   -0.4290 c3        1 3ML      0.047000
      8 CAF        -0.2880   -0.7330   -1.2180 c3        1 3ML     -0.236000
      9 CAH         0.6980   -1.4620   -2.1600 c2        1 3ML      0.326000
     10 OAD         1.1860   -2.5090   -1.8220 o         1 3ML     -0.572500
     11 OAB         0.8980   -1.0260   -3.3080 o         1 3ML     -0.572500
     12 HAA        -2.1100   -0.2600    0.8950 hc        1 3ML      0.113333
     13 HAAA       -2.1860    1.2640    1.4630 hc        1 3ML      0.113333
     14 HAAB       -2.2010    0.9880   -0.1200 hc        1 3ML      0.113333
     15 HAE         0.2170    1.4430    2.5140 ha        1 3ML      0.156000
     16 HAK         0.6360    0.9880   -1.1210 h1        1 3ML      0.147000
     17 HAF        -0.9700   -0.3000   -1.7400 hc        1 3ML      0.088000
     18 HAFA       -0.7100   -1.3950   -0.6030 hc        1 3ML      0.088000
@<TRIPOS>BOND
     1    1    2 1   
     2    1   12 1   
     3    1   13 1   
     4    1   14 1   
     5    2    3 1   
     6    2    7 1   
     7    3   15 1   
     8    4    5 1   
     9    4    6 1   
    10    6    7 1   
    11    7    8 1   
    12    7   16 1   
    13    8    9 1   
    14    8   17 1   
    15    8   18 1   
    16    9   10 1   
    17    9   11 1   
@<TRIPOS>SUBSTRUCTURE
     1 3ML         1 TEMP              0 ****  ****    0 ROOT
