@<TRIPOS>MOLECULE
3ML
   18    18     1     0     0
SMALL
bcc


@<TRIPOS>ATOM
      1 CAA         0.3020    0.2830   -0.6290 c3        1 3ML     -0.084900
      2 CAI         1.6570    0.0900   -0.1140 c2        1 3ML     -0.017400
      3 CAE         2.1090    0.1160    1.1630 ce        1 3ML     -0.318200
      4 CAJ         3.5650   -0.1390    1.1430 c         1 3ML      0.714800
      5 OAC         4.4250   -0.2080    2.0200 o         1 3ML     -0.629500
      6 OAG         3.9850   -0.3160   -0.1630 os        1 3ML     -0.429900
      7 CAK         2.8230   -0.1740   -1.0530 c3        1 3ML      0.160300
      8 CAF         2.6810   -1.4100   -1.9080 c3        1 3ML     -0.206400
      9 CAH         1.8440   -1.1340   -3.1750 c         1 3ML      0.911600
     10 OAD         1.5810    0.0670   -3.4810 o         1 3ML     -0.841300
     11 OAB         1.4640   -2.1350   -3.8400 o         1 3ML     -0.841300
     12 HAA         0.3420    0.5680   -1.7190 hc        1 3ML      0.070700
     13 HAAA       -0.2420    1.0690   -0.0490 hc        1 3ML      0.070700
     14 HAAB       -0.2710   -0.6770   -0.5510 hc        1 3ML      0.070700
     15 HAE         1.5650    0.2860    2.0880 ha        1 3ML      0.155000
     16 HAK         3.0240    0.7250   -1.6990 h1        1 3ML      0.116700
     17 HAF         2.2110   -2.2440   -1.3320 hc        1 3ML      0.049200
     18 HAFA        3.6990   -1.7460   -2.2330 hc        1 3ML      0.049200
@<TRIPOS>BOND
     1    1    2 1   
     2    1   12 1   
     3    1   13 1   
     4    1   14 1   
     5    2    3 2   
     6    2    7 1   
     7    3    4 1   
     8    3   15 1   
     9    4    5 2   
    10    4    6 1   
    11    6    7 1   
    12    7    8 1   
    13    7   16 1   
    14    8    9 1   
    15    8   17 1   
    16    8   18 1   
    17    9   10 1   
    18    9   11 1   
@<TRIPOS>SUBSTRUCTURE
     1 3ML         1 TEMP              0 ****  ****    0 ROOT
