@<TRIPOS>MOLECULE
3MM
   29    28     1     0     0
SMALL
bcc


@<TRIPOS>ATOM
      1 CAA         4.4840   -0.0710    0.5170 c3        1 3MM     -0.053000
      2 SAI         3.1170   -0.9940   -0.0640 ss        1 3MM     -0.258200
      3 CAG         1.7660    0.1080    0.2360 c3        1 3MM     -0.031300
      4 CAH         0.5210   -0.5880   -0.2460 c3        1 3MM     -0.083400
      5 CAK        -0.7790   -0.1200    0.3840 c3        1 3MM     -0.047500
      6 CAJ        -1.8890   -1.1980   -0.0630 c         1 3MM      0.931600
      7 OAF        -2.3170   -1.0940   -1.2380 o         1 3MM     -0.763800
      8 NAL        -1.2370    1.2860    0.0410 n4        1 3MM     -0.567800
      9 CAB        -1.0360    1.5740   -1.4060 c3        1 3MM      0.085100
     10 CAC        -2.6990    1.3900    0.3510 c3        1 3MM      0.085100
     11 CAD        -0.5210    2.3000    0.8610 c3        1 3MM      0.085100
     12 OXT        -2.1910   -2.0090    0.8310 o         1 3MM     -0.763800
     13 H1AA        4.6230    0.8770   -0.0500 h1        1 3MM      0.063367
     14 H2AA        4.3960    0.1740    1.5990 h1        1 3MM      0.063367
     15 H3AA        5.3810   -0.7170    0.3650 h1        1 3MM      0.063367
     16 H1AG        1.6980    0.3430    1.3260 h1        1 3MM      0.046700
     17 H2AG        1.9380    1.0660   -0.3150 h1        1 3MM      0.046700
     18 H1AH        0.4510   -0.5420   -1.3660 hc        1 3MM      0.096200
     19 H2AH        0.5860   -1.6850    0.0220 hc        1 3MM      0.096200
     20 HAK        -0.7000   -0.1580    1.5070 hx        1 3MM      0.084700
     21 H1AB       -1.4900    0.7240   -1.9990 hx        1 3MM      0.091478
     22 H2AB       -1.5380    2.5410   -1.6660 hx        1 3MM      0.091478
     23 H3AB        0.0610    1.6480   -1.6230 hx        1 3MM      0.091478
     24 H1AC       -2.8820    0.9870    1.3810 hx        1 3MM      0.091478
     25 H2AC       -3.0150    2.4620    0.2870 hx        1 3MM      0.091478
     26 H3AC       -3.2780    0.7700   -0.3920 hx        1 3MM      0.091478
     27 H1AD        0.5780    2.2520    0.6530 hx        1 3MM      0.091478
     28 H2AD       -0.9000    3.3240    0.6070 hx        1 3MM      0.091478
     29 H3AD       -0.7040    2.0920    1.9480 hx        1 3MM      0.091478
@<TRIPOS>BOND
     1    1    2 1   
     2    1   13 1   
     3    1   14 1   
     4    1   15 1   
     5    2    3 1   
     6    3    4 1   
     7    3   16 1   
     8    3   17 1   
     9    4    5 1   
    10    4   18 1   
    11    4   19 1   
    12    5    6 1   
    13    5    8 1   
    14    5   20 1   
    15    6    7 1   
    16    6   12 1   
    17    8    9 1   
    18    8   10 1   
    19    8   11 1   
    20    9   21 1   
    21    9   22 1   
    22    9   23 1   
    23   10   24 1   
    24   10   25 1   
    25   10   26 1   
    26   11   27 1   
    27   11   28 1   
    28   11   29 1   
@<TRIPOS>SUBSTRUCTURE
     1 3MM         1 TEMP              0 ****  ****    0 ROOT
