@<TRIPOS>MOLECULE
3MM
   29    28     1     0     0
SMALL
bcc


@<TRIPOS>ATOM
      1 CAA        -4.2210    0.1410   -2.4060 c3        1 3MM     -0.037000
      2 SAI        -2.4360    0.1410   -2.4060 ss        1 3MM     -0.308200
      3 CAG        -1.8390    0.1410   -0.7210 c3        1 3MM     -0.025300
      4 CAH        -0.3080   -0.0230   -0.7160 c3        1 3MM     -0.072400
      5 CAK         0.2290    0.2760    0.6710 c3        1 3MM     -0.046500
      6 CAJ         0.3790    1.7600    0.8400 c         1 3MM      0.931600
      7 OAF         0.0320    2.3100    1.9250 o         1 3MM     -0.769800
      8 NAL         1.5150   -0.3580    0.8360 n4        1 3MM     -0.567800
      9 CAB         1.3410   -1.7930    0.8910 c3        1 3MM      0.085100
     10 CAC         2.1240    0.1020    2.0680 c3        1 3MM      0.085100
     11 CAD         2.3690   -0.0160   -0.2820 c3        1 3MM      0.085100
     12 OXT         0.7840    2.4670   -0.1240 o         1 3MM     -0.769800
     13 H1AA       -4.5460    0.1590   -3.3260 h1        1 3MM      0.067367
     14 H2AA       -4.5460    0.9300   -1.9310 h1        1 3MM      0.067367
     15 H3AA       -4.5460   -0.6640   -1.9610 h1        1 3MM      0.067367
     16 H1AG       -2.2470   -0.5980   -0.2310 h1        1 3MM      0.097700
     17 H2AG       -2.0760    0.9860   -0.2920 h1        1 3MM      0.097700
     18 H1AH       -0.0780   -0.9400   -0.9630 hc        1 3MM      0.050700
     19 H2AH        0.0880    0.5950   -1.3590 hc        1 3MM      0.050700
     20 HAK        -0.3910   -0.0670    1.3420 hx        1 3MM      0.082700
     21 H1AB        1.2150   -2.1400   -0.0130 hx        1 3MM      0.092033
     22 H2AB        0.5580   -2.0060    1.4340 hx        1 3MM      0.092033
     23 H3AB        2.1340   -2.2020    1.2890 hx        1 3MM      0.092033
     24 H1AC        2.3660    1.0440    1.9790 hx        1 3MM      0.092033
     25 H2AC        2.9260   -0.4240    2.2500 hx        1 3MM      0.092033
     26 H3AC        1.4910   -0.0030    2.8030 hx        1 3MM      0.092033
     27 H1AD        2.0180   -0.4240   -1.0960 hx        1 3MM      0.092033
     28 H2AD        2.3940    0.9540   -0.3880 hx        1 3MM      0.092033
     29 H3AD        3.2720   -0.3480   -0.1150 hx        1 3MM      0.092033
@<TRIPOS>BOND
     1    1    2 1   
     2    1   13 1   
     3    1   14 1   
     4    1   15 1   
     5    2    3 1   
     6    3    4 1   
     7    3   16 1   
     8    3   17 1   
     9    4    5 1   
    10    4   18 1   
    11    4   19 1   
    12    5    6 1   
    13    5    8 1   
    14    5   20 1   
    15    6    7 1   
    16    6   12 1   
    17    8    9 1   
    18    8   10 1   
    19    8   11 1   
    20    9   21 1   
    21    9   22 1   
    22    9   23 1   
    23   10   24 1   
    24   10   25 1   
    25   10   26 1   
    26   11   27 1   
    27   11   28 1   
    28   11   29 1   
@<TRIPOS>SUBSTRUCTURE
     1 3MM         1 TEMP              0 ****  ****    0 ROOT
