@<TRIPOS>MOLECULE
3MN
   60    64     1     0     0
SMALL
bcc


@<TRIPOS>ATOM
      1 C2          0.1120    0.0150    0.2100 c3        1 3MN      0.044300
      2 N4          1.5320    0.1920    0.2060 na        1 3MN     -0.210900
      3 C29         2.3750    0.2680    1.3280 cc        1 3MN      0.389400
      4 C21         2.3620    0.2350   -0.9200 cc        1 3MN     -0.255600
      5 C30         3.6750    0.3580   -0.4320 cd        1 3MN      0.290200
      6 N5          3.6690    0.3780    0.9630 nd        1 3MN     -0.667000
      7 C1         -0.3470   -1.4430    0.1320 c3        1 3MN     -0.130400
      8 C16        -1.8770   -1.4690    0.1220 c3        1 3MN      0.112000
      9 C18        -2.7100   -3.5830    1.2120 c         1 3MN      0.815500
     10 N2         -3.1350   -4.8590    0.7960 n         1 3MN     -0.489800
     11 C14        -3.1860   -4.9570   -0.6820 c3        1 3MN      0.117700
     12 C4         -2.7180   -3.5120   -1.1140 c         1 3MN      0.699500
     13 N1         -2.4510   -2.7830    0.0590 n         1 3MN     -0.509400
     14 O2         -2.6420   -3.0540   -2.2540 o         1 3MN     -0.573500
     15 C11        -3.6880   -5.8340    1.6880 c3        1 3MN      0.162300
     16 C19        -5.1090   -5.6160    2.1340 ca        1 3MN     -0.131300
     17 C12        -5.4220   -4.5400    2.9700 ca        1 3MN     -0.076000
     18 C15        -6.7370   -4.3700    3.4250 ca        1 3MN     -0.018000
     19 C23        -7.7360   -5.2800    3.0500 ca        1 3MN     -0.085000
     20 C5         -7.4140   -6.3530    2.2200 ca        1 3MN     -0.138000
     21 C6         -6.1080   -6.5200    1.7610 ca        1 3MN     -0.101000
     22 C7         -7.0590   -3.2740    4.2710 cg        1 3MN      0.231800
     23 N3         -7.3240   -2.3770    4.9620 n1        1 3MN     -0.356800
     24 C20        -0.4820   -7.6660   -0.8440 ca        1 3MN     -0.139000
     25 C13        -0.5110   -8.0570   -2.1560 ca        1 3MN     -0.101000
     26 C17        -1.3690   -7.3950   -3.0750 ca        1 3MN     -0.042000
     27 C24        -2.2040   -6.3300   -2.6360 ca        1 3MN     -0.014000
     28 C25        -2.2130   -5.9880   -1.2410 ca        1 3MN     -0.092300
     29 C26        -1.3360   -6.6350   -0.3920 ca        1 3MN     -0.106000
     30 C27        -1.3750   -7.7910   -4.4420 ca        1 3MN     -0.120000
     31 C8         -2.1570   -7.1360   -5.3590 ca        1 3MN     -0.124000
     32 C9         -2.9500   -6.0420   -4.9440 ca        1 3MN     -0.122000
     33 C10        -2.9680   -5.6500   -3.6280 ca        1 3MN     -0.123000
     34 C28        -4.6130   -5.2000   -1.1960 c3        1 3MN     -0.114100
     35 H21A       -0.3150    0.5790   -0.6690 h1        1 3MN      0.062200
     36 H22        -0.2950    0.4760    1.1560 h1        1 3MN      0.062200
     37 H29         1.9940    0.2530    2.3540 h5        1 3MN      0.061100
     38 H21         1.9720    0.1870   -1.9330 h4        1 3MN      0.177000
     39 H30         4.6030    0.4340   -0.9980 h4        1 3MN      0.042100
     40 H11         0.0440   -2.0180    1.0120 hc        1 3MN      0.068700
     41 H12A        0.0550   -1.9250   -0.7970 hc        1 3MN      0.068700
     42 H161       -2.2500   -0.8970   -0.7760 h1        1 3MN      0.072200
     43 H162       -2.2590   -0.9750    1.0620 h1        1 3MN      0.072200
     44 H111       -3.6060   -6.8380    1.1780 h1        1 3MN      0.075200
     45 H112       -3.0360   -5.8430    2.6140 h1        1 3MN      0.075200
     46 H12        -4.6310   -3.8300    3.2710 ha        1 3MN      0.173000
     47 H23        -8.7670   -5.1470    3.4110 ha        1 3MN      0.147000
     48 H5         -8.1950   -7.0700    1.9270 ha        1 3MN      0.142000
     49 H6         -5.8650   -7.3700    1.1050 ha        1 3MN      0.138000
     50 H20         0.1950   -8.1490   -0.1240 ha        1 3MN      0.139000
     51 H13         0.1300   -8.8740   -2.5220 ha        1 3MN      0.138000
     52 H26        -1.2640   -6.3790    0.6770 ha        1 3MN      0.142000
     53 H27        -0.7320   -8.6310   -4.7460 ha        1 3MN      0.134000
     54 H8         -2.1660   -7.4410   -6.4160 ha        1 3MN      0.136000
     55 H9         -3.5460   -5.4980   -5.6930 ha        1 3MN      0.136000
     56 H10        -3.5520   -4.7600   -3.3480 ha        1 3MN      0.152000
     57 H281       -5.3480   -5.2780   -0.3560 hc        1 3MN      0.063700
     58 H282       -4.9360   -4.3570   -1.8550 hc        1 3MN      0.063700
     59 H283       -4.6600   -6.1520   -1.7790 hc        1 3MN      0.063700
     60 O1         -2.5690   -3.2040    2.3880 o         1 3MN     -0.628500
@<TRIPOS>BOND
     1    1    2 1   
     2    1    7 1   
     3    1   35 1   
     4    1   36 1   
     5    2    3 1   
     6    2    4 1   
     7    3    6 2   
     8    3   37 1   
     9    4    5 2   
    10    4   38 1   
    11    5    6 1   
    12    5   39 1   
    13    7    8 1   
    14    7   40 1   
    15    7   41 1   
    16    8   13 1   
    17    8   42 1   
    18    8   43 1   
    19    9   10 1   
    20    9   13 1   
    21    9   60 2   
    22   10   11 1   
    23   10   15 1   
    24   11   12 1   
    25   11   28 1   
    26   11   34 1   
    27   12   13 1   
    28   12   14 2   
    29   15   16 1   
    30   15   44 1   
    31   15   45 1   
    32   16   17 ar  
    33   16   21 ar  
    34   17   18 ar  
    35   17   46 1   
    36   18   19 ar  
    37   18   22 1   
    38   19   20 ar  
    39   19   47 1   
    40   20   21 ar  
    41   20   48 1   
    42   21   49 1   
    43   22   23 3   
    44   24   25 ar  
    45   24   29 ar  
    46   24   50 1   
    47   25   26 ar  
    48   25   51 1   
    49   26   27 ar  
    50   26   30 ar  
    51   27   28 ar  
    52   27   33 ar  
    53   28   29 ar  
    54   29   52 1   
    55   30   31 ar  
    56   30   53 1   
    57   31   32 ar  
    58   31   54 1   
    59   32   33 ar  
    60   32   55 1   
    61   33   56 1   
    62   34   57 1   
    63   34   58 1   
    64   34   59 1   
@<TRIPOS>SUBSTRUCTURE
     1 3MN         1 TEMP              0 ****  ****    0 ROOT
