@<TRIPOS>MOLECULE
3MN
   60    54     1     0     0
SMALL
bcc


@<TRIPOS>ATOM
      1 C2          2.0450    4.2800    0.5980 c3        1 3MN     -0.015000
      2 N4          3.4040    4.3140    1.0720 n3        1 3MN     -0.166000
      3 C29         3.7940    4.3760    2.3700 c1        1 3MN     -0.099000
      4 C21         4.5020    4.3530    0.3080 c1        1 3MN     -0.166000
      5 C30         5.5890    4.4400    1.1340 c1        1 3MN     -0.175000
      6 N5          5.1480    4.4540    2.3980 n2        1 3MN     -0.141000
      7 C1          1.5520    2.8320    0.5630 c3        1 3MN     -0.209000
      8 C16         0.0770    2.7990    0.0940 c3        1 3MN     -0.004000
      9 C18        -0.7180    0.5520    1.0410 c1        1 3MN      0.406000
     10 N2         -0.8690   -0.7760    0.5150 n2        1 3MN     -0.348000
     11 C14        -1.1050   -0.6680   -0.9040 c3        1 3MN      0.123000
     12 C4         -0.6710    0.7490   -1.2430 c2        1 3MN      0.307000
     13 N1         -0.3620    1.4130   -0.0320 n         1 3MN     -0.338000
     14 O1         -0.8270    0.8740    2.2070 o         1 3MN     -0.353000
     15 O2         -0.6460    1.2420   -2.3530 o         1 3MN     -0.298000
     16 C11        -0.8830   -2.0010    1.2890 c3        1 3MN      0.039000
     17 C19        -1.8100   -1.8310    2.5020 c2        1 3MN     -0.124000
     18 C12        -1.3140   -1.2990    3.6840 c2        1 3MN     -0.076000
     19 C15        -2.1290   -1.2210    4.8070 c1        1 3MN     -0.014000
     20 C23        -3.4370   -1.6740    4.7480 c1        1 3MN     -0.117250
     21 C5         -3.9340   -2.2070    3.5660 c1        1 3MN     -0.117250
     22 C6         -3.1210   -2.2860    2.4420 c1        1 3MN     -0.101000
     23 C7         -1.5850   -0.6420    6.1000 c1        1 3MN     -0.098000
     24 N3         -1.1760   -0.2080    7.0700 n1        1 3MN     -0.031000
     25 C20         1.6160   -3.0930   -1.6470 c1        1 3MN     -0.139000
     26 C13         1.5940   -3.2240   -3.0340 c1        1 3MN     -0.110500
     27 C17         0.5720   -2.6150   -3.7820 c1        1 3MN     -0.042000
     28 C24        -0.4090   -1.8880   -3.1440 c1        1 3MN     -0.014000
     29 C25        -0.3860   -1.7550   -1.7390 c2        1 3MN     -0.085000
     30 C26         0.6240   -2.3580   -1.0010 c2        1 3MN     -0.106000
     31 C27         0.5540   -2.7410   -5.1820 c1        1 3MN     -0.110500
     32 C8         -0.4520   -2.1320   -5.9220 c1        1 3MN     -0.117250
     33 C9         -1.4410   -1.3990   -5.2780 c1        1 3MN     -0.117250
     34 C10        -1.4250   -1.2730   -3.8930 c1        1 3MN     -0.123000
     35 C28        -2.5650   -0.9190   -1.2600 c3        1 3MN     -0.232000
     36 H21A        1.4760    4.8050    1.1990 h1        1 3MN      0.101500
     37 H22         2.0050    4.6590   -0.3010 h1        1 3MN      0.101500
     38 H29         3.2060    4.3660    3.1460 DU        1 3MN      0.184667
     39 H21         4.5230    4.3250   -0.6630 DU        1 3MN      0.184667
     40 H30         6.5190    4.4840    0.8530 DU        1 3MN      0.184667
     41 H11         2.1020    2.3160   -0.0560 hc        1 3MN      0.108000
     42 H12A        1.6180    2.4450    1.4580 hc        1 3MN      0.108000
     43 H161        0.0000    3.2480   -0.7770 h1        1 3MN      0.111500
     44 H162       -0.4860    3.2620    0.7510 h1        1 3MN      0.111500
     45 H111       -1.2070   -2.7350    0.7310 h1        1 3MN      0.114500
     46 H112        0.0240   -2.2020    1.5980 h1        1 3MN      0.114500
     47 H12        -0.3930   -0.9790    3.7260 ha        1 3MN      0.173000
     48 H23        -4.0080   -1.6190    5.5350 ha        1 3MN      0.140250
     49 H5         -4.8560   -2.5270    3.5250 ha        1 3MN      0.140250
     50 H6         -3.4700   -2.6590    1.6140 ha        1 3MN      0.138000
     51 H20         2.3280   -3.5170   -1.1270 ha        1 3MN      0.139000
     52 H13         2.2900   -3.7410   -3.4880 ha        1 3MN      0.136000
     53 H26         0.6400   -2.2660   -0.0320 ha        1 3MN      0.142000
     54 H27         1.2480   -3.2550   -5.6340 ha        1 3MN      0.136000
     55 H8         -0.4640   -2.2200   -6.8980 ha        1 3MN      0.140250
     56 H9         -2.1470   -0.9710   -5.7980 ha        1 3MN      0.140250
     57 H10        -2.1180   -0.7590   -3.4420 ha        1 3MN      0.152000
     58 H281       -3.1370   -0.5960   -0.5360 hc        1 3MN      0.103000
     59 H282       -2.7860   -0.4440   -2.0870 hc        1 3MN      0.103000
     60 H283       -2.7110   -1.8870   -1.3880 hc        1 3MN      0.103000
@<TRIPOS>BOND
     1    1    2 1   
     2    1    7 1   
     3    1   36 1   
     4    1   37 1   
     5    2    3 1   
     6    2    4 1   
     7    3    6 1   
     8    4    5 1   
     9    5    6 1   
    10    7    8 1   
    11    7   41 1   
    12    7   42 1   
    13    8   13 1   
    14    8   43 1   
    15    8   44 1   
    16    9   13 1   
    17    9   14 1   
    18   10   11 1   
    19   10   16 1   
    20   11   12 1   
    21   11   29 1   
    22   11   35 1   
    23   12   13 1   
    24   12   15 1   
    25   16   17 1   
    26   16   45 1   
    27   16   46 1   
    28   17   18 1   
    29   17   22 1   
    30   18   19 1   
    31   18   47 1   
    32   19   23 1   
    33   20   21 1   
    34   20   48 1   
    35   21   49 1   
    36   22   50 1   
    37   23   24 1   
    38   25   30 1   
    39   25   51 1   
    40   26   27 1   
    41   26   52 1   
    42   27   31 1   
    43   28   29 1   
    44   28   34 1   
    45   29   30 1   
    46   30   53 1   
    47   31   54 1   
    48   32   33 1   
    49   32   55 1   
    50   33   56 1   
    51   34   57 1   
    52   35   58 1   
    53   35   59 1   
    54   35   60 1   
@<TRIPOS>SUBSTRUCTURE
     1 3MN         1 TEMP              0 ****  ****    0 ROOT
