@<TRIPOS>MOLECULE
3MN
   60    64     1     0     0
SMALL
bcc


@<TRIPOS>ATOM
      1 C2          0.1110    0.0090    0.2180 c3        1 3MN      0.044300
      2 N4          1.5310    0.1820    0.2230 na        1 3MN     -0.210900
      3 C29         2.3680    0.2520    1.3490 cc        1 3MN      0.389400
      4 C21         2.3670    0.2290   -0.8990 cc        1 3MN     -0.255600
      5 C30         3.6780    0.3470   -0.4030 cd        1 3MN      0.290200
      6 N5          3.6640    0.3610    0.9920 nd        1 3MN     -0.667000
      7 C1         -0.3500   -1.4490    0.1360 c3        1 3MN     -0.130400
      8 C16        -1.8810   -1.4720    0.1190 c3        1 3MN      0.112000
      9 C18        -2.7120   -3.5890    1.2040 c         1 3MN      0.815500
     10 N2         -3.1410   -4.8620    0.7840 n         1 3MN     -0.489800
     11 C14        -3.1990   -4.9550   -0.6940 c3        1 3MN      0.117700
     12 C4         -2.7310   -3.5090   -1.1210 c         1 3MN      0.699500
     13 N1         -2.4570   -2.7840    0.0530 n         1 3MN     -0.509400
     14 O2         -2.6590   -3.0460   -2.2600 o         1 3MN     -0.573500
     15 C11        -3.6920   -5.8400    1.6760 c3        1 3MN      0.162300
     16 C19        -5.1110   -5.6210    2.1290 ca        1 3MN     -0.131300
     17 C12        -5.4180   -4.5480    2.9710 ca        1 3MN     -0.076000
     18 C15        -6.7300   -4.3780    3.4320 ca        1 3MN     -0.018000
     19 C23        -7.7320   -5.2850    3.0580 ca        1 3MN     -0.085000
     20 C5         -7.4170   -6.3540    2.2230 ca        1 3MN     -0.138000
     21 C6         -6.1130   -6.5220    1.7560 ca        1 3MN     -0.101000
     22 C7         -7.0460   -3.2850    4.2840 cg        1 3MN      0.231800
     23 N3         -7.3070   -2.3900    4.9810 n1        1 3MN     -0.356800
     24 C20        -0.5010   -7.6680   -0.8790 ca        1 3MN     -0.139000
     25 C13        -0.5370   -8.0530   -2.1930 ca        1 3MN     -0.101000
     26 C17        -1.3980   -7.3860   -3.1050 ca        1 3MN     -0.042000
     27 C24        -2.2290   -6.3210   -2.6580 ca        1 3MN     -0.014000
     28 C25        -2.2310   -5.9840   -1.2620 ca        1 3MN     -0.092300
     29 C26        -1.3510   -6.6370   -0.4190 ca        1 3MN     -0.106000
     30 C27        -1.4110   -7.7760   -4.4730 ca        1 3MN     -0.120000
     31 C8         -2.1960   -7.1160   -5.3840 ca        1 3MN     -0.124000
     32 C9         -2.9850   -6.0220   -4.9610 ca        1 3MN     -0.122000
     33 C10        -2.9960   -5.6360   -3.6430 ca        1 3MN     -0.123000
     34 C28        -4.6300   -5.1920   -1.2020 c3        1 3MN     -0.114100
     35 H21A       -0.3100    0.5740   -0.6630 h1        1 3MN      0.062200
     36 H22        -0.3010    0.4690    1.1630 h1        1 3MN      0.062200
     37 H29         1.9820    0.2340    2.3730 h5        1 3MN      0.061100
     38 H21         1.9820    0.1860   -1.9150 h4        1 3MN      0.177000
     39 H30         4.6090    0.4230   -0.9630 h4        1 3MN      0.042100
     40 H11         0.0550   -1.9300   -0.7920 hc        1 3MN      0.068700
     41 H12A        0.0340   -2.0260    1.0160 hc        1 3MN      0.068700
     42 H161       -2.2490   -0.8990   -0.7800 h1        1 3MN      0.072200
     43 H162       -2.2660   -0.9770    1.0580 h1        1 3MN      0.072200
     44 H111       -3.6140   -6.8420    1.1610 h1        1 3MN      0.075200
     45 H112       -3.0360   -5.8530    2.5980 h1        1 3MN      0.075200
     46 H12        -4.6240   -3.8410    3.2710 ha        1 3MN      0.173000
     47 H23        -8.7620   -5.1520    3.4250 ha        1 3MN      0.147000
     48 H5         -8.2010   -7.0690    1.9300 ha        1 3MN      0.142000
     49 H6         -5.8740   -7.3700    1.0960 ha        1 3MN      0.138000
     50 H20         0.1780   -8.1540   -0.1640 ha        1 3MN      0.139000
     51 H13         0.1010   -8.8700   -2.5650 ha        1 3MN      0.138000
     52 H26        -1.2740   -6.3850    0.6510 ha        1 3MN      0.142000
     53 H27        -0.7710   -8.6160   -4.7830 ha        1 3MN      0.134000
     54 H8         -2.2100   -7.4170   -6.4420 ha        1 3MN      0.136000
     55 H9         -3.5830   -5.4740   -5.7050 ha        1 3MN      0.136000
     56 H10        -3.5780   -4.7450   -3.3570 ha        1 3MN      0.152000
     57 H281       -5.3610   -5.2720   -0.3590 hc        1 3MN      0.063700
     58 H282       -4.6810   -6.1420   -1.7880 hc        1 3MN      0.063700
     59 H283       -4.9540   -4.3460   -1.8560 hc        1 3MN      0.063700
     60 O1         -2.5650   -3.2140    2.3810 o         1 3MN     -0.628500
@<TRIPOS>BOND
     1    1    2 1   
     2    1    7 1   
     3    1   35 1   
     4    1   36 1   
     5    2    3 1   
     6    2    4 1   
     7    3    6 2   
     8    3   37 1   
     9    4    5 2   
    10    4   38 1   
    11    5    6 1   
    12    5   39 1   
    13    7    8 1   
    14    7   40 1   
    15    7   41 1   
    16    8   13 1   
    17    8   42 1   
    18    8   43 1   
    19    9   10 1   
    20    9   13 1   
    21    9   60 2   
    22   10   11 1   
    23   10   15 1   
    24   11   12 1   
    25   11   28 1   
    26   11   34 1   
    27   12   13 1   
    28   12   14 2   
    29   15   16 1   
    30   15   44 1   
    31   15   45 1   
    32   16   17 ar  
    33   16   21 ar  
    34   17   18 ar  
    35   17   46 1   
    36   18   19 ar  
    37   18   22 1   
    38   19   20 ar  
    39   19   47 1   
    40   20   21 ar  
    41   20   48 1   
    42   21   49 1   
    43   22   23 3   
    44   24   25 ar  
    45   24   29 ar  
    46   24   50 1   
    47   25   26 ar  
    48   25   51 1   
    49   26   27 ar  
    50   26   30 ar  
    51   27   28 ar  
    52   27   33 ar  
    53   28   29 ar  
    54   29   52 1   
    55   30   31 ar  
    56   30   53 1   
    57   31   32 ar  
    58   31   54 1   
    59   32   33 ar  
    60   32   55 1   
    61   33   56 1   
    62   34   57 1   
    63   34   58 1   
    64   34   59 1   
@<TRIPOS>SUBSTRUCTURE
     1 3MN         1 TEMP              0 ****  ****    0 ROOT
