@<TRIPOS>MOLECULE
3MN
   60    64     1     0     0
SMALL
bcc


@<TRIPOS>ATOM
      1 C2         -3.7650    2.9580    0.8730 c3        1 3MN      0.044300
      2 N4         -5.0110    3.0530    0.1740 na        1 3MN     -0.210900
      3 C29        -5.3100    3.9070   -0.9020 cc        1 3MN      0.389400
      4 C21        -6.1410    2.2530    0.3740 cc        1 3MN     -0.255600
      5 C30        -7.0880    2.6710   -0.5780 cd        1 3MN      0.290200
      6 N5         -6.5600    3.6970   -1.3620 nd        1 3MN     -0.667000
      7 C1         -2.8020    1.9080    0.3120 c3        1 3MN     -0.130400
      8 C16        -1.5340    1.9080    1.1700 c3        1 3MN      0.112000
      9 C18         0.4510    1.2640   -0.2420 c         1 3MN      0.815500
     10 N2          1.1830    0.0940   -0.5180 n         1 3MN     -0.489800
     11 C14         0.7150   -1.0460    0.3050 c3        1 3MN      0.117700
     12 C4         -0.4420   -0.3760    1.1460 c         1 3MN      0.699500
     13 N1         -0.5310    0.9720    0.7510 n         1 3MN     -0.509400
     14 O2         -1.1230   -0.8910    2.0330 o         1 3MN     -0.573500
     15 C11         2.3850    0.0840   -1.3000 c3        1 3MN      0.162300
     16 C19         3.6340    0.5890   -0.6290 ca        1 3MN     -0.131300
     17 C12         3.7520    1.9420   -0.2990 ca        1 3MN     -0.076000
     18 C15         4.9380    2.4170    0.2790 ca        1 3MN     -0.018000
     19 C23         6.0060    1.5410    0.5180 ca        1 3MN     -0.085000
     20 C5          5.8820    0.1950    0.1810 ca        1 3MN     -0.138000
     21 C6          4.7010   -0.2820   -0.3870 ca        1 3MN     -0.101000
     22 C7          5.0590    3.7920    0.6210 cg        1 3MN      0.231800
     23 N3          5.1590    4.9160    0.9020 n1        1 3MN     -0.356800
     24 C20        -0.4410   -3.0830   -2.7260 ca        1 3MN     -0.139000
     25 C13        -0.7420   -4.3040   -2.1840 ca        1 3MN     -0.101000
     26 C17        -0.6550   -4.4970   -0.7790 ca        1 3MN     -0.042000
     27 C24        -0.2490   -3.4290    0.0680 ca        1 3MN     -0.014000
     28 C25         0.1360   -2.1800   -0.5290 ca        1 3MN     -0.092300
     29 C26         0.0000   -2.0280   -1.8960 ca        1 3MN     -0.106000
     30 C27        -0.9940   -5.7620   -0.2210 ca        1 3MN     -0.120000
     31 C8         -0.9660   -5.9610    1.1360 ca        1 3MN     -0.124000
     32 C9         -0.6160   -4.8910    1.9900 ca        1 3MN     -0.122000
     33 C10        -0.2750   -3.6650    1.4720 ca        1 3MN     -0.123000
     34 C28         1.8050   -1.5540    1.2610 c3        1 3MN     -0.114100
     35 H21A       -3.9850    2.7110    1.9520 h1        1 3MN      0.062200
     36 H22        -3.2650    3.9680    0.8360 h1        1 3MN      0.062200
     37 H29        -4.5990    4.6470   -1.2830 h5        1 3MN      0.061100
     38 H21        -6.1860    1.4910    1.1480 h4        1 3MN      0.177000
     39 H30        -8.0990    2.2980   -0.7350 h4        1 3MN      0.042100
     40 H11        -2.5480    2.1470   -0.7530 hc        1 3MN      0.068700
     41 H12A       -3.2820    0.8950    0.3300 hc        1 3MN      0.068700
     42 H161       -1.8080    1.6520    2.2340 h1        1 3MN      0.072200
     43 H162       -1.0730    2.9380    1.1430 h1        1 3MN      0.072200
     44 H111        2.5490   -0.9780   -1.6460 h1        1 3MN      0.075200
     45 H112        2.1950    0.7370   -2.2060 h1        1 3MN      0.075200
     46 H12         2.9120    2.6310   -0.4970 ha        1 3MN      0.173000
     47 H23         6.9370    1.9170    0.9680 ha        1 3MN      0.147000
     48 H5          6.7200   -0.4940    0.3650 ha        1 3MN      0.142000
     49 H6          4.6120   -1.3480   -0.6490 ha        1 3MN      0.138000
     50 H20        -0.5280   -2.9060   -3.8080 ha        1 3MN      0.139000
     51 H13        -1.0650   -5.1450   -2.8170 ha        1 3MN      0.138000
     52 H26         0.2330   -1.0770   -2.4020 ha        1 3MN      0.142000
     53 H27        -1.2850   -6.5740   -0.9040 ha        1 3MN      0.134000
     54 H8         -1.2250   -6.9370    1.5710 ha        1 3MN      0.136000
     55 H9         -0.6320   -5.0470    3.0790 ha        1 3MN      0.136000
     56 H10        -0.0620   -2.8370    2.1670 ha        1 3MN      0.152000
     57 H281        2.7590   -0.9820    1.1430 hc        1 3MN      0.063700
     58 H282        1.4710   -1.4460    2.3220 hc        1 3MN      0.063700
     59 H283        2.0260   -2.6300    1.0600 hc        1 3MN      0.063700
     60 O1          0.6140    2.3760   -0.7760 o         1 3MN     -0.628500
@<TRIPOS>BOND
     1    1    2 1   
     2    1    7 1   
     3    1   35 1   
     4    1   36 1   
     5    2    3 1   
     6    2    4 1   
     7    3    6 2   
     8    3   37 1   
     9    4    5 2   
    10    4   38 1   
    11    5    6 1   
    12    5   39 1   
    13    7    8 1   
    14    7   40 1   
    15    7   41 1   
    16    8   13 1   
    17    8   42 1   
    18    8   43 1   
    19    9   10 1   
    20    9   13 1   
    21    9   60 2   
    22   10   11 1   
    23   10   15 1   
    24   11   12 1   
    25   11   28 1   
    26   11   34 1   
    27   12   13 1   
    28   12   14 2   
    29   15   16 1   
    30   15   44 1   
    31   15   45 1   
    32   16   17 ar  
    33   16   21 ar  
    34   17   18 ar  
    35   17   46 1   
    36   18   19 ar  
    37   18   22 1   
    38   19   20 ar  
    39   19   47 1   
    40   20   21 ar  
    41   20   48 1   
    42   21   49 1   
    43   22   23 3   
    44   24   25 ar  
    45   24   29 ar  
    46   24   50 1   
    47   25   26 ar  
    48   25   51 1   
    49   26   27 ar  
    50   26   30 ar  
    51   27   28 ar  
    52   27   33 ar  
    53   28   29 ar  
    54   29   52 1   
    55   30   31 ar  
    56   30   53 1   
    57   31   32 ar  
    58   31   54 1   
    59   32   33 ar  
    60   32   55 1   
    61   33   56 1   
    62   34   57 1   
    63   34   58 1   
    64   34   59 1   
@<TRIPOS>SUBSTRUCTURE
     1 3MN         1 TEMP              0 ****  ****    0 ROOT
