@<TRIPOS>MOLECULE
3MN
   60    64     1     0     0
SMALL
bcc


@<TRIPOS>ATOM
      1 C2          0.1520    0.0140    0.2500 c3        1 3MN      0.044300
      2 N4          1.5720    0.1870    0.2530 na        1 3MN     -0.210900
      3 C29         2.4110    0.2480    1.3790 cc        1 3MN      0.389400
      4 C21         2.4070    0.2430   -0.8690 cc        1 3MN     -0.255600
      5 C30         3.7180    0.3560   -0.3750 cd        1 3MN      0.290200
      6 N5          3.7060    0.3590    1.0200 nd        1 3MN     -0.667000
      7 C1         -0.3100   -1.4420    0.1540 c3        1 3MN     -0.130400
      8 C16        -1.8400   -1.4650    0.1390 c3        1 3MN      0.112000
      9 C18        -2.6770   -3.5900    1.2030 c         1 3MN      0.815500
     10 N2         -3.1050   -4.8600    0.7710 n         1 3MN     -0.489800
     11 C14        -3.1580   -4.9400   -0.7080 c3        1 3MN      0.117700
     12 C4         -2.6870   -3.4900   -1.1220 c         1 3MN      0.699500
     13 N1         -2.4170   -2.7760    0.0600 n         1 3MN     -0.509400
     14 O2         -2.6110   -3.0190   -2.2560 o         1 3MN     -0.573500
     15 C11        -3.6600   -5.8440    1.6530 c3        1 3MN      0.162300
     16 C19        -5.0800   -5.6280    2.1030 ca        1 3MN     -0.131300
     17 C12        -5.3890   -4.5620    2.9520 ca        1 3MN     -0.076000
     18 C15        -6.7030   -4.3960    3.4100 ca        1 3MN     -0.018000
     19 C23        -7.7050   -5.2990    3.0240 ca        1 3MN     -0.085000
     20 C5         -7.3870   -6.3620    2.1820 ca        1 3MN     -0.138000
     21 C6         -6.0810   -6.5260    1.7190 ca        1 3MN     -0.101000
     22 C7         -7.0230   -3.3090    4.2690 cg        1 3MN      0.231800
     23 N3         -7.2860   -2.4200    4.9710 n1        1 3MN     -0.356800
     24 C20        -0.4600   -7.6520   -0.9060 ca        1 3MN     -0.139000
     25 C13        -0.4910   -8.0270   -2.2230 ca        1 3MN     -0.101000
     26 C17        -1.3490   -7.3520   -3.1320 ca        1 3MN     -0.042000
     27 C24        -2.1810   -6.2900   -2.6790 ca        1 3MN     -0.014000
     28 C25        -2.1880   -5.9650   -1.2800 ca        1 3MN     -0.092300
     29 C26        -1.3110   -6.6250   -0.4400 ca        1 3MN     -0.106000
     30 C27        -1.3570   -7.7300   -4.5030 ca        1 3MN     -0.120000
     31 C8         -2.1380   -7.0630   -5.4120 ca        1 3MN     -0.124000
     32 C9         -2.9280   -5.9720   -4.9830 ca        1 3MN     -0.122000
     33 C10        -2.9440   -5.5970   -3.6620 ca        1 3MN     -0.123000
     34 C28        -4.5860   -5.1730   -1.2230 c3        1 3MN     -0.114100
     35 H21A       -0.2710    0.5890   -0.6250 h1        1 3MN      0.062200
     36 H22        -0.2580    0.4650    1.1990 h1        1 3MN      0.062200
     37 H29         2.0260    0.2210    2.4030 h5        1 3MN      0.061100
     38 H21         2.0200    0.2090   -1.8850 h4        1 3MN      0.177000
     39 H30         4.6480    0.4380   -0.9360 h4        1 3MN      0.042100
     40 H11         0.0760   -2.0280    1.0280 hc        1 3MN      0.068700
     41 H12A        0.0940   -1.9150   -0.7790 hc        1 3MN      0.068700
     42 H161       -2.2100   -0.8820   -0.7550 h1        1 3MN      0.072200
     43 H162       -2.2240   -0.9790    1.0830 h1        1 3MN      0.072200
     44 H111       -3.5800   -6.8420    1.1300 h1        1 3MN      0.075200
     45 H112       -3.0070   -5.8650    2.5780 h1        1 3MN      0.075200
     46 H12        -4.5960   -3.8580    3.2610 ha        1 3MN      0.173000
     47 H23        -8.7350   -5.1680    3.3880 ha        1 3MN      0.147000
     48 H5         -8.1690   -7.0740    1.8800 ha        1 3MN      0.142000
     49 H6         -5.8400   -7.3690    1.0530 ha        1 3MN      0.138000
     50 H20         0.2160   -8.1450   -0.1920 ha        1 3MN      0.139000
     51 H13         0.1470   -8.8410   -2.5990 ha        1 3MN      0.138000
     52 H26        -1.2380   -6.3820    0.6330 ha        1 3MN      0.142000
     53 H27        -0.7160   -8.5680   -4.8190 ha        1 3MN      0.134000
     54 H8         -2.1490   -7.3540   -6.4730 ha        1 3MN      0.136000
     55 H9         -3.5240   -5.4180   -5.7240 ha        1 3MN      0.136000
     56 H10        -3.5260   -4.7080   -3.3710 ha        1 3MN      0.152000
     57 H281       -4.9080   -4.3210   -1.8710 hc        1 3MN      0.063700
     58 H282       -4.6360   -6.1170   -1.8170 hc        1 3MN      0.063700
     59 H283       -5.3210   -5.2590   -0.3830 hc        1 3MN      0.063700
     60 O1         -2.5340   -3.2250    2.3840 o         1 3MN     -0.628500
@<TRIPOS>BOND
     1    1    2 1   
     2    1    7 1   
     3    1   35 1   
     4    1   36 1   
     5    2    3 1   
     6    2    4 1   
     7    3    6 2   
     8    3   37 1   
     9    4    5 2   
    10    4   38 1   
    11    5    6 1   
    12    5   39 1   
    13    7    8 1   
    14    7   40 1   
    15    7   41 1   
    16    8   13 1   
    17    8   42 1   
    18    8   43 1   
    19    9   10 1   
    20    9   13 1   
    21    9   60 2   
    22   10   11 1   
    23   10   15 1   
    24   11   12 1   
    25   11   28 1   
    26   11   34 1   
    27   12   13 1   
    28   12   14 2   
    29   15   16 1   
    30   15   44 1   
    31   15   45 1   
    32   16   17 ar  
    33   16   21 ar  
    34   17   18 ar  
    35   17   46 1   
    36   18   19 ar  
    37   18   22 1   
    38   19   20 ar  
    39   19   47 1   
    40   20   21 ar  
    41   20   48 1   
    42   21   49 1   
    43   22   23 3   
    44   24   25 ar  
    45   24   29 ar  
    46   24   50 1   
    47   25   26 ar  
    48   25   51 1   
    49   26   27 ar  
    50   26   30 ar  
    51   27   28 ar  
    52   27   33 ar  
    53   28   29 ar  
    54   29   52 1   
    55   30   31 ar  
    56   30   53 1   
    57   31   32 ar  
    58   31   54 1   
    59   32   33 ar  
    60   32   55 1   
    61   33   56 1   
    62   34   57 1   
    63   34   58 1   
    64   34   59 1   
@<TRIPOS>SUBSTRUCTURE
     1 3MN         1 TEMP              0 ****  ****    0 ROOT
