@<TRIPOS>MOLECULE
3MO
   14    14     1     0     0
SMALL
bcc


@<TRIPOS>ATOM
      1 N2          0.5740    0.5730   -0.3630 n         1 3MO     -0.443800
      2 C4         -1.7610    0.4300    0.0950 c3        1 3MO      0.108400
      3 O6          0.8470   -1.8180   -0.2150 o         1 3MO     -0.582500
      4 C1          0.1960   -0.7760   -0.1660 c         1 3MO      0.799600
      5 O5         -1.1740   -0.8890    0.0480 os        1 3MO     -0.400900
      6 C3         -0.5880    1.4170   -0.1090 c3        1 3MO      0.030000
      7 C7          1.8670    1.0180    0.0640 c3        1 3MO      0.071300
      8 H41        -2.2490    0.5360    1.0940 h1        1 3MO      0.070200
      9 H42        -2.5140    0.4850   -0.7280 h1        1 3MO      0.070200
     10 H31        -0.4450    2.0700    0.7940 h1        1 3MO      0.062700
     11 H32        -0.7600    2.0710   -1.0040 h1        1 3MO      0.062700
     12 H71         1.8920    1.2800    1.1570 h1        1 3MO      0.050700
     13 H72         2.6150    0.2050   -0.1360 h1        1 3MO      0.050700
     14 H73         2.1380    1.9300   -0.5320 h1        1 3MO      0.050700
@<TRIPOS>BOND
     1    1    4 1   
     2    1    6 1   
     3    1    7 1   
     4    2    5 1   
     5    2    6 1   
     6    2    8 1   
     7    2    9 1   
     8    3    4 2   
     9    4    5 1   
    10    6   10 1   
    11    6   11 1   
    12    7   12 1   
    13    7   13 1   
    14    7   14 1   
@<TRIPOS>SUBSTRUCTURE
     1 3MO         1 TEMP              0 ****  ****    0 ROOT
