@<TRIPOS>MOLECULE
3MO
   14    14     1     0     0
SMALL
bcc


@<TRIPOS>ATOM
      1 N2         -0.0620    0.3720   -0.0130 n         1 3MO     -0.443800
      2 C4          0.8360   -0.1200    2.1400 c3        1 3MO      0.108400
      3 O6          2.1300    0.4330   -1.0180 o         1 3MO     -0.582500
      4 C1          1.3500    0.2830   -0.0800 c         1 3MO      0.799600
      5 O5          1.8990    0.0500    1.1770 os        1 3MO     -0.400900
      6 C3         -0.4810    0.0230    1.3390 c3        1 3MO      0.030000
      7 C7         -0.8540   -0.0640   -1.1240 c3        1 3MO      0.071300
      8 H41         0.9600   -1.1340    2.5900 h1        1 3MO      0.070200
      9 H42         0.9570    0.6790    2.9100 h1        1 3MO      0.070200
     10 H31        -1.1120    0.8560    1.7460 h1        1 3MO      0.062700
     11 H32        -1.0770   -0.9280    1.3630 h1        1 3MO      0.062700
     12 H71        -1.0290   -1.1750   -1.1170 h1        1 3MO      0.050700
     13 H72        -0.3320    0.2200   -2.0760 h1        1 3MO      0.050700
     14 H73        -1.8470    0.4580   -1.0730 h1        1 3MO      0.050700
@<TRIPOS>BOND
     1    1    4 1   
     2    1    6 1   
     3    1    7 1   
     4    2    5 1   
     5    2    6 1   
     6    2    8 1   
     7    2    9 1   
     8    3    4 2   
     9    4    5 1   
    10    6   10 1   
    11    6   11 1   
    12    7   12 1   
    13    7   13 1   
    14    7   14 1   
@<TRIPOS>SUBSTRUCTURE
     1 3MO         1 TEMP              0 ****  ****    0 ROOT
