@<TRIPOS>MOLECULE
3MO
   14    14     1     0     0
SMALL
bcc


@<TRIPOS>ATOM
      1 N2         -0.0540   -0.3630   -0.0270 n         1 3MO     -0.443800
      2 C4          0.8170    0.0620    2.1500 c3        1 3MO      0.108400
      3 O6          2.1490   -0.3810   -1.0090 o         1 3MO     -0.582500
      4 C1          1.3570   -0.2650   -0.0750 c         1 3MO      0.799600
      5 O5          1.8920   -0.0720    1.1940 os        1 3MO     -0.400900
      6 C3         -0.4890   -0.0600    1.3310 c3        1 3MO      0.030000
      7 C7         -0.8370    0.1060   -1.1320 c3        1 3MO      0.071300
      8 H41         0.9330    1.0610    2.6350 h1        1 3MO      0.070200
      9 H42         0.9340   -0.7620    2.8950 h1        1 3MO      0.070200
     10 H31        -1.1210   -0.9090    1.7030 h1        1 3MO      0.062700
     11 H32        -1.0900    0.8870    1.3800 h1        1 3MO      0.062700
     12 H71        -1.8270   -0.4210   -1.1090 h1        1 3MO      0.050700
     13 H72        -0.3020   -0.1430   -2.0870 h1        1 3MO      0.050700
     14 H73        -1.0170    1.2150   -1.0910 h1        1 3MO      0.050700
@<TRIPOS>BOND
     1    1    4 1   
     2    1    6 1   
     3    1    7 1   
     4    2    5 1   
     5    2    6 1   
     6    2    8 1   
     7    2    9 1   
     8    3    4 2   
     9    4    5 1   
    10    6   10 1   
    11    6   11 1   
    12    7   12 1   
    13    7   13 1   
    14    7   14 1   
@<TRIPOS>SUBSTRUCTURE
     1 3MO         1 TEMP              0 ****  ****    0 ROOT
