@<TRIPOS>MOLECULE
3MO
   14    14     1     0     0
SMALL
bcc


@<TRIPOS>ATOM
      1 N2         -0.1090   -0.0300   -0.4850 n         1 3MO     -0.443800
      2 C4          0.6240   -0.0300    1.6960 c3        1 3MO      0.108400
      3 O6          2.0350    0.1850   -1.4440 o         1 3MO     -0.582500
      4 C1          1.3210   -0.0300   -0.4850 c         1 3MO      0.799600
      5 O5          1.7610   -0.0300    0.8680 os        1 3MO     -0.400900
      6 C3         -0.5450   -0.0300    0.8550 c3        1 3MO      0.030000
      7 C7         -0.9460    0.0130   -1.6370 c3        1 3MO      0.071300
      8 H41         0.6250   -0.8860    2.1640 h1        1 3MO      0.070200
      9 H42         0.6250    0.8270    2.1640 h1        1 3MO      0.070200
     10 H31        -0.9890    0.8270    1.0010 h1        1 3MO      0.062700
     11 H32        -0.9890   -0.8860    1.0010 h1        1 3MO      0.062700
     12 H71        -0.6940   -0.7040   -2.2490 h1        1 3MO      0.050700
     13 H72        -1.8770   -0.1020   -1.3670 h1        1 3MO      0.050700
     14 H73        -0.8410    0.8750   -2.0830 h1        1 3MO      0.050700
@<TRIPOS>BOND
     1    1    4 1   
     2    1    6 1   
     3    1    7 1   
     4    2    5 1   
     5    2    6 1   
     6    2    8 1   
     7    2    9 1   
     8    3    4 2   
     9    4    5 1   
    10    6   10 1   
    11    6   11 1   
    12    7   12 1   
    13    7   13 1   
    14    7   14 1   
@<TRIPOS>SUBSTRUCTURE
     1 3MO         1 TEMP              0 ****  ****    0 ROOT
