@<TRIPOS>MOLECULE
3MO
   14    14     1     0     0
SMALL
bcc


@<TRIPOS>ATOM
      1 N2         -0.0570   -0.3700   -0.0220 n         1 3MO     -0.443800
      2 C4          0.8390    0.0870    2.1390 c3        1 3MO      0.108400
      3 O6          2.1320   -0.3690   -1.0340 o         1 3MO     -0.582500
      4 C1          1.3530   -0.2550   -0.0900 c         1 3MO      0.799600
      5 O5          1.9020   -0.0430    1.1700 os        1 3MO     -0.400900
      6 C3         -0.4770   -0.0600    1.3390 c3        1 3MO      0.030000
      7 C7         -0.8600    0.0790   -1.1190 c3        1 3MO      0.071300
      8 H41         0.9760   -0.7280    2.8900 h1        1 3MO      0.070200
      9 H42         0.9490    1.0920    2.6130 h1        1 3MO      0.070200
     10 H31        -1.0930   -0.9130    1.7290 h1        1 3MO      0.062700
     11 H32        -1.0890    0.8810    1.3880 h1        1 3MO      0.062700
     12 H71        -1.0530    1.1860   -1.0860 h1        1 3MO      0.050700
     13 H72        -1.8430   -0.4600   -1.0780 h1        1 3MO      0.050700
     14 H73        -0.3360   -0.1730   -2.0800 h1        1 3MO      0.050700
@<TRIPOS>BOND
     1    1    4 1   
     2    1    6 1   
     3    1    7 1   
     4    2    5 1   
     5    2    6 1   
     6    2    8 1   
     7    2    9 1   
     8    3    4 2   
     9    4    5 1   
    10    6   10 1   
    11    6   11 1   
    12    7   12 1   
    13    7   13 1   
    14    7   14 1   
@<TRIPOS>SUBSTRUCTURE
     1 3MO         1 TEMP              0 ****  ****    0 ROOT
