@<TRIPOS>MOLECULE
3MP
   14    14     1     0     0
SMALL
bcc


@<TRIPOS>ATOM
      1 CB          0.0050   -0.0020    0.0040 c3        1 3MP     -0.050800
      2 CG          1.4820    0.0060    0.0160 ca        1 3MP     -0.191600
      3 CD1         2.2040    0.0400    1.2160 ca        1 3MP     -0.096000
      4 CD2         2.2130   -0.0330   -1.1920 ca        1 3MP      0.392200
      5 CE1         3.5980    0.0300    1.1710 ca        1 3MP     -0.242300
      6 CZ          4.2300   -0.0120   -0.0850 ca        1 3MP      0.387200
      7 NE2         3.5570   -0.0430   -1.2520 nb        1 3MP     -0.662000
      8 HB1        -0.3900    0.5020   -0.9130 hc        1 3MP      0.047033
      9 HB2        -0.3730   -1.0560    0.0130 hc        1 3MP      0.047033
     10 HB3        -0.4060    0.5240    0.9010 hc        1 3MP      0.047033
     11 HD1         1.6760    0.0740    2.1790 ha        1 3MP      0.137000
     12 HD2         1.6880   -0.0570   -2.1630 h4        1 3MP      0.021100
     13 HE1         4.1940    0.0560    2.0920 ha        1 3MP      0.142000
     14 HZ          5.3320   -0.0200   -0.1660 h4        1 3MP      0.021100
@<TRIPOS>BOND
     1    1    2 1   
     2    1    8 1   
     3    1    9 1   
     4    1   10 1   
     5    2    3 ar  
     6    2    4 ar  
     7    3    5 ar  
     8    3   11 1   
     9    4    7 ar  
    10    4   12 1   
    11    5    6 ar  
    12    5   13 1   
    13    6    7 ar  
    14    6   14 1   
@<TRIPOS>SUBSTRUCTURE
     1 3MP         1 TEMP              0 ****  ****    0 ROOT
