@<TRIPOS>MOLECULE
3MP
   14    12     1     0     0
SMALL
bcc


@<TRIPOS>ATOM
      1 CB         -2.0730    0.0000   -0.1380 c3        1 3MP     -0.176000
      2 CG         -0.5600    0.0000   -0.1380 c2        1 3MP     -0.119000
      3 CD1         0.1220    0.0000    1.0440 c2        1 3MP     -0.096000
      4 CD2         0.1330    0.0000   -1.3380 c1        1 3MP     -0.073000
      5 CE1         1.4870    0.0000    1.0430 c1        1 3MP     -0.177000
      6 CZ          2.1780    0.0000   -0.1590 c1        1 3MP     -0.078000
      7 NE2         1.4960    0.0000   -1.3380 n1        1 3MP     -0.136000
      8 HB1        -2.3980    0.6260   -0.8120 hc        1 3MP      0.086333
      9 HB2        -2.3980    0.2710    0.7420 hc        1 3MP      0.086333
     10 HB3        -2.3980   -0.8970   -0.3430 hc        1 3MP      0.086333
     11 HD1        -0.3650    0.0000    1.8900 ha        1 3MP      0.137000
     12 HD2        -0.3550    0.0000   -2.1830 ha        1 3MP      0.158000
     13 HE1         1.9760    0.0000    1.8880 ha        1 3MP      0.142000
     14 HZ          3.1550    0.0000   -0.1600 ha        1 3MP      0.158000
@<TRIPOS>BOND
     1    1    2 1   
     2    1    8 1   
     3    1    9 1   
     4    1   10 1   
     5    2    3 1   
     6    2    4 1   
     7    3    5 1   
     8    3   11 1   
     9    4   12 1   
    10    5   13 1   
    11    6    7 1   
    12    6   14 1   
@<TRIPOS>SUBSTRUCTURE
     1 3MP         1 TEMP              0 ****  ****    0 ROOT
