@<TRIPOS>MOLECULE
3MP
   14    14     1     0     0
SMALL
bcc


@<TRIPOS>ATOM
      1 CB          0.0050    0.0010    0.0030 c3        1 3MP     -0.050800
      2 CG          1.4820    0.0060    0.0160 ca        1 3MP     -0.191600
      3 CD1         2.2040    0.0420    1.2150 ca        1 3MP     -0.096000
      4 CD2         2.2140   -0.0370   -1.1920 ca        1 3MP      0.392200
      5 CE1         3.5980    0.0310    1.1710 ca        1 3MP     -0.242300
      6 CZ          4.2300   -0.0150   -0.0840 ca        1 3MP      0.387200
      7 NE2         3.5580   -0.0480   -1.2510 nb        1 3MP     -0.662000
      8 HB1        -0.3890    0.4990   -0.9180 hc        1 3MP      0.047033
      9 HB2        -0.3740   -1.0530    0.0190 hc        1 3MP      0.047033
     10 HB3        -0.4050    0.5330    0.8960 hc        1 3MP      0.047033
     11 HD1         1.6750    0.0790    2.1790 ha        1 3MP      0.137000
     12 HD2         1.6890   -0.0630   -2.1630 h4        1 3MP      0.021100
     13 HE1         4.1930    0.0580    2.0930 ha        1 3MP      0.142000
     14 HZ          5.3320   -0.0260   -0.1640 h4        1 3MP      0.021100
@<TRIPOS>BOND
     1    1    2 1   
     2    1    8 1   
     3    1    9 1   
     4    1   10 1   
     5    2    3 ar  
     6    2    4 ar  
     7    3    5 ar  
     8    3   11 1   
     9    4    7 ar  
    10    4   12 1   
    11    5    6 ar  
    12    5   13 1   
    13    6    7 ar  
    14    6   14 1   
@<TRIPOS>SUBSTRUCTURE
     1 3MP         1 TEMP              0 ****  ****    0 ROOT
