@<TRIPOS>MOLECULE
3MP
   14    14     1     0     0
SMALL
bcc


@<TRIPOS>ATOM
      1 CB          0.0050   -0.0010    2.4250 c3        1 3MP     -0.050800
      2 CG          0.0300   -0.0080    0.9480 ca        1 3MP     -0.191600
      3 CD1         1.2360   -0.0110    0.2360 ca        1 3MP     -0.096000
      4 CD2        -1.1730    0.0010    0.2070 ca        1 3MP      0.392200
      5 CE1         1.2020   -0.0030   -1.1590 ca        1 3MP     -0.242300
      6 CZ         -0.0490    0.0070   -1.8010 ca        1 3MP      0.387200
      7 NE2        -1.2220    0.0090   -1.1370 nb        1 3MP     -0.662000
      8 HB1         0.9180   -0.4920    2.8440 hc        1 3MP      0.047033
      9 HB2        -0.0290    1.0530    2.8020 hc        1 3MP      0.047033
     10 HB3        -0.8950   -0.5390    2.8120 hc        1 3MP      0.047033
     11 HD1         2.1960   -0.0210    0.7720 ha        1 3MP      0.137000
     12 HD2        -2.1490    0.0000    0.7240 h4        1 3MP      0.021100
     13 HE1         2.1280   -0.0050   -1.7470 ha        1 3MP      0.142000
     14 HZ         -0.1210    0.0140   -2.9030 h4        1 3MP      0.021100
@<TRIPOS>BOND
     1    1    2 1   
     2    1    8 1   
     3    1    9 1   
     4    1   10 1   
     5    2    3 ar  
     6    2    4 ar  
     7    3    5 ar  
     8    3   11 1   
     9    4    7 ar  
    10    4   12 1   
    11    5    6 ar  
    12    5   13 1   
    13    6    7 ar  
    14    6   14 1   
@<TRIPOS>SUBSTRUCTURE
     1 3MP         1 TEMP              0 ****  ****    0 ROOT
