@<TRIPOS>MOLECULE
3MQ
   19    20     1     0     0
SMALL
bcc


@<TRIPOS>ATOM
      1 C10        -3.6140    0.6100    0.0020 cc        1 3MQ     -0.166100
      2 C01         0.1090   -0.3180    0.0020 cc        1 3MQ      0.347200
      3 C02         1.1770    0.5630    0.0010 cd        1 3MQ     -0.332600
      4 C03         2.3560   -0.2970    0.0010 cd        1 3MQ      0.313600
      5 N04         1.9610   -1.5890    0.0010 nc        1 3MQ     -0.362300
      6 O05         0.6470   -1.6370    0.0020 os        1 3MQ     -0.111100
      7 C06         3.7690    0.1670    0.0010 c3        1 3MQ      0.101100
      8 O07         3.7580    1.5880    0.0010 oh        1 3MQ     -0.597800
      9 C08        -1.3050   -0.1910    0.0020 cc        1 3MQ     -0.186600
     10 S09        -2.1000    1.2960    0.0020 ss        1 3MQ      0.066200
     11 C11        -3.5600   -0.7700    0.0020 cd        1 3MQ     -0.160000
     12 C12        -2.2150   -1.2410    0.0020 cd        1 3MQ     -0.111000
     13 H10        -4.5290    1.2020    0.0020 h4        1 3MQ      0.175000
     14 H02         1.1960    1.6480    0.0010 ha        1 3MQ      0.189000
     15 H06         4.3010   -0.2110    0.9180 h1        1 3MQ      0.048700
     16 H06A        4.3000   -0.2110   -0.9170 h1        1 3MQ      0.048700
     17 HO07        4.6830    1.8620    0.0010 ho        1 3MQ      0.409000
     18 H11        -4.4260   -1.4340    0.0030 ha        1 3MQ      0.159000
     19 H12        -1.9350   -2.2980    0.0020 ha        1 3MQ      0.170000
@<TRIPOS>BOND
     1    1   10 1   
     2    1   11 2   
     3    1   13 1   
     4    2    3 2   
     5    2    6 1   
     6    2    9 1   
     7    3    4 1   
     8    3   14 1   
     9    4    5 2   
    10    4    7 1   
    11    5    6 1   
    12    7    8 1   
    13    7   15 1   
    14    7   16 1   
    15    8   17 1   
    16    9   10 1   
    17    9   12 2   
    18   11   12 1   
    19   11   18 1   
    20   12   19 1   
@<TRIPOS>SUBSTRUCTURE
     1 3MQ         1 TEMP              0 ****  ****    0 ROOT
