@<TRIPOS>MOLECULE
3MQ
   19    15     1     0     0
SMALL
bcc


@<TRIPOS>ATOM
      1 C10        -3.6250   -0.6960   -1.5260 c1        1 3MQ     -0.432000
      2 C01        -0.2050   -0.4250    0.2180 c2        1 3MQ      0.061000
      3 C02         0.8620    0.3420   -0.2640 c1        1 3MQ     -0.231000
      4 C03         2.0190   -0.0600    0.4050 c1        1 3MQ     -0.141000
      5 N04         1.6800   -1.0450    1.2740 n2        1 3MQ     -0.025000
      6 O05         0.2780   -1.2730    1.1540 os        1 3MQ     -0.051000
      7 C06         3.4350    0.5540    0.2340 c2        1 3MQ      0.048000
      8 O07         4.3710   -0.2260    0.9540 oh        1 3MQ     -0.313000
      9 C08        -1.5350   -0.3500   -0.2130 c2        1 3MQ     -0.356000
     10 S09        -2.1260   -1.0260   -1.4840 ss        1 3MQ      0.605000
     11 C11        -3.9340    0.1240   -0.3640 c1        1 3MQ     -0.160000
     12 C12        -2.5980    0.3370    0.4620 c1        1 3MQ     -0.105000
     13 H10        -4.2310   -0.9750   -2.1800 DU        1 3MQ      0.171250
     14 H02         0.8060    1.0300   -0.9420 DU        1 3MQ      0.171250
     15 H06         3.4370    1.4530    0.5680 h4        1 3MQ      0.101500
     16 H06A        3.6880    0.5600   -0.7540 h4        1 3MQ      0.101500
     17 HO07        5.0430    0.2880    1.2250 ho        1 3MQ      0.213000
     18 H11        -4.8590    0.5010   -0.1210 DU        1 3MQ      0.171250
     19 H12        -2.5050    0.8870    1.3560 DU        1 3MQ      0.171250
@<TRIPOS>BOND
     1    1   10 1   
     2    1   11 1   
     3    2    3 1   
     4    2    6 1   
     5    2    9 1   
     6    3    4 1   
     7    4    5 1   
     8    5    6 1   
     9    7    8 1   
    10    7   15 1   
    11    7   16 1   
    12    8   17 1   
    13    9   10 1   
    14    9   12 1   
    15   11   12 1   
@<TRIPOS>SUBSTRUCTURE
     1 3MQ         1 TEMP              0 ****  ****    0 ROOT
