@<TRIPOS>MOLECULE
3MQ
   19    20     1     0     0
SMALL
bcc


@<TRIPOS>ATOM
      1 C10         0.0060   -0.0010    0.0280 cc        1 3MQ     -0.166100
      2 C01         3.0210    0.0050    2.4010 cc        1 3MQ      0.347200
      3 C02         4.3560    0.0080    2.0360 cd        1 3MQ     -0.332600
      4 C03         5.0790    0.0090    3.3050 cd        1 3MQ      0.313600
      5 N04         4.1880    0.0070    4.3200 nc        1 3MQ     -0.362300
      6 O05         2.9700    0.0040    3.8260 os        1 3MQ     -0.111100
      7 C06         6.5580    0.0120    3.4610 c3        1 3MQ      0.101100
      8 O07         7.1300    0.0140    2.1600 oh        1 3MQ     -0.597800
      9 C08         1.7830    0.0020    1.7050 cc        1 3MQ     -0.186600
     10 S09         1.6670    0.0030    0.0240 ss        1 3MQ      0.066200
     11 C11        -0.5110   -0.0020    1.3090 cd        1 3MQ     -0.160000
     12 C12         0.5220   -0.0000    2.2900 cd        1 3MQ     -0.111000
     13 H10        -0.5860   -0.0020   -0.8870 h4        1 3MQ      0.175000
     14 H02         4.8180    0.0090    1.0540 ha        1 3MQ      0.189000
     15 H06         6.8850    0.9300    4.0240 h1        1 3MQ      0.048700
     16 H06A        6.8890   -0.9050    4.0230 h1        1 3MQ      0.048700
     17 HO07        8.0860    0.0160    2.2900 ho        1 3MQ      0.409000
     18 H11        -1.5740   -0.0050    1.5590 ha        1 3MQ      0.159000
     19 H12         0.3440   -0.0010    3.3680 ha        1 3MQ      0.170000
@<TRIPOS>BOND
     1    1   10 1   
     2    1   11 2   
     3    1   13 1   
     4    2    3 2   
     5    2    6 1   
     6    2    9 1   
     7    3    4 1   
     8    3   14 1   
     9    4    5 2   
    10    4    7 1   
    11    5    6 1   
    12    7    8 1   
    13    7   15 1   
    14    7   16 1   
    15    8   17 1   
    16    9   10 1   
    17    9   12 2   
    18   11   12 1   
    19   11   18 1   
    20   12   19 1   
@<TRIPOS>SUBSTRUCTURE
     1 3MQ         1 TEMP              0 ****  ****    0 ROOT
