@<TRIPOS>MOLECULE
3MR
   79    83     1     0     0
SMALL
bcc


@<TRIPOS>ATOM
      1 C1          4.3100   -1.4930    1.1660 c3        1 3MR      0.080300
      2 N2          4.6940   -0.6980    0.0370 n         1 3MR     -0.474800
      3 C3          3.9020    0.3650   -0.3800 c         1 3MR      0.658100
      4 O4          4.2020    1.0250   -1.3970 o         1 3MR     -0.618100
      5 C5          2.6820    0.7150    0.4550 c3        1 3MR     -0.146400
      6 C6          1.8540    1.7800   -0.2310 c3        1 3MR     -0.082400
      7 C7          0.7610    2.3500    0.6970 c3        1 3MR      0.229500
      8 C9          0.1240    3.5760   -0.0170 c3        1 3MR     -0.091700
      9 C10        -1.2690    3.9290    0.4840 c3        1 3MR     -0.073400
     10 C11        -1.8210    5.1430   -0.2370 c3        1 3MR     -0.077400
     11 C12        -0.9000    6.3370   -0.1080 c3        1 3MR     -0.078400
     12 C13         0.4980    5.9950   -0.5780 c3        1 3MR     -0.077400
     13 C14         1.0420    4.7830    0.1510 c3        1 3MR     -0.073400
     14 N15        -0.1770    1.3280    1.1270 nh        1 3MR     -0.773600
     15 C16        -0.7770    0.5290    0.0730 c3        1 3MR      0.268100
     16 C17        -1.9050   -0.3590    0.4940 ca        1 3MR     -0.149300
     17 C18        -2.4960   -1.2040   -0.4420 ca        1 3MR     -0.109000
     18 C19        -3.5350   -2.0450   -0.0300 ca        1 3MR      0.070100
     19 O20        -3.9980   -2.9640   -0.9700 os        1 3MR     -0.250200
     20 C21        -5.3780   -3.0670   -1.1130 ca        1 3MR      0.114100
     21 C22        -5.8250   -4.2640   -1.6980 ca        1 3MR     -0.166500
     22 C23        -7.1860   -4.4230   -1.9430 ca        1 3MR     -0.104000
     23 C24        -8.0900   -3.4140   -1.6070 ca        1 3MR     -0.157000
     24 C25        -7.6340   -2.2330   -1.0240 ca        1 3MR     -0.104000
     25 C26        -6.2750   -2.0480   -0.7730 ca        1 3MR     -0.166500
     26 C27        -3.9900   -2.0400    1.2960 ca        1 3MR     -0.142000
     27 C28        -3.4080   -1.1880    2.2220 ca        1 3MR     -0.108000
     28 C29        -2.3530   -0.3260    1.8360 ca        1 3MR      0.180400
     29 N30        -1.7970    0.5470    2.7730 ne        1 3MR     -0.709100
     30 C31        -0.7780    1.3340    2.4080 c2        1 3MR      0.814100
     31 N32        -0.1910    2.1470    3.4250 nh        1 3MR     -0.878800
     32 C33         5.8350   -1.1200   -0.7610 c3        1 3MR      0.098700
     33 C34         7.1700   -1.0020   -0.0020 c3        1 3MR     -0.088400
     34 C35         8.3240   -1.3380   -0.9220 c3        1 3MR     -0.075900
     35 C36         8.1820   -2.7280   -1.5060 c3        1 3MR     -0.079400
     36 C37         6.8540   -2.8870   -2.2160 c3        1 3MR     -0.075900
     37 C38         5.6920   -2.5540   -1.3030 c3        1 3MR     -0.088400
     38 H11         4.0690   -0.8360    2.0450 h1        1 3MR      0.039367
     39 H12         3.4060   -2.1180    0.9290 h1        1 3MR      0.039367
     40 H13         5.1490   -2.1790    1.4560 h1        1 3MR      0.039367
     41 H51         2.0670   -0.2080    0.6260 hc        1 3MR      0.072700
     42 H52         3.0280    1.0850    1.4570 hc        1 3MR      0.072700
     43 H61         2.5280    2.6240   -0.5380 hc        1 3MR      0.067700
     44 H62         1.4070    1.3690   -1.1730 hc        1 3MR      0.067700
     45 H7          1.3090    2.7330    1.6100 h1        1 3MR      0.067700
     46 H9          0.0440    3.3360   -1.1150 hc        1 3MR      0.059700
     47 H101       -1.9730    3.0710    0.3220 hc        1 3MR      0.040700
     48 H102       -1.2320    4.1380    1.5850 hc        1 3MR      0.040700
     49 H111       -1.9630    4.8970   -1.3230 hc        1 3MR      0.043950
     50 H112       -2.8290    5.3960    0.1840 hc        1 3MR      0.043950
     51 H121       -1.3030    7.1910   -0.7120 hc        1 3MR      0.040200
     52 H122       -0.8650    6.6690    0.9630 hc        1 3MR      0.040200
     53 H131        0.4830    5.7920   -1.6810 hc        1 3MR      0.043950
     54 H132        1.1790    6.8690   -0.4050 hc        1 3MR      0.043950
     55 H141        1.1450    5.0210    1.2430 hc        1 3MR      0.040700
     56 H142        2.0650    4.5490   -0.2420 hc        1 3MR      0.040700
     57 H161       -1.1380    1.2140   -0.7540 h1        1 3MR      0.046200
     58 H162        0.0400   -0.1220   -0.3630 h1        1 3MR      0.046200
     59 H18        -2.1470   -1.2280   -1.4850 ha        1 3MR      0.148000
     60 H22        -5.1010   -5.0470   -1.9580 ha        1 3MR      0.148500
     61 H23        -7.5490   -5.3540   -2.4040 ha        1 3MR      0.133500
     62 H24        -9.1630   -3.5520   -1.8020 ha        1 3MR      0.133000
     63 H25        -8.3460   -1.4370   -0.7600 ha        1 3MR      0.133500
     64 H26        -5.9090   -1.1190   -0.3140 ha        1 3MR      0.148500
     65 H27        -4.8100   -2.7120    1.5910 ha        1 3MR      0.148000
     66 H28        -3.7650   -1.1830    3.2640 ha        1 3MR      0.150000
     67 H321       -0.0970    3.1040    3.1550 hn        1 3MR      0.401800
     68 H322       -0.6490    2.0490    4.3090 hn        1 3MR      0.401800
     69 H33         5.8930   -0.4230   -1.6550 h1        1 3MR      0.092700
     70 H341        7.2940    0.0430    0.3860 hc        1 3MR      0.043950
     71 H342        7.1780   -1.6960    0.8780 hc        1 3MR      0.043950
     72 H351        8.3730   -0.5850   -1.7530 hc        1 3MR      0.043700
     73 H352        9.2860   -1.2680   -0.3490 hc        1 3MR      0.043700
     74 H361        9.0190   -2.9210   -2.2270 hc        1 3MR      0.040200
     75 H362        8.2620   -3.4890   -0.6860 hc        1 3MR      0.040200
     76 H371        6.8270   -2.2160   -3.1150 hc        1 3MR      0.043700
     77 H372        6.7470   -3.9420   -2.5800 hc        1 3MR      0.043700
     78 H381        5.6600   -3.2840   -0.4530 hc        1 3MR      0.043950
     79 H382        4.7320   -2.6510   -1.8730 hc        1 3MR      0.043950
@<TRIPOS>BOND
     1    1    2 1   
     2    1   38 1   
     3    1   39 1   
     4    1   40 1   
     5    2    3 1   
     6    2   32 1   
     7    3    4 2   
     8    3    5 1   
     9    5    6 1   
    10    5   41 1   
    11    5   42 1   
    12    6    7 1   
    13    6   43 1   
    14    6   44 1   
    15    7    8 1   
    16    7   14 1   
    17    7   45 1   
    18    8    9 1   
    19    8   13 1   
    20    8   46 1   
    21    9   10 1   
    22    9   47 1   
    23    9   48 1   
    24   10   11 1   
    25   10   49 1   
    26   10   50 1   
    27   11   12 1   
    28   11   51 1   
    29   11   52 1   
    30   12   13 1   
    31   12   53 1   
    32   12   54 1   
    33   13   55 1   
    34   13   56 1   
    35   14   15 1   
    36   14   30 1   
    37   15   16 1   
    38   15   57 1   
    39   15   58 1   
    40   16   17 ar  
    41   16   28 ar  
    42   17   18 ar  
    43   17   59 1   
    44   18   19 1   
    45   18   26 ar  
    46   19   20 1   
    47   20   21 ar  
    48   20   25 ar  
    49   21   22 ar  
    50   21   60 1   
    51   22   23 ar  
    52   22   61 1   
    53   23   24 ar  
    54   23   62 1   
    55   24   25 ar  
    56   24   63 1   
    57   25   64 1   
    58   26   27 ar  
    59   26   65 1   
    60   27   28 ar  
    61   27   66 1   
    62   28   29 1   
    63   29   30 2   
    64   30   31 1   
    65   31   67 1   
    66   31   68 1   
    67   32   33 1   
    68   32   37 1   
    69   32   69 1   
    70   33   34 1   
    71   33   70 1   
    72   33   71 1   
    73   34   35 1   
    74   34   72 1   
    75   34   73 1   
    76   35   36 1   
    77   35   74 1   
    78   35   75 1   
    79   36   37 1   
    80   36   76 1   
    81   36   77 1   
    82   37   78 1   
    83   37   79 1   
@<TRIPOS>SUBSTRUCTURE
     1 3MR         1 TEMP              0 ****  ****    0 ROOT
