@<TRIPOS>MOLECULE
3MR
   81    85     1     0     0
SMALL
bcc


@<TRIPOS>ATOM
      1 C1          1.1250    1.2730    1.2420 c3        1 3MR      0.081100
      2 N2          1.0520    0.2240    0.1950 n4        1 3MR     -0.595200
      3 C3          1.6920    0.7030   -1.0940 c         1 3MR      0.533100
      4 O4          2.7690    1.2730   -1.0060 o         1 3MR     -0.397100
      5 C5          0.9220    0.4200   -2.3590 c3        1 3MR     -0.150400
      6 C6          1.6960    0.9480   -3.5530 c3        1 3MR     -0.086400
      7 C7          0.9200    0.8540   -4.8850 c3        1 3MR      0.189500
      8 C9          1.7190    1.6830   -5.9260 c3        1 3MR     -0.111700
      9 C10         1.6740    1.1680   -7.3560 c3        1 3MR     -0.069400
     10 C11         2.5290    2.0380   -8.2610 c3        1 3MR     -0.081400
     11 C12         2.0870    3.4860   -8.2150 c3        1 3MR     -0.084400
     12 C13         2.0670    4.0100   -6.7950 c3        1 3MR     -0.081400
     13 C14         1.2300    3.1290   -5.8890 c3        1 3MR     -0.069400
     14 N15         0.5850   -0.5340   -5.2170 nh        1 3MR     -0.709600
     15 C16         1.7430   -1.4390   -5.2230 c3        1 3MR      0.221100
     16 C17         1.7290   -2.5770   -6.1970 ca        1 3MR     -0.065300
     17 C18         2.7680   -3.4910   -6.1880 ca        1 3MR     -0.163000
     18 C19         2.7510   -4.5590   -7.1160 ca        1 3MR      0.208100
     19 O20         3.8200   -5.4110   -7.0200 os        1 3MR     -0.226200
     20 C21         3.8650   -6.4810   -7.9310 ca        1 3MR      0.035100
     21 C22         3.2510   -7.6920   -7.5920 ca        1 3MR     -0.122500
     22 C23         3.4380   -8.7900   -8.4310 ca        1 3MR     -0.113500
     23 C24         4.2210   -8.6730   -9.5810 ca        1 3MR     -0.104000
     24 C25         4.8270   -7.4570   -9.9020 ca        1 3MR     -0.113500
     25 C26         4.6540   -6.3450   -9.0790 ca        1 3MR     -0.122500
     26 C27         1.6980   -4.6960   -8.0360 ca        1 3MR     -0.198000
     27 C28         0.6600   -3.7770   -8.0470 ca        1 3MR      0.003000
     28 C29         0.6640   -2.7010   -7.1280 ca        1 3MR      0.029400
     29 N30        -0.3700   -1.7660   -7.1460 ne        1 3MR     -0.497100
     30 C31        -0.3290   -0.7600   -6.3030 c2        1 3MR      0.577100
     31 N32        -1.4960    0.1780   -6.4210 n4        1 3MR     -0.789600
     32 C33         1.6870   -1.0900    0.6330 c3        1 3MR      0.134500
     33 C34         3.0550   -0.9070    1.2960 c3        1 3MR     -0.097900
     34 C35         3.6590   -2.2730    1.5660 c3        1 3MR     -0.078900
     35 C36         2.7530   -3.1150    2.4380 c3        1 3MR     -0.093400
     36 C37         1.3670   -3.2380    1.8420 c3        1 3MR     -0.078900
     37 C38         0.7550   -1.8760    1.5630 c3        1 3MR     -0.097900
     38 H11         0.7490    0.8550    2.2140 hx        1 3MR      0.112033
     39 H12         0.4930    2.1480    0.9340 hx        1 3MR      0.112033
     40 H13         2.1920    1.6090    1.3660 hx        1 3MR      0.112033
     41 H51        -0.0840    0.9180   -2.2970 hc        1 3MR      0.096700
     42 H52         0.7590   -0.6890   -2.4520 hc        1 3MR      0.096700
     43 H61         1.9340    2.0350   -3.3860 hc        1 3MR      0.089200
     44 H62         2.6780    0.4090   -3.6290 hc        1 3MR      0.089200
     45 H7         -0.0660    1.3800   -4.6960 h1        1 3MR      0.031700
     46 H9          2.8050    1.6730   -5.6170 hc        1 3MR      0.083700
     47 H101        2.0510    0.1130   -7.4080 hc        1 3MR      0.029450
     48 H102        0.6230    1.1790   -7.7450 hc        1 3MR      0.029450
     49 H111        3.6030    1.9610   -7.9470 hc        1 3MR      0.063700
     50 H112        2.4580    1.6550   -9.3130 hc        1 3MR      0.063700
     51 H121        2.7870    4.1090   -8.8330 hc        1 3MR      0.059200
     52 H122        1.0660    3.5840   -8.6680 hc        1 3MR      0.059200
     53 H131        3.1160    4.0620   -6.3980 hc        1 3MR      0.063700
     54 H132        1.6520    5.0520   -6.7820 hc        1 3MR      0.063700
     55 H141        0.1580    3.1680   -6.2180 hc        1 3MR      0.029450
     56 H142        1.2770    3.5230   -4.8410 hc        1 3MR      0.029450
     57 H161        2.6970   -0.8550   -5.4010 h1        1 3MR      0.069700
     58 H162        1.7830   -1.8630   -4.1750 h1        1 3MR      0.069700
     59 H18         3.6070   -3.4080   -5.4810 ha        1 3MR      0.168000
     60 H22         2.6490   -7.7750   -6.6760 ha        1 3MR      0.150000
     61 H23         2.9700   -9.7550   -8.1790 ha        1 3MR      0.154500
     62 H24         4.3670   -9.5470  -10.2350 ha        1 3MR      0.156000
     63 H25         5.4510   -7.3750  -10.8060 ha        1 3MR      0.154500
     64 H26         5.1380   -5.3860   -9.3120 ha        1 3MR      0.150000
     65 H27         1.7030   -5.5370   -8.7510 ha        1 3MR      0.183000
     66 H28        -0.1630   -3.8860   -8.7740 ha        1 3MR      0.171000
     67 H321       -2.0260    0.1760   -5.5450 hn        1 3MR      0.473800
     68 H322       -1.1460    1.1240   -6.6210 hn        1 3MR      0.473800
     69 H33         1.8220   -1.6840   -0.3230 hx        1 3MR      0.086700
     70 H341        2.9420   -0.3560    2.2680 hc        1 3MR      0.068200
     71 H342        3.7360   -0.3120    0.6330 hc        1 3MR      0.068200
     72 H351        4.6490   -2.1310    2.0760 hc        1 3MR      0.069450
     73 H352        3.8550   -2.8000    0.5960 hc        1 3MR      0.069450
     74 H361        2.6850   -2.6610    3.4620 hc        1 3MR      0.073200
     75 H362        3.1970   -4.1390    2.5570 hc        1 3MR      0.073200
     76 H371        1.4110   -3.8330    0.8920 hc        1 3MR      0.069450
     77 H372        0.6980   -3.7910    2.5540 hc        1 3MR      0.069450
     78 H381       -0.2540   -2.0130    1.0930 hc        1 3MR      0.068200
     79 H382        0.6180   -1.3260    2.5320 hc        1 3MR      0.068200
     80 H21         0.0610    0.0260    0.0080 hn        1 3MR      0.444800
     81 H323       -2.1100   -0.1280   -7.1910 hn        1 3MR      0.473800
@<TRIPOS>BOND
     1    1    2 1   
     2    1   38 1   
     3    1   39 1   
     4    1   40 1   
     5    2    3 1   
     6    2   32 1   
     7    2   80 1   
     8    3    4 2   
     9    3    5 1   
    10    5    6 1   
    11    5   41 1   
    12    5   42 1   
    13    6    7 1   
    14    6   43 1   
    15    6   44 1   
    16    7    8 1   
    17    7   14 1   
    18    7   45 1   
    19    8    9 1   
    20    8   13 1   
    21    8   46 1   
    22    9   10 1   
    23    9   47 1   
    24    9   48 1   
    25   10   11 1   
    26   10   49 1   
    27   10   50 1   
    28   11   12 1   
    29   11   51 1   
    30   11   52 1   
    31   12   13 1   
    32   12   53 1   
    33   12   54 1   
    34   13   55 1   
    35   13   56 1   
    36   14   15 1   
    37   14   30 1   
    38   15   16 1   
    39   15   57 1   
    40   15   58 1   
    41   16   17 ar  
    42   16   28 ar  
    43   17   18 ar  
    44   17   59 1   
    45   18   19 1   
    46   18   26 ar  
    47   19   20 1   
    48   20   21 ar  
    49   20   25 ar  
    50   21   22 ar  
    51   21   60 1   
    52   22   23 ar  
    53   22   61 1   
    54   23   24 ar  
    55   23   62 1   
    56   24   25 ar  
    57   24   63 1   
    58   25   64 1   
    59   26   27 ar  
    60   26   65 1   
    61   27   28 ar  
    62   27   66 1   
    63   28   29 1   
    64   29   30 2   
    65   30   31 1   
    66   31   67 1   
    67   31   68 1   
    68   31   81 1   
    69   32   33 1   
    70   32   37 1   
    71   32   69 1   
    72   33   34 1   
    73   33   70 1   
    74   33   71 1   
    75   34   35 1   
    76   34   72 1   
    77   34   73 1   
    78   35   36 1   
    79   35   74 1   
    80   35   75 1   
    81   36   37 1   
    82   36   76 1   
    83   36   77 1   
    84   37   78 1   
    85   37   79 1   
@<TRIPOS>SUBSTRUCTURE
     1 3MR         1 TEMP              0 ****  ****    0 ROOT
