@<TRIPOS>MOLECULE
3MR
   81    85     1     0     0
SMALL
bcc


@<TRIPOS>ATOM
      1 C1          1.1220    1.2350    1.2600 c3        1 3MR      0.081100
      2 N2          1.0590    0.1930    0.2060 nx        1 3MR     -0.595200
      3 C3          1.6870    0.6900   -1.0810 c         1 3MR      0.533100
      4 O4          2.7560    1.2740   -0.9940 o         1 3MR     -0.397100
      5 C5          0.9160    0.4050   -2.3450 c3        1 3MR     -0.150400
      6 C6          1.6830    0.9430   -3.5390 c3        1 3MR     -0.086400
      7 C7          0.9020    0.8520   -4.8690 c3        1 3MR      0.189500
      8 C9          1.6930    1.6890   -5.9100 c3        1 3MR     -0.111700
      9 C10         1.6440    1.1810   -7.3420 c3        1 3MR     -0.069400
     10 C11         2.4910    2.0590   -8.2460 c3        1 3MR     -0.081400
     11 C12         2.0430    3.5040   -8.1910 c3        1 3MR     -0.084400
     12 C13         2.0270    4.0210   -6.7690 c3        1 3MR     -0.081400
     13 C14         1.1970    3.1320   -5.8640 c3        1 3MR     -0.069400
     14 N15         0.5730   -0.5370   -5.2070 nh        1 3MR     -0.709600
     15 C16         1.7360   -1.4360   -5.2210 c3        1 3MR      0.221100
     16 C17         1.7230   -2.5690   -6.2010 ca        1 3MR     -0.065300
     17 C18         2.7680   -3.4770   -6.2010 ca        1 3MR     -0.163000
     18 C19         2.7520   -4.5410   -7.1340 ca        1 3MR      0.208100
     19 O20         3.8260   -5.3870   -7.0470 os        1 3MR     -0.226200
     20 C21         3.8740   -6.4520   -7.9640 ca        1 3MR      0.035100
     21 C22         3.2660   -7.6680   -7.6300 ca        1 3MR     -0.123000
     22 C23         3.4560   -8.7610   -8.4740 ca        1 3MR     -0.113500
     23 C24         4.2350   -8.6340   -9.6260 ca        1 3MR     -0.104000
     24 C25         4.8350   -7.4130   -9.9430 ca        1 3MR     -0.113500
     25 C26         4.6580   -6.3060   -9.1130 ca        1 3MR     -0.123000
     26 C27         1.6960   -4.6790   -8.0510 ca        1 3MR     -0.198000
     27 C28         0.6540   -3.7650   -8.0520 ca        1 3MR      0.003000
     28 C29         0.6550   -2.6940   -7.1280 ca        1 3MR      0.029400
     29 N30        -0.3840   -1.7640   -7.1370 ne        1 3MR     -0.498100
     30 C31        -0.3440   -0.7620   -6.2900 c2        1 3MR      0.577100
     31 N32        -1.5170    0.1700   -6.3980 nz        1 3MR     -0.789600
     32 C33         1.7130   -1.1160    0.6330 c3        1 3MR      0.134500
     33 C34         3.0810   -0.9180    1.2920 c3        1 3MR     -0.097900
     34 C35         3.7050   -2.2770    1.5500 c3        1 3MR     -0.078900
     35 C36         2.8140   -3.1380    2.4190 c3        1 3MR     -0.093400
     36 C37         1.4270   -3.2760    1.8280 c3        1 3MR     -0.078900
     37 C38         0.7950   -1.9210    1.5610 c3        1 3MR     -0.097900
     38 H11         0.4770    2.1040    0.9610 hx        1 3MR      0.112033
     39 H12         2.1840    1.5860    1.3830 hx        1 3MR      0.112033
     40 H13         0.7560    0.8050    2.2320 hx        1 3MR      0.112033
     41 H51        -0.0930    0.8940   -2.2780 hc        1 3MR      0.096700
     42 H52         0.7610   -0.7050   -2.4420 hc        1 3MR      0.096700
     43 H61         1.9140    2.0310   -3.3680 hc        1 3MR      0.089200
     44 H62         2.6670    0.4100   -3.6220 hc        1 3MR      0.089200
     45 H7         -0.0860    1.3720   -4.6740 h1        1 3MR      0.031700
     46 H9          2.7800    1.6830   -5.6040 hc        1 3MR      0.082700
     47 H101        0.5910    1.1880   -7.7260 hc        1 3MR      0.029450
     48 H102        2.0260    0.1280   -7.4000 hc        1 3MR      0.029450
     49 H111        3.5670    1.9860   -7.9370 hc        1 3MR      0.063700
     50 H112        2.4180    1.6800   -9.2990 hc        1 3MR      0.063700
     51 H121        1.0190    3.6000   -8.6400 hc        1 3MR      0.059200
     52 H122        2.7370    4.1340   -8.8090 hc        1 3MR      0.059200
     53 H131        3.0770    4.0770   -6.3770 hc        1 3MR      0.063700
     54 H132        1.6070    5.0610   -6.7500 hc        1 3MR      0.063700
     55 H141        1.2470    3.5220   -4.8140 hc        1 3MR      0.029450
     56 H142        0.1230    3.1680   -6.1890 hc        1 3MR      0.029450
     57 H161        1.7810   -1.8650   -4.1760 h1        1 3MR      0.069700
     58 H162        2.6860   -0.8460   -5.3990 h1        1 3MR      0.069700
     59 H18         3.6090   -3.3940   -5.4970 ha        1 3MR      0.168000
     60 H22         2.6680   -7.7580   -6.7120 ha        1 3MR      0.150000
     61 H23         2.9930   -9.7290   -8.2260 ha        1 3MR      0.154500
     62 H24         4.3830   -9.5040  -10.2860 ha        1 3MR      0.156000
     63 H25         5.4550   -7.3220  -10.8480 ha        1 3MR      0.154500
     64 H26         5.1370   -5.3430   -9.3430 ha        1 3MR      0.150000
     65 H27         1.7030   -5.5160   -8.7700 ha        1 3MR      0.183000
     66 H28        -0.1720   -3.8750   -8.7770 ha        1 3MR      0.171000
     67 H321       -1.1730    1.1190   -6.5960 hn        1 3MR      0.473800
     68 H322       -2.1330   -0.1350   -7.1670 hn        1 3MR      0.473800
     69 H33         1.8530   -1.7000   -0.3280 hx        1 3MR      0.086700
     70 H341        2.9650   -0.3760    2.2680 hc        1 3MR      0.068200
     71 H342        3.7520   -0.3090    0.6300 hc        1 3MR      0.068200
     72 H351        3.9050   -2.7960    0.5750 hc        1 3MR      0.069450
     73 H352        4.6950   -2.1260    2.0570 hc        1 3MR      0.069450
     74 H361        2.7440   -2.6920    3.4470 hc        1 3MR      0.073200
     75 H362        3.2730   -4.1570    2.5300 hc        1 3MR      0.073200
     76 H371        1.4760   -3.8640    0.8740 hc        1 3MR      0.069450
     77 H372        0.7680   -3.8430    2.5390 hc        1 3MR      0.069450
     78 H381        0.6550   -1.3790    2.5340 hc        1 3MR      0.068200
     79 H382       -0.2130   -2.0680    1.0930 hc        1 3MR      0.068200
     80 H21         0.0700   -0.0170    0.0220 hn        1 3MR      0.444800
     81 H323       -2.0430    0.1610   -5.5200 hn        1 3MR      0.473800
@<TRIPOS>BOND
     1    1    2 1   
     2    1   38 1   
     3    1   39 1   
     4    1   40 1   
     5    2    3 1   
     6    2   32 1   
     7    2   80 1   
     8    3    4 2   
     9    3    5 1   
    10    5    6 1   
    11    5   41 1   
    12    5   42 1   
    13    6    7 1   
    14    6   43 1   
    15    6   44 1   
    16    7    8 1   
    17    7   14 1   
    18    7   45 1   
    19    8    9 1   
    20    8   13 1   
    21    8   46 1   
    22    9   10 1   
    23    9   47 1   
    24    9   48 1   
    25   10   11 1   
    26   10   49 1   
    27   10   50 1   
    28   11   12 1   
    29   11   51 1   
    30   11   52 1   
    31   12   13 1   
    32   12   53 1   
    33   12   54 1   
    34   13   55 1   
    35   13   56 1   
    36   14   15 1   
    37   14   30 1   
    38   15   16 1   
    39   15   57 1   
    40   15   58 1   
    41   16   17 ar  
    42   16   28 ar  
    43   17   18 ar  
    44   17   59 1   
    45   18   19 1   
    46   18   26 ar  
    47   19   20 1   
    48   20   21 ar  
    49   20   25 ar  
    50   21   22 ar  
    51   21   60 1   
    52   22   23 ar  
    53   22   61 1   
    54   23   24 ar  
    55   23   62 1   
    56   24   25 ar  
    57   24   63 1   
    58   25   64 1   
    59   26   27 ar  
    60   26   65 1   
    61   27   28 ar  
    62   27   66 1   
    63   28   29 1   
    64   29   30 2   
    65   30   31 1   
    66   31   67 1   
    67   31   68 1   
    68   31   81 1   
    69   32   33 1   
    70   32   37 1   
    71   32   69 1   
    72   33   34 1   
    73   33   70 1   
    74   33   71 1   
    75   34   35 1   
    76   34   72 1   
    77   34   73 1   
    78   35   36 1   
    79   35   74 1   
    80   35   75 1   
    81   36   37 1   
    82   36   76 1   
    83   36   77 1   
    84   37   78 1   
    85   37   79 1   
@<TRIPOS>SUBSTRUCTURE
     1 3MR         1 TEMP              0 ****  ****    0 ROOT
