@<TRIPOS>MOLECULE
3MR
   81    85     1     0     0
SMALL
bcc


@<TRIPOS>ATOM
      1 C1          1.1700    1.2660    1.2510 c3        1 3MR      0.081100
      2 N2          1.0970    0.2190    0.2030 n4        1 3MR     -0.595200
      3 C3          1.7200    0.7070   -1.0900 c         1 3MR      0.533100
      4 O4          2.7920    1.2870   -1.0120 o         1 3MR     -0.397100
      5 C5          0.9400    0.4200   -2.3490 c3        1 3MR     -0.150400
      6 C6          1.7030    0.9480   -3.5500 c3        1 3MR     -0.086400
      7 C7          0.9130    0.8560   -4.8740 c3        1 3MR      0.189500
      8 C9          1.7030    1.6830   -5.9230 c3        1 3MR     -0.111700
      9 C10         1.6440    1.1680   -7.3530 c3        1 3MR     -0.069400
     10 C11         2.4900    2.0380   -8.2660 c3        1 3MR     -0.081400
     11 C12         2.0510    3.4850   -8.2160 c3        1 3MR     -0.084400
     12 C13         2.0460    4.0090   -6.7950 c3        1 3MR     -0.081400
     13 C14         1.2160    3.1300   -5.8820 c3        1 3MR     -0.069400
     14 N15         0.5720   -0.5320   -5.2040 nh        1 3MR     -0.709600
     15 C16         1.7290   -1.4390   -5.2210 c3        1 3MR      0.221100
     16 C17         1.7020   -2.5770   -6.1950 ca        1 3MR     -0.065300
     17 C18         2.7400   -3.4930   -6.1960 ca        1 3MR     -0.163000
     18 C19         2.7110   -4.5620   -7.1230 ca        1 3MR      0.208100
     19 O20         3.7790   -5.4160   -7.0380 os        1 3MR     -0.226200
     20 C21         3.8120   -6.4860   -7.9490 ca        1 3MR      0.035100
     21 C22         3.1970   -7.6950   -7.6040 ca        1 3MR     -0.123000
     22 C23         3.3740   -8.7940   -8.4430 ca        1 3MR     -0.113500
     23 C24         4.1470   -8.6800   -9.6000 ca        1 3MR     -0.104000
     24 C25         4.7530   -7.4660   -9.9280 ca        1 3MR     -0.113500
     25 C26         4.5900   -6.3530   -9.1040 ca        1 3MR     -0.123000
     26 C27         1.6480   -4.6970   -8.0330 ca        1 3MR     -0.198000
     27 C28         0.6130   -3.7750   -8.0330 ca        1 3MR      0.003000
     28 C29         0.6280   -2.6990   -7.1150 ca        1 3MR      0.029400
     29 N30        -0.4050   -1.7620   -7.1220 ne        1 3MR     -0.498100
     30 C31        -0.3530   -0.7560   -6.2800 c2        1 3MR      0.577100
     31 N32        -1.5190    0.1850   -6.3870 n4        1 3MR     -0.789600
     32 C33         1.7490   -1.0900    0.6330 c3        1 3MR      0.134500
     33 C34         3.1210   -0.8930    1.2840 c3        1 3MR     -0.097900
     34 C35         3.7430   -2.2530    1.5450 c3        1 3MR     -0.078900
     35 C36         2.8530   -3.1070    2.4230 c3        1 3MR     -0.093400
     36 C37         1.4630   -3.2430    1.8400 c3        1 3MR     -0.078900
     37 C38         0.8340   -1.8870    1.5700 c3        1 3MR     -0.097900
     38 H11         2.2340    1.6140    1.3660 hx        1 3MR      0.112033
     39 H12         0.5250    2.1350    0.9520 hx        1 3MR      0.112033
     40 H13         0.8070    0.8430    2.2270 hx        1 3MR      0.112033
     41 H51         0.7790   -0.6890   -2.4390 hc        1 3MR      0.096700
     42 H52        -0.0660    0.9150   -2.2780 hc        1 3MR      0.096700
     43 H61         2.6840    0.4080   -3.6360 hc        1 3MR      0.089200
     44 H62         1.9430    2.0350   -3.3850 hc        1 3MR      0.089200
     45 H7         -0.0700    1.3840   -4.6750 h1        1 3MR      0.031700
     46 H9          2.7920    1.6720   -5.6240 hc        1 3MR      0.082700
     47 H101        0.5890    1.1810   -7.7320 hc        1 3MR      0.029450
     48 H102        2.0180    0.1130   -7.4090 hc        1 3MR      0.029450
     49 H111        3.5680    1.9590   -7.9620 hc        1 3MR      0.063700
     50 H112        2.4090    1.6540   -9.3170 hc        1 3MR      0.063700
     51 H121        2.7460    4.1080   -8.8400 hc        1 3MR      0.059200
     52 H122        1.0260    3.5850   -8.6590 hc        1 3MR      0.059200
     53 H131        1.6320    5.0520   -6.7790 hc        1 3MR      0.063700
     54 H132        3.0990    4.0600   -6.4090 hc        1 3MR      0.063700
     55 H141        1.2740    3.5240   -4.8340 hc        1 3MR      0.029450
     56 H142        0.1410    3.1700   -6.2000 hc        1 3MR      0.029450
     57 H161        2.6820   -0.8570   -5.4090 h1        1 3MR      0.069700
     58 H162        1.7780   -1.8630   -4.1740 h1        1 3MR      0.069700
     59 H18         3.5860   -3.4120   -5.4970 ha        1 3MR      0.168000
     60 H22         2.6040   -7.7760   -6.6820 ha        1 3MR      0.150000
     61 H23         2.9050   -9.7570   -8.1870 ha        1 3MR      0.154500
     62 H24         4.2830   -9.5550  -10.2560 ha        1 3MR      0.156000
     63 H25         5.3690   -7.3860  -10.8380 ha        1 3MR      0.154500
     64 H26         5.0750   -5.3950   -9.3420 ha        1 3MR      0.150000
     65 H27         1.6440   -5.5380   -8.7470 ha        1 3MR      0.183000
     66 H28        -0.2180   -3.8830   -8.7520 ha        1 3MR      0.171000
     67 H321       -1.1690    1.1300   -6.5900 hn        1 3MR      0.473800
     68 H322       -2.0400    0.1830   -5.5060 hn        1 3MR      0.473800
     69 H33         1.8830   -1.6790   -0.3260 hx        1 3MR      0.086700
     70 H341        3.0120   -0.3460    2.2570 hc        1 3MR      0.068200
     71 H342        3.7910   -0.2900    0.6160 hc        1 3MR      0.068200
     72 H351        4.7360   -2.1020    2.0470 hc        1 3MR      0.069450
     73 H352        3.9350   -2.7770    0.5720 hc        1 3MR      0.069450
     74 H361        3.3090   -4.1260    2.5370 hc        1 3MR      0.073200
     75 H362        2.7900   -2.6550    3.4490 hc        1 3MR      0.073200
     76 H371        1.5050   -3.8360    0.8880 hc        1 3MR      0.069450
     77 H372        0.8060   -3.8050    2.5570 hc        1 3MR      0.069450
     78 H381        0.7010   -1.3410    2.5400 hc        1 3MR      0.068200
     79 H382       -0.1770   -2.0330    1.1080 hc        1 3MR      0.068200
     80 H21         0.1070    0.0110    0.0250 hn        1 3MR      0.444800
     81 H323       -2.1410   -0.1190   -7.1510 hn        1 3MR      0.473800
@<TRIPOS>BOND
     1    1    2 1   
     2    1   38 1   
     3    1   39 1   
     4    1   40 1   
     5    2    3 1   
     6    2   32 1   
     7    2   80 1   
     8    3    4 2   
     9    3    5 1   
    10    5    6 1   
    11    5   41 1   
    12    5   42 1   
    13    6    7 1   
    14    6   43 1   
    15    6   44 1   
    16    7    8 1   
    17    7   14 1   
    18    7   45 1   
    19    8    9 1   
    20    8   13 1   
    21    8   46 1   
    22    9   10 1   
    23    9   47 1   
    24    9   48 1   
    25   10   11 1   
    26   10   49 1   
    27   10   50 1   
    28   11   12 1   
    29   11   51 1   
    30   11   52 1   
    31   12   13 1   
    32   12   53 1   
    33   12   54 1   
    34   13   55 1   
    35   13   56 1   
    36   14   15 1   
    37   14   30 1   
    38   15   16 1   
    39   15   57 1   
    40   15   58 1   
    41   16   17 ar  
    42   16   28 ar  
    43   17   18 ar  
    44   17   59 1   
    45   18   19 1   
    46   18   26 ar  
    47   19   20 1   
    48   20   21 ar  
    49   20   25 ar  
    50   21   22 ar  
    51   21   60 1   
    52   22   23 ar  
    53   22   61 1   
    54   23   24 ar  
    55   23   62 1   
    56   24   25 ar  
    57   24   63 1   
    58   25   64 1   
    59   26   27 ar  
    60   26   65 1   
    61   27   28 ar  
    62   27   66 1   
    63   28   29 1   
    64   29   30 2   
    65   30   31 1   
    66   31   67 1   
    67   31   68 1   
    68   31   81 1   
    69   32   33 1   
    70   32   37 1   
    71   32   69 1   
    72   33   34 1   
    73   33   70 1   
    74   33   71 1   
    75   34   35 1   
    76   34   72 1   
    77   34   73 1   
    78   35   36 1   
    79   35   74 1   
    80   35   75 1   
    81   36   37 1   
    82   36   76 1   
    83   36   77 1   
    84   37   78 1   
    85   37   79 1   
@<TRIPOS>SUBSTRUCTURE
     1 3MR         1 TEMP              0 ****  ****    0 ROOT
