@<TRIPOS>MOLECULE
3MS
   56    57     1     0     0
SMALL
bcc


@<TRIPOS>ATOM
      1 C4          0.2170    0.6370    0.0700 c2        1 3MS     -0.057000
      2 C5          7.8340    0.5660    4.7660 c1        1 3MS     -0.038000
      3 C6         -0.3340    0.6010   -2.3590 c1        1 3MS      0.229000
      4 C7          4.5470    0.3300    4.9250 c2        1 3MS     -0.007000
      5 C8          7.7020    1.6570    5.5130 c2        1 3MS      0.106000
      6 C10         1.5360    0.2860    0.0570 c2        1 3MS     -0.070000
      7 C13         4.4630   -0.1500    2.5700 c2        1 3MS      0.270000
      8 C15         4.8150   -0.4420   -5.3710 c3        1 3MS     -0.211000
      9 C17         8.6780    4.5370    4.2280 c3        1 3MS     -0.965000
     10 C20         4.2160   -1.6640   -4.7060 c3        1 3MS     -0.104000
     11 O30        10.0040    4.5480    6.3790 o         1 3MS     -0.928000
     12 S33         8.7580    4.1350    5.8680 s6        1 3MS      2.826000
     13 O29         7.6100    4.6350    6.5080 o         1 3MS     -0.928000
     14 C3          6.3060    1.9940    5.9010 c2        1 3MS     -0.067000
     15 C9          7.7320   -0.4790    4.0070 c2        1 3MS     -0.798000
     16 S32         7.2360   -0.4300    2.3810 s6        1 3MS      2.852000
     17 O27         7.3490    0.8900    1.9270 o         1 3MS     -0.911500
     18 O28         7.9400   -1.4480    1.7170 o         1 3MS     -0.911500
     19 N23         5.6620   -0.9130    2.5040 n3        1 3MS     -0.859000
     20 N21         3.9820    0.4060    3.6470 n2        1 3MS     -0.253000
     21 C2          5.3540    1.2170    5.4570 c1        1 3MS     -0.182000
     22 C12         3.6440   -0.0690    1.3250 c2        1 3MS     -0.288000
     23 C11         2.3200    0.3000    1.3100 c2        1 3MS      0.249000
     24 O31         1.5600    0.6780    2.3650 oh        1 3MS     -0.246000
     25 C14         4.2880   -0.3750    0.0280 c2        1 3MS      0.350000
     26 O26         5.5170   -0.5070   -0.1260 o         1 3MS     -0.355000
     27 N24         3.4420   -0.6370   -1.0930 n         1 3MS     -0.245000
     28 N22         2.2180    0.0120   -1.1700 na        1 3MS     -0.126000
     29 C1         -0.6490    0.6320   -1.0760 c2        1 3MS     -0.452000
     30 C19         4.1600   -0.7210   -2.3850 c3        1 3MS     -0.042000
     31 C18         3.3240   -1.2810   -3.5320 c3        1 3MS     -0.168000
     32 C16         3.4180   -2.4690   -5.7110 c3        1 3MS     -0.211000
     33 H4         -0.2430    0.9490    1.0250 ha        1 3MS      0.167000
     34 H5          7.9550   -1.4820    4.4210 h4        1 3MS      0.191000
     35 H6          1.6190   -0.5800   -1.7530 hn        1 3MS      0.186000
     36 H15         4.0110    0.2510   -5.7180 hc        1 3MS      0.076000
     37 H15A        5.4760    0.1090   -4.6600 hc        1 3MS      0.076000
     38 H15B        5.4250   -0.7460   -6.2550 hc        1 3MS      0.076000
     39 H17         9.6740    4.4880    3.7200 h1        1 3MS      0.168333
     40 H17A        8.3130    5.5890    4.0950 h1        1 3MS      0.168333
     41 H17B        7.9890    3.9030    3.6140 h1        1 3MS      0.168333
     42 H20         5.0570   -2.3090   -4.3230 hc        1 3MS      0.091000
     43 HN25        9.6050    2.0050    6.0700 hn        1 3MS      0.259000
     44 H3          6.1290    2.9020    6.5050 ha        1 3MS      0.198000
     45 HN23        5.4660   -1.8330    2.1610 hn        1 3MS      0.255000
     46 H2          4.1700   -0.5210    5.5340 h4        1 3MS      0.161000
     47 HO31        2.1040    0.7490    3.1780 ho        1 3MS      0.284000
     48 H1         -1.7380    0.6820   -0.8400 ha        1 3MS      0.200000
     49 H19         4.5650    0.2900   -2.6740 h1        1 3MS      0.112000
     50 H19A        5.0340   -1.4080   -2.1930 h1        1 3MS      0.112000
     51 H18         2.7620   -2.1910   -3.1950 hc        1 3MS      0.089500
     52 H18A        2.5730   -0.5220   -3.8770 hc        1 3MS      0.089500
     53 H16         3.0190   -3.3990   -5.2400 hc        1 3MS      0.076000
     54 H16A        2.5580   -1.8710   -6.0990 hc        1 3MS      0.076000
     55 H16B        4.0650   -2.7590   -6.5740 hc        1 3MS      0.076000
     56 N25         8.7620    2.4970    5.8670 n3        1 3MS     -0.816000
@<TRIPOS>BOND
     1    1    6 1   
     2    1   29 1   
     3    1   33 1   
     4    2    5 1   
     5    2   15 1   
     6    3   29 1   
     7    4   20 1   
     8    4   21 1   
     9    4   46 1   
    10    5   14 1   
    11    5   56 1   
    12    6   23 1   
    13    6   28 1   
    14    7   19 1   
    15    7   20 1   
    16    7   22 1   
    17    8   10 1   
    18    8   36 1   
    19    8   37 1   
    20    8   38 1   
    21    9   12 1   
    22    9   39 1   
    23    9   40 1   
    24    9   41 1   
    25   10   31 1   
    26   10   32 1   
    27   10   42 1   
    28   11   12 1   
    29   12   13 1   
    30   12   56 1   
    31   14   21 1   
    32   14   44 1   
    33   15   16 1   
    34   15   34 1   
    35   16   17 1   
    36   16   18 1   
    37   16   19 1   
    38   19   45 1   
    39   22   23 1   
    40   22   25 1   
    41   23   24 1   
    42   24   47 1   
    43   25   26 1   
    44   25   27 1   
    45   27   28 1   
    46   27   30 1   
    47   28   35 1   
    48   29   48 1   
    49   30   31 1   
    50   30   49 1   
    51   30   50 1   
    52   31   51 1   
    53   31   52 1   
    54   32   53 1   
    55   32   54 1   
    56   32   55 1   
    57   43   56 1   
@<TRIPOS>SUBSTRUCTURE
     1 3MS         1 TEMP              0 ****  ****    0 ROOT
