@<TRIPOS>MOLECULE
3MS
   56    49     1     0     0
SMALL
bcc


@<TRIPOS>ATOM
      1 C4         -3.6250   -1.9720   -1.6590 c1        1 3MS     -0.161000
      2 C5          0.8440    2.0110    4.0310 c1        1 3MS     -0.043000
      3 C6         -2.7830   -0.7910   -3.3000 c1        1 3MS     -0.133500
      4 C7         -0.4980    0.3110    2.9760 c1        1 3MS      0.114000
      5 C8          0.2900    1.6990    5.2600 c1        1 3MS      0.035000
      6 C10        -2.2180   -2.0330   -1.5760 c1        1 3MS     -0.133500
      7 C13        -0.0370   -0.5710    0.5770 c1        1 3MS      0.258000
      8 C15         1.6710   -2.5180   -6.7280 c3        1 3MS     -0.211500
      9 C17         0.6600    3.6810    8.8830 c3        1 3MS     -0.951000
     10 C20         1.2610   -1.2210   -6.0790 c3        1 3MS     -0.102000
     11 O30         0.8390    4.4400    6.3240 o         1 3MS     -0.538400
     12 S33         0.1170    3.5400    7.1760 s4        1 3MS      2.042800
     13 O29        -1.2250    4.0210    7.0160 o         1 3MS     -0.538400
     14 N25         0.2610    1.9840    6.6590 n2        1 3MS     -0.834000
     15 C3         -0.6640    0.6890    5.3590 c1        1 3MS     -0.099000
     16 C9          0.4430    1.3070    2.8800 c1        1 3MS     -0.852000
     17 S32         1.3210    1.5070    1.4320 s4        1 3MS      2.078800
     18 O27         2.7210    1.4710    1.7500 o         1 3MS     -0.533400
     19 O28         0.9990    2.7930    0.8770 o         1 3MS     -0.533400
     20 N23         0.9940    0.4130    0.3290 n1        1 3MS     -0.824000
     21 N21        -0.9630   -0.4030    1.7400 n2        1 3MS     -0.208000
     22 C2         -1.0600   -0.0050    4.2230 c1        1 3MS     -0.109000
     23 C12        -0.0460   -1.8880   -0.2260 c2        1 3MS     -0.253000
     24 C11        -1.5270   -2.0790   -0.2890 c1        1 3MS      0.271000
     25 O31        -2.2540   -2.3100    0.8900 oh        1 3MS     -0.197000
     26 C14         0.6300   -1.6450   -1.6250 c2        1 3MS      0.358000
     27 O26         0.9520   -2.7260   -2.0990 o         1 3MS     -0.340000
     28 N24        -0.2960   -1.2080   -2.7310 n         1 3MS     -0.192000
     29 N22        -1.7190   -1.3200   -2.5680 n3        1 3MS      0.006000
     30 C1         -3.9440   -1.2080   -2.7190 c1        1 3MS     -0.161000
     31 C19         0.2410   -0.5020   -3.8780 c3        1 3MS     -0.055000
     32 C18         1.3500   -1.3640   -4.5470 c3        1 3MS     -0.186000
     33 C16         2.2060   -0.0900   -6.5470 c3        1 3MS     -0.211500
     34 H4         -4.2600   -2.4090   -1.0490 DU        1 3MS      0.171333
     35 H5          1.5810    2.6670    3.9750 ha        1 3MS      0.148000
     36 H6         -2.7090   -0.2210   -4.0920 DU        1 3MS      0.171333
     37 H15         1.0220   -3.2200   -6.4970 hc        1 3MS      0.078333
     38 H15A        1.6960   -2.4030   -7.7010 hc        1 3MS      0.078333
     39 H15B        2.5520   -2.7750   -6.4090 hc        1 3MS      0.078333
     40 H17         0.4140    2.8690    9.3710 h1        1 3MS      0.159333
     41 H17A        1.6360    3.7960    8.9080 h1        1 3MS      0.159333
     42 H17B        0.2260    4.4630    9.3030 h1        1 3MS      0.159333
     43 H20         0.3450   -1.0060   -6.3330 hc        1 3MS      0.084000
     44 HN25        0.2400    1.3060    7.2580 hn        1 3MS      0.257000
     45 H3         -1.0510    0.4720    6.2180 ha        1 3MS      0.178000
     46 HN23        1.5430    0.3100   -0.3660 hn        1 3MS      0.274000
     47 H2         -1.7310   -0.7150    4.2920 ha        1 3MS      0.162000
     48 HO31       -2.4100   -3.1850    0.9760 ho        1 3MS      0.240000
     49 H1         -4.8590   -1.0540   -3.0700 DU        1 3MS      0.171333
     50 H19        -0.4740   -0.3350   -4.5220 h1        1 3MS      0.125500
     51 H19A        0.6230    0.3510   -3.5860 h1        1 3MS      0.125500
     52 H18         2.2360   -1.0570   -4.2400 hc        1 3MS      0.093000
     53 H18A        1.2250   -2.3150   -4.2970 hc        1 3MS      0.093000
     54 H16         2.5430   -0.2960   -7.4540 hc        1 3MS      0.078333
     55 H16A        2.9590   -0.0180   -5.9280 hc        1 3MS      0.078333
     56 H16B        1.7130    0.7640   -6.5660 hc        1 3MS      0.078333
@<TRIPOS>BOND
     1    1    6 1   
     2    1   30 1   
     3    2   16 1   
     4    2   35 1   
     5    3   29 1   
     6    3   30 1   
     7    4   21 1   
     8    4   22 1   
     9    5   14 1   
    10    5   15 1   
    11    6   29 1   
    12    7   21 1   
    13    7   23 1   
    14    8   10 1   
    15    8   37 1   
    16    8   38 1   
    17    8   39 1   
    18    9   12 1   
    19    9   40 1   
    20    9   41 1   
    21    9   42 1   
    22   10   32 1   
    23   10   33 1   
    24   10   43 1   
    25   11   12 1   
    26   12   13 1   
    27   14   44 1   
    28   15   45 1   
    29   16   17 1   
    30   17   18 1   
    31   17   19 1   
    32   20   46 1   
    33   22   47 1   
    34   23   24 1   
    35   23   26 1   
    36   24   25 1   
    37   25   48 1   
    38   26   27 1   
    39   26   28 1   
    40   28   29 1   
    41   28   31 1   
    42   31   32 1   
    43   31   50 1   
    44   31   51 1   
    45   32   52 1   
    46   32   53 1   
    47   33   54 1   
    48   33   55 1   
    49   33   56 1   
@<TRIPOS>SUBSTRUCTURE
     1 3MS         1 TEMP              0 ****  ****    0 ROOT
