@<TRIPOS>MOLECULE
3MS
   56    59     1     0     0
SMALL
bcc


@<TRIPOS>ATOM
      1 C4          4.2210    3.5330   -0.3830 cc        1 3MS     -0.085000
      2 C5         -3.6640   -0.9690   -0.6160 ca        1 3MS     -0.041000
      3 C6          5.6950    2.0950    0.6260 cd        1 3MS     -0.111300
      4 C7         -1.9000    0.6360   -0.1450 ca        1 3MS      0.265400
      5 C8         -4.6520   -0.0040   -0.3810 ca        1 3MS      0.117600
      6 C10         3.5400    2.3320   -0.0800 cd        1 3MS     -0.183100
      7 C13         0.4200    0.1300   -0.1070 ce        1 3MS      0.807500
      8 C15         8.1540   -1.6410    1.2000 c3        1 3MS     -0.093100
      9 C17        -7.0370   -0.6010    1.8840 c3        1 3MS     -0.374300
     10 C20         6.9380   -2.3000    0.5830 c3        1 3MS     -0.064700
     11 O30        -8.4440   -0.2500   -0.1840 o         1 3MS     -0.649800
     12 S33        -7.2500    0.2070    0.4080 s6        1 3MS      1.470900
     13 O29        -7.1430    1.5890    0.6490 o         1 3MS     -0.649800
     14 C3         -4.2390    1.3100   -0.0370 ca        1 3MS     -0.095000
     15 C9         -2.3000   -0.6690   -0.5100 ca        1 3MS     -0.416500
     16 S32        -1.2220   -1.9100   -0.8450 sy        1 3MS      1.524200
     17 O27        -1.4720   -3.0180   -0.0260 o         1 3MS     -0.641800
     18 O28        -1.2140   -2.1890   -2.2160 o         1 3MS     -0.641800
     19 N23         0.2170   -1.2130   -0.4210 nh        1 3MS     -0.836100
     20 N21        -0.5640    1.0120    0.0090 nf        1 3MS     -0.725100
     21 C2         -2.8990    1.6180    0.0850 ca        1 3MS     -0.118000
     22 C12         1.8050    0.6230    0.0850 cc        1 3MS     -0.432800
     23 C11         2.1790    1.9090   -0.2730 cd        1 3MS      0.366900
     24 O31         1.4100    2.8610   -0.8460 oh        1 3MS     -0.467100
     25 C14         2.7950   -0.2670    0.7050 c         1 3MS      0.726700
     26 O26         2.5730   -1.4500    1.0280 o         1 3MS     -0.631500
     27 N24         4.0880    0.2550    1.0770 n         1 3MS     -0.328100
     28 N22         4.4720    1.4420    0.5220 na        1 3MS      0.074300
     29 C1          5.5610    3.3820    0.0550 cc        1 3MS     -0.206000
     30 C19         5.1460   -0.7270    1.3630 c3        1 3MS      0.062000
     31 C18         5.9020   -1.2700    0.1550 c3        1 3MS     -0.107400
     32 C16         7.3500   -3.1400   -0.6100 c3        1 3MS     -0.093100
     33 H4          3.7710    4.3970   -0.8660 ha        1 3MS      0.175000
     34 H5         -3.9510   -2.0000   -0.8970 ha        1 3MS      0.149000
     35 H6          6.5730    1.6210    1.0690 h4        1 3MS      0.183000
     36 H15         8.6440   -0.9550    0.4680 hc        1 3MS      0.037033
     37 H15A        7.8700   -1.0510    2.1040 hc        1 3MS      0.037033
     38 H15B        8.8970   -2.4170    1.5060 hc        1 3MS      0.037033
     39 H17        -7.2000   -1.7050    1.8120 h1        1 3MS      0.120700
     40 H17A       -6.0280   -0.4590    2.3430 h1        1 3MS      0.120700
     41 H17B       -7.7740   -0.2280    2.6420 h1        1 3MS      0.120700
     42 H20         6.4710   -2.9810    1.3510 hc        1 3MS      0.054700
     43 HN25       -6.1870   -1.0020   -1.2240 hn        1 3MS      0.461800
     44 H3         -4.9920    2.1020    0.1420 ha        1 3MS      0.180000
     45 HN23        1.0270   -1.7940   -0.3230 hn        1 3MS      0.486800
     46 H2         -2.6020    2.6420    0.3660 ha        1 3MS      0.159000
     47 HO31        0.4770    2.5720   -0.8830 ho        1 3MS      0.479000
     48 H1          6.3600    4.1130   -0.0290 ha        1 3MS      0.168000
     49 H19         5.8670   -0.2440    2.0830 h1        1 3MS      0.086200
     50 H19A        4.6360   -1.5770    1.9030 h1        1 3MS      0.086200
     51 H18         6.4110   -0.4370   -0.3970 hc        1 3MS      0.054200
     52 H18A        5.1740   -1.7500   -0.5510 hc        1 3MS      0.054200
     53 H16         8.1200   -3.8890   -0.3050 hc        1 3MS      0.037033
     54 H16A        6.4690   -3.6870   -1.0260 hc        1 3MS      0.037033
     55 H16B        7.7800   -2.4950   -1.4130 hc        1 3MS      0.037033
     56 N25        -6.0130   -0.3340   -0.5030 nh        1 3MS     -0.783500
@<TRIPOS>BOND
     1    1    6 2   
     2    1   29 1   
     3    1   33 1   
     4    2    5 ar  
     5    2   15 ar  
     6    2   34 1   
     7    3   28 1   
     8    3   29 2   
     9    3   35 1   
    10    4   15 ar  
    11    4   20 1   
    12    4   21 ar  
    13    5   14 ar  
    14    5   56 1   
    15    6   23 1   
    16    6   28 1   
    17    7   19 1   
    18    7   20 2   
    19    7   22 1   
    20    8   10 1   
    21    8   36 1   
    22    8   37 1   
    23    8   38 1   
    24    9   12 1   
    25    9   39 1   
    26    9   40 1   
    27    9   41 1   
    28   10   31 1   
    29   10   32 1   
    30   10   42 1   
    31   11   12 2   
    32   12   13 2   
    33   12   56 1   
    34   14   21 ar  
    35   14   44 1   
    36   15   16 1   
    37   16   17 2   
    38   16   18 2   
    39   16   19 1   
    40   19   45 1   
    41   21   46 1   
    42   22   23 2   
    43   22   25 1   
    44   23   24 1   
    45   24   47 1   
    46   25   26 2   
    47   25   27 1   
    48   27   28 1   
    49   27   30 1   
    50   29   48 1   
    51   30   31 1   
    52   30   49 1   
    53   30   50 1   
    54   31   51 1   
    55   31   52 1   
    56   32   53 1   
    57   32   54 1   
    58   32   55 1   
    59   43   56 1   
@<TRIPOS>SUBSTRUCTURE
     1 3MS         1 TEMP              0 ****  ****    0 ROOT
