@<TRIPOS>MOLECULE
3MS
   57    60     1     0     0
SMALL
bcc


@<TRIPOS>ATOM
      1 C4          0.0980    0.5070    0.0980 c3        1 3MS     -0.045000
      2 C5          7.4760    2.0880    5.0070 ce        1 3MS     -0.566300
      3 C6          0.9780    0.4380   -2.1340 c1        1 3MS     -0.102900
      4 C7          5.2330    1.1670    4.2280 ce        1 3MS      0.654600
      5 C8          7.1010    1.8210    6.3240 cf        1 3MS      0.347000
      6 C10         1.5950    0.3900    0.1290 cd        1 3MS     -0.272300
      7 C13         4.8730    0.3760    2.0090 cf        1 3MS      0.588600
      8 C15         3.2910   -1.1400   -5.7390 c3        1 3MS     -0.095100
      9 C17        10.0300    2.3050    4.3920 c3        1 3MS     -0.402300
     10 O30         8.8530    4.0420    5.7610 o         1 3MS     -0.656800
     11 S33         8.6570    3.2370    4.6250 sy        1 3MS      1.400900
     12 O29         8.2560    3.8480    3.4270 o         1 3MS     -0.656800
     13 C3          5.7080    1.4220    6.6020 cf        1 3MS     -0.061000
     14 C9          6.6250    1.6160    3.8970 c3        1 3MS     -0.259000
     15 S32         7.4090    0.2980    3.0110 s6        1 3MS      1.422900
     16 O27         8.5830    0.7240    2.4140 o         1 3MS     -0.579300
     17 O28         7.4110   -0.8550    3.7800 o         1 3MS     -0.579300
     18 N23         6.2120    0.1590    1.8140 nh        1 3MS     -0.718900
     19 N21         4.4250    0.6670    3.3130 nf        1 3MS     -0.726300
     20 C2          4.8110    1.2090    5.6230 ce        1 3MS     -0.197600
     21 C12         3.8830    0.2690    0.9790 cc        1 3MS     -0.351200
     22 C11         2.4790    0.3360    1.2300 cc        1 3MS      0.369100
     23 O31         1.8540    0.3300    2.4180 oh        1 3MS     -0.440100
     24 C14         4.3060    0.1080   -0.4290 c         1 3MS      0.724700
     25 O26         5.4710   -0.1050   -0.8030 o         1 3MS     -0.592500
     26 N24         3.3350    0.2400   -1.4780 n         1 3MS     -0.321100
     27 N22         2.0420    0.3360   -1.1940 na        1 3MS      0.265800
     28 C1         -0.1920    0.5440   -1.3720 c2        1 3MS     -0.210300
     29 C19         3.7650    0.0510   -2.8880 c3        1 3MS      0.096000
     30 C18         3.8530   -1.4120   -3.3070 c3        1 3MS     -0.099400
     31 C16         4.8480   -2.9300   -5.0010 c3        1 3MS     -0.095100
     32 H4         -0.3830   -0.3710    0.6060 hc        1 3MS      0.135700
     33 H5          6.5100    2.5240    3.2010 h1        1 3MS      0.197700
     34 H6         -1.2020    0.6410   -1.7740 ha        1 3MS      0.193000
     35 H15         2.9600   -0.0840   -5.5890 hc        1 3MS      0.042200
     36 H15A        2.4020   -1.8070   -5.6340 hc        1 3MS      0.042200
     37 H15B        3.6860   -1.2400   -6.7790 hc        1 3MS      0.042200
     38 H17        10.0600    1.3470    4.9650 h1        1 3MS      0.139367
     39 H17A       10.1940    2.0220    3.3150 h1        1 3MS      0.139367
     40 H17B       10.9580    2.8630    4.6930 h1        1 3MS      0.139367
     41 H20         5.2360   -0.8150   -4.8640 hc        1 3MS      0.050700
     42 HN25        8.8050    2.4420    7.2790 hn        1 3MS      0.463300
     43 H3          3.7490    1.0070    5.8530 ha        1 3MS      0.182000
     44 HN23        6.4970   -0.1140    0.8840 hn        1 3MS      0.514800
     45 H2          5.3880    1.3570    7.6600 ha        1 3MS      0.175000
     46 HO31        2.4860    0.2570    3.1630 ho        1 3MS      0.491000
     47 H1         -0.2480    1.4440    0.6120 hc        1 3MS      0.135700
     48 H19         4.5560   -1.9580   -2.6230 hc        1 3MS      0.058700
     49 H19A        3.0310    0.5970   -3.5520 h1        1 3MS      0.108700
     50 H18         4.7780    0.5410   -2.9570 h1        1 3MS      0.108700
     51 H18A        2.8460   -1.8980   -3.2330 hc        1 3MS      0.058700
     52 H16         4.0200   -3.6630   -4.8520 hc        1 3MS      0.042200
     53 H16A        5.6850   -3.1930   -4.3100 hc        1 3MS      0.042200
     54 H16B        5.2150   -3.0190   -6.0520 hc        1 3MS      0.042200
     55 H252        7.5690    1.8940    8.3070 hn        1 3MS      0.463300
     56 N25         7.9330    1.9630    7.3840 nh        1 3MS     -0.789600
     57 C20         4.3630   -1.5180   -4.7390 c3        1 3MS     -0.061700
@<TRIPOS>BOND
     1    1    6 1   
     2    1   28 1   
     3    1   32 1   
     4    1   47 1   
     5    2    5 2   
     6    2   11 1   
     7    2   14 1   
     8    3   27 2   
     9    3   28 2   
    10    4   14 1   
    11    4   19 2   
    12    4   20 1   
    13    5   13 1   
    14    5   56 1   
    15    6   22 2   
    16    6   27 1   
    17    7   18 1   
    18    7   19 1   
    19    7   21 2   
    20    8   35 1   
    21    8   36 1   
    22    8   37 1   
    23    8   57 1   
    24    9   11 1   
    25    9   38 1   
    26    9   39 1   
    27    9   40 1   
    28   10   11 2   
    29   11   12 2   
    30   13   20 2   
    31   13   45 1   
    32   14   15 1   
    33   14   33 1   
    34   15   16 2   
    35   15   17 2   
    36   15   18 1   
    37   18   44 1   
    38   20   43 1   
    39   21   22 1   
    40   21   24 1   
    41   22   23 1   
    42   23   46 1   
    43   24   25 2   
    44   24   26 1   
    45   26   27 1   
    46   26   29 1   
    47   28   34 1   
    48   29   30 1   
    49   29   49 1   
    50   29   50 1   
    51   30   48 1   
    52   30   51 1   
    53   30   57 1   
    54   31   52 1   
    55   31   53 1   
    56   31   54 1   
    57   31   57 1   
    58   41   57 1   
    59   42   56 1   
    60   55   56 1   
@<TRIPOS>SUBSTRUCTURE
     1 3MS         1 TEMP              0 ****  ****    0 ROOT
