@<TRIPOS>MOLECULE
3MS
   56    56     1     0     0
SMALL
bcc


@<TRIPOS>ATOM
      1 C4         -1.0170    0.1690    0.9630 c3        1 3MS      0.019000
      2 C5          6.9270    0.8500    4.8240 c1        1 3MS     -0.202000
      3 C6         -2.9180   -0.2670   -0.7950 c1        1 3MS     -0.186000
      4 C7          4.8780    1.7160    3.7530 c3        1 3MS      0.125000
      5 C8          7.9430    1.1920    5.3660 c1        1 3MS      0.009000
      6 C10         0.3880    0.1290    0.4290 c2        1 3MS     -0.137000
      7 C13         3.9260    0.5440    1.8820 c2        1 3MS      0.239000
      8 C15         5.2660   -0.1430   -4.9310 c3        1 3MS     -0.201500
      9 C17        10.5210    1.1150    3.7410 c3        1 3MS     -0.975000
     10 C20         5.7260   -0.9730   -3.7470 c3        1 3MS     -0.206000
     11 O30        11.4980    2.1160    5.8560 o         1 3MS     -0.921500
     12 S33        10.3610    2.1850    5.0310 s6        1 3MS      2.826000
     13 O29        10.0210    3.4520    4.5420 o         1 3MS     -0.921500
     14 C3          6.3820    3.7200    2.9060 c1        1 3MS     -0.133000
     15 C9          5.7510    0.4820    4.1180 c3        1 3MS     -0.618000
     16 S32         6.2590   -0.5330    2.7560 s6        1 3MS      2.788000
     17 O27         7.5190   -0.1540    2.2740 o         1 3MS     -0.913500
     18 O28         6.1550   -1.8620    3.1920 o         1 3MS     -0.913500
     19 N23         5.0960   -0.2100    1.6610 n7        1 3MS     -0.856000
     20 N21         3.7830    1.4070    2.8550 n2        1 3MS     -0.281000
     21 C2          5.7120    2.7990    3.2720 c1        1 3MS     -0.219000
     22 C12         2.7740    0.3120    0.9690 c2        1 3MS     -0.269000
     23 C11         1.4610    0.3750    1.3960 c2        1 3MS      0.206000
     24 O31         1.0140    0.6240    2.6490 oh        1 3MS     -0.230000
     25 C14         3.0310    0.0560   -0.4520 c2        1 3MS      0.340000
     26 O26         4.1600   -0.0000   -0.9850 o         1 3MS     -0.389000
     27 N24         1.8880   -0.1430   -1.2860 n         1 3MS     -0.205000
     28 N22         0.6450   -0.1080   -0.8520 n2        1 3MS      0.052000
     29 C1         -2.0430   -0.0700   -0.0040 c1        1 3MS     -0.171000
     30 C19         2.1270   -0.3610   -2.7140 c3        1 3MS     -0.088000
     31 C18         4.8290   -2.0830   -3.4900 c1        1 3MS     -0.064000
     32 C16         7.1980   -1.3070   -3.8630 c3        1 3MS     -0.201500
     33 H4         -1.0860   -0.5980    1.7890 hc        1 3MS      0.123000
     34 H5          5.1210   -0.1620    4.8070 h1        1 3MS      0.177000
     35 H6         -3.6950   -0.4420   -1.4960 ha        1 3MS      0.225000
     36 H15         4.1820    0.1070   -4.8250 hc        1 3MS      0.077333
     37 H15A        5.4130   -0.7080   -5.8820 hc        1 3MS      0.077333
     38 H15B        5.8550    0.8040   -4.9850 hc        1 3MS      0.077333
     39 H17         9.5580    0.8160    3.2410 h1        1 3MS      0.177000
     40 H17A       11.1400    1.5680    2.9230 h1        1 3MS      0.177000
     41 H17B       11.0280    0.1570    4.0200 h1        1 3MS      0.177000
     42 H20         5.5600   -0.3490   -2.7980 hc        1 3MS      0.177000
     43 HN25        9.1960    1.3500    6.8860 hn        1 3MS      0.268000
     44 H3          6.9980    4.5270    2.5920 ha        1 3MS      0.236000
     45 HN23        5.1890   -0.5480    0.7220 hn        1 3MS      0.286000
     46 H2          4.3800    2.0710    4.7130 h1        1 3MS      0.141000
     47 HO31        1.7510    0.8860    3.2310 ho        1 3MS      0.270000
     48 H1         -1.1690    1.1830    1.4380 hc        1 3MS      0.123000
     49 H19         2.9530   -1.1250   -2.8340 h1        1 3MS      0.120000
     50 H19A        1.1990   -0.7260   -3.2250 h1        1 3MS      0.120000
     51 H18         2.4550    0.6090   -3.1710 h1        1 3MS      0.120000
     52 H18A        5.2910   -2.9990   -3.0900 ha        1 3MS      0.039000
     53 H16         7.5380   -1.8960   -2.9780 hc        1 3MS      0.077333
     54 H16A        7.8070   -0.3730   -3.9220 hc        1 3MS      0.077333
     55 H16B        7.3900   -1.9090   -4.7840 hc        1 3MS      0.077333
     56 N25         9.1130    1.5320    5.9080 n7        1 3MS     -0.723000
@<TRIPOS>BOND
     1    1    6 1   
     2    1   29 1   
     3    1   33 1   
     4    1   48 1   
     5    2    5 1   
     6    2   15 1   
     7    3   29 1   
     8    3   35 1   
     9    4   15 1   
    10    4   20 1   
    11    4   21 1   
    12    4   46 1   
    13    5   56 1   
    14    6   23 1   
    15    6   28 1   
    16    7   19 1   
    17    7   20 1   
    18    7   22 1   
    19    8   10 1   
    20    8   36 1   
    21    8   37 1   
    22    8   38 1   
    23    9   12 1   
    24    9   39 1   
    25    9   40 1   
    26    9   41 1   
    27   10   31 1   
    28   10   32 1   
    29   10   42 1   
    30   11   12 1   
    31   12   13 1   
    32   12   56 1   
    33   14   21 1   
    34   14   44 1   
    35   15   16 1   
    36   15   34 1   
    37   16   17 1   
    38   16   18 1   
    39   16   19 1   
    40   19   45 1   
    41   22   23 1   
    42   22   25 1   
    43   23   24 1   
    44   24   47 1   
    45   25   26 1   
    46   25   27 1   
    47   27   28 1   
    48   27   30 1   
    49   30   49 1   
    50   30   50 1   
    51   30   51 1   
    52   31   52 1   
    53   32   53 1   
    54   32   54 1   
    55   32   55 1   
    56   43   56 1   
@<TRIPOS>SUBSTRUCTURE
     1 3MS         1 TEMP              0 ****  ****    0 ROOT
