@<TRIPOS>MOLECULE
3MT
   12    12     1     0     0
SMALL
bcc


@<TRIPOS>ATOM
      1 C1         -0.0600    0.0000   -0.0230 c3        1 3MT     -0.017400
      2 N7          1.3820   -0.0000    0.0380 na        1 3MT      0.030900
      3 C5          2.1090   -0.0030    1.2280 cc        1 3MT     -0.070300
      4 C11         3.4770   -0.0010    0.9930 cd        1 3MT     -0.219100
      5 S10         3.8200    0.0050   -0.6310 ss        1 3MT      0.397200
      6 C8          2.2200    0.0050   -1.0400 cc        1 3MT     -0.147400
      7 H11A       -0.4550   -0.9000    0.5240 h1        1 3MT      0.102367
      8 H12        -0.4510    0.9370    0.4630 h1        1 3MT      0.102367
      9 H13        -0.3960   -0.0350   -1.0940 h1        1 3MT      0.102367
     10 H5          1.5860   -0.0070    2.1980 h4        1 3MT      0.236000
     11 H11         4.2280   -0.0030    1.7920 h4        1 3MT      0.240000
     12 H8          1.8150    0.0080   -2.0660 h5        1 3MT      0.243000
@<TRIPOS>BOND
     1    1    2 1   
     2    1    7 1   
     3    1    8 1   
     4    1    9 1   
     5    2    3 1   
     6    2    6 2   
     7    3    4 2   
     8    3   10 1   
     9    4    5 1   
    10    4   11 1   
    11    5    6 1   
    12    6   12 1   
@<TRIPOS>SUBSTRUCTURE
     1 3MT         1 TEMP              0 ****  ****    0 ROOT
