@<TRIPOS>MOLECULE
3MT
   12    12     1     0     0
SMALL
bcc


@<TRIPOS>ATOM
      1 C1          2.4490    0.1980    0.0040 c3        1 3MT     -0.017400
      2 N7          1.0190    0.0040   -0.0130 na        1 3MT      0.030900
      3 C5          0.4010   -1.2450    0.0440 cc        1 3MT     -0.069300
      4 C11        -0.9830   -1.1330    0.0260 cd        1 3MT     -0.220100
      5 S10        -1.4700    0.4510   -0.0560 ss        1 3MT      0.398200
      6 C8          0.0870    1.0010   -0.0690 cc        1 3MT     -0.148400
      7 H11A        2.6940    1.2490   -0.3060 h1        1 3MT      0.102367
      8 H12         2.8360    0.0130    1.0440 h1        1 3MT      0.102367
      9 H13         2.9290   -0.5250   -0.7110 h1        1 3MT      0.102367
     10 H5          1.0070   -2.1630    0.0930 h4        1 3MT      0.236000
     11 H11        -1.6590   -1.9960    0.0630 h4        1 3MT      0.240000
     12 H8          0.3990    2.0580   -0.1180 h5        1 3MT      0.243000
@<TRIPOS>BOND
     1    1    2 1   
     2    1    7 1   
     3    1    8 1   
     4    1    9 1   
     5    2    3 1   
     6    2    6 2   
     7    3    4 2   
     8    3   10 1   
     9    4    5 1   
    10    4   11 1   
    11    5    6 1   
    12    6   12 1   
@<TRIPOS>SUBSTRUCTURE
     1 3MT         1 TEMP              0 ****  ****    0 ROOT
