@<TRIPOS>MOLECULE
3MT
   12    12     1     0     0
SMALL
bcc


@<TRIPOS>ATOM
      1 C1         -0.0600    0.0030   -0.0230 c3        1 3MT     -0.017400
      2 N7          1.3820    0.0010    0.0390 na        1 3MT      0.030900
      3 C5          2.1090    0.0320    1.2270 cc        1 3MT     -0.070300
      4 C11         3.4770    0.0130    0.9920 cd        1 3MT     -0.220100
      5 S10         3.8200   -0.0410   -0.6310 ss        1 3MT      0.397200
      6 C8          2.2200   -0.0410   -1.0390 cc        1 3MT     -0.148400
      7 H11A       -0.4500   -0.9730    0.3800 h1        1 3MT      0.102367
      8 H12        -0.4570    0.8520    0.6000 h1        1 3MT      0.102367
      9 H13        -0.3960    0.1300   -1.0870 h1        1 3MT      0.102367
     10 H5          1.5880    0.0680    2.1970 h4        1 3MT      0.236000
     11 H11         4.2280    0.0320    1.7910 h4        1 3MT      0.240000
     12 H8          1.8140   -0.0700   -2.0640 h5        1 3MT      0.243000
@<TRIPOS>BOND
     1    1    2 1   
     2    1    7 1   
     3    1    8 1   
     4    1    9 1   
     5    2    3 1   
     6    2    6 2   
     7    3    4 2   
     8    3   10 1   
     9    4    5 1   
    10    4   11 1   
    11    5    6 1   
    12    6   12 1   
@<TRIPOS>SUBSTRUCTURE
     1 3MT         1 TEMP              0 ****  ****    0 ROOT
