@<TRIPOS>MOLECULE
3MT
   12     9     1     0     0
SMALL
bcc


@<TRIPOS>ATOM
      1 C1         -1.7490   -0.0000   -0.1500 c3        1 3MT      0.160100
      2 N7         -0.3260   -0.0000   -0.1500 n3        1 3MT     -0.250000
      3 C5          0.5930   -0.0000    1.1230 c1        1 3MT      0.013800
      4 C11         1.9690    0.0000    0.6890 c1        1 3MT     -0.268900
      5 S10         1.9790    0.0000   -0.8350 ss        1 3MT      0.493800
      6 C8          0.5100    0.0000   -1.3090 c1        1 3MT     -0.174900
      7 H11A       -2.0750    0.7970   -0.6100 h1        1 3MT      0.102367
      8 H12        -2.0750   -0.0000    0.7700 h1        1 3MT      0.102367
      9 H13        -2.0750   -0.7970   -0.6110 h1        1 3MT      0.102367
     10 H5          0.2860   -0.0000    2.0500 DU        1 3MT      0.239667
     11 H11         2.7550    0.0000    1.2690 DU        1 3MT      0.239667
     12 H8          0.2060    0.0000   -2.2360 DU        1 3MT      0.239667
@<TRIPOS>BOND
     1    1    2 1   
     2    1    7 1   
     3    1    8 1   
     4    1    9 1   
     5    2    3 1   
     6    2    6 3   
     7    3    4 3   
     8    4    5 1   
     9    5    6 1   
@<TRIPOS>SUBSTRUCTURE
     1 3MT         1 TEMP              0 ****  ****    0 ROOT
