@<TRIPOS>MOLECULE
3MU
   35    36     1     0     0
SMALL
bcc


@<TRIPOS>ATOM
      1 P           3.6750   -1.1190    0.3480 p5        1 3MU      1.313900
      2 N1         -1.7760    0.1100   -0.3100 n         1 3MU     -0.371000
      3 C2         -3.1800    0.1960   -0.4480 c         1 3MU      0.793500
      4 O2         -3.7470    1.2490   -0.8280 o         1 3MU     -0.675500
      5 N3         -3.9690   -0.9420   -0.1440 n         1 3MU     -0.502400
      6 C4         -3.3800   -2.1920    0.1770 c         1 3MU      0.721700
      7 O4         -4.1280   -3.1620    0.4200 o         1 3MU     -0.682500
      8 C5         -1.9270   -2.2300    0.1860 cc        1 3MU     -0.380200
      9 C6         -1.1800   -1.1150   -0.0620 cd        1 3MU      0.089600
     10 C1'        -0.9890    1.3150   -0.6230 c3        1 3MU      0.269500
     11 C10        -5.3950   -0.7960   -0.2390 c3        1 3MU      0.088300
     12 C2'        -0.8620    2.3410    0.5580 c3        1 3MU      0.091100
     13 O2'        -1.5950    3.5110    0.2880 oh        1 3MU     -0.591800
     14 C3'         0.6660    2.5790    0.6820 c3        1 3MU      0.083100
     15 O3'         0.9960    3.8090    0.0520 oh        1 3MU     -0.632800
     16 C4'         1.2830    1.3500    0.0030 c3        1 3MU      0.020100
     17 O4'         0.3280    0.9690   -1.0160 os        1 3MU     -0.390600
     18 C5'         1.5660    0.2400    1.0430 c3        1 3MU      0.226400
     19 O5'         1.9110   -0.9420    0.4600 os        1 3MU     -0.553200
     20 OP1         4.0390   -1.1270    1.8040 o         1 3MU     -0.920833
     21 OP2         3.8380   -2.3880   -0.4270 o         1 3MU     -0.920833
     22 H5         -1.4510   -3.1950    0.4010 ha        1 3MU      0.182000
     23 H6         -0.0490   -1.1450   -0.0830 h4        1 3MU      0.287000
     24 H1'        -1.4830    1.8070   -1.5140 h2        1 3MU      0.079700
     25 H10        -5.7010   -0.6810   -1.3140 h1        1 3MU      0.043367
     26 H10A       -5.8910   -1.7030    0.1960 h1        1 3MU      0.043367
     27 H10B       -5.7210    0.1220    0.3180 h1        1 3MU      0.043367
     28 H2'        -1.2830    1.9400    1.5160 h1        1 3MU      0.086700
     29 HO2'       -1.0840    4.0330   -0.3450 ho        1 3MU      0.408000
     30 H3'         0.9790    2.6790    1.7530 h1        1 3MU      0.083700
     31 HO3'        1.4990    3.5950   -0.7440 ho        1 3MU      0.418000
     32 H4'         2.2480    1.5210   -0.5710 h1        1 3MU      0.183700
     33 H5'         2.3930    0.6200    1.7110 h1        1 3MU     -0.005800
     34 H5'A        0.6220    0.1080    1.6590 h1        1 3MU     -0.005800
     35 O9          3.9390    0.1870   -0.3620 o         1 3MU     -0.920833
@<TRIPOS>BOND
     1    1   19 1   
     2    1   20 1   
     3    1   21 1   
     4    1   35 1   
     5    2    3 1   
     6    2    9 1   
     7    2   10 1   
     8    3    4 2   
     9    3    5 1   
    10    5    6 1   
    11    5   11 1   
    12    6    7 2   
    13    6    8 1   
    14    8    9 2   
    15    8   22 1   
    16    9   23 1   
    17   10   12 1   
    18   10   17 1   
    19   10   24 1   
    20   11   25 1   
    21   11   26 1   
    22   11   27 1   
    23   12   13 1   
    24   12   14 1   
    25   12   28 1   
    26   13   29 1   
    27   14   15 1   
    28   14   16 1   
    29   14   30 1   
    30   15   31 1   
    31   16   17 1   
    32   16   18 1   
    33   16   32 1   
    34   18   19 1   
    35   18   33 1   
    36   18   34 1   
@<TRIPOS>SUBSTRUCTURE
     1 3MU         1 TEMP              0 ****  ****    0 ROOT
