@<TRIPOS>MOLECULE
3MU
   35    35     1     0     0
SMALL
bcc


@<TRIPOS>ATOM
      1 P          -4.1550   -2.9460   -2.6180 p3        1 3MU      2.533000
      2 N1          0.6540    1.2060    0.4900 n         1 3MU     -0.260000
      3 C2          1.9070    1.8630    0.9200 c2        1 3MU      0.388000
      4 O2          2.9730    1.5830    0.3590 o         1 3MU     -0.419000
      5 N3          1.8700    2.9290    1.9320 n         1 3MU     -0.332000
      6 C4          0.6160    3.3520    2.4830 c2        1 3MU      0.358000
      7 O4          0.5940    4.1080    3.4290 o         1 3MU     -0.415000
      8 C5         -0.6460    2.7930    1.9530 c2        1 3MU     -0.353000
      9 C6         -0.6050    1.6910    0.9630 c2        1 3MU      0.073000
     10 C1'         0.6950    0.2120   -0.4920 c3        1 3MU      0.122000
     11 C10         3.0940    3.5000    2.4170 c3        1 3MU     -0.066000
     12 C2'         1.1190   -0.9250    0.0290 c3        1 3MU     -0.002000
     13 O2'         2.5630   -1.0660   -0.1750 oh        1 3MU     -0.347000
     14 C3'         0.3480   -2.0380   -0.7520 c3        1 3MU     -0.039000
     15 O3'         1.1480   -2.6530   -1.5690 oh        1 3MU     -0.393000
     16 C4'        -0.7790   -1.2910   -1.5530 c3        1 3MU     -0.048000
     17 O4'        -0.8050   -0.0790   -1.0600 os        1 3MU     -0.294000
     18 C5'        -2.1290   -1.9860   -1.3370 c3        1 3MU      0.076000
     19 O5'        -2.7280   -2.2620   -2.5960 o         1 3MU     -0.730000
     20 OP1        -4.6620   -3.0750   -1.2350 o         1 3MU     -1.244000
     21 OP2        -4.0480   -4.2890   -3.2310 o         1 3MU     -1.244000
     22 H5         -1.5330    3.1260    2.3030 ha        1 3MU      0.188000
     23 H6         -1.4440    1.2710    0.6540 h4        1 3MU      0.304000
     24 H1'         1.3060    0.4970   -1.2520 h2        1 3MU      0.144000
     25 H10         3.4850    2.9060    3.0950 h1        1 3MU      0.080333
     26 H10A        3.7290    3.6060    1.6680 h1        1 3MU      0.080333
     27 H10B        2.9050    4.3990    2.8270 h1        1 3MU      0.080333
     28 H2'         0.8950   -0.9680    1.0170 h1        1 3MU      0.115000
     29 HO2'        2.8860   -1.6470    0.4020 ho        1 3MU      0.222000
     30 H3'        -0.0650   -2.6980   -0.1030 h1        1 3MU      0.208000
     31 HO3'        1.1620   -3.4990   -1.3780 ho        1 3MU      0.294000
     32 H4'        -0.5470   -1.2650   -2.5460 h1        1 3MU      0.088000
     33 H5'        -2.7340   -1.3860   -0.8030 h1        1 3MU      0.038000
     34 H5'A       -1.9850   -2.8520   -0.8350 h1        1 3MU      0.038000
     35 O9         -5.0840   -2.1210   -3.4030 o         1 3MU     -1.244000
@<TRIPOS>BOND
     1    1   20 1   
     2    1   21 1   
     3    1   35 1   
     4    2    3 1   
     5    2    9 1   
     6    2   10 1   
     7    3    4 1   
     8    3    5 1   
     9    5    6 1   
    10    5   11 1   
    11    6    7 1   
    12    6    8 1   
    13    8    9 1   
    14    8   22 1   
    15    9   23 1   
    16   10   12 1   
    17   10   17 1   
    18   10   24 1   
    19   11   25 1   
    20   11   26 1   
    21   11   27 1   
    22   12   13 1   
    23   12   14 1   
    24   12   28 1   
    25   13   29 1   
    26   14   15 1   
    27   14   16 1   
    28   14   30 1   
    29   15   31 1   
    30   16   17 1   
    31   16   18 1   
    32   16   32 1   
    33   18   19 1   
    34   18   33 1   
    35   18   34 1   
@<TRIPOS>SUBSTRUCTURE
     1 3MU         1 TEMP              0 ****  ****    0 ROOT
