@<TRIPOS>MOLECULE
3MV
   35    34     1     0     0
SMALL
bcc


@<TRIPOS>ATOM
      1 CAA         0.4260    0.7900   -0.2500 c3        1 3MV     -0.092100
      2 CAF         1.7740    0.1510   -0.0380 c3        1 3MV     -0.076400
      3 CAI         2.1090   -0.0380    1.4350 c3        1 3MV     -0.068700
      4 CAC         1.1470   -1.0040    2.0960 c3        1 3MV     -0.089100
      5 CAH         3.5460   -0.5310    1.5790 c3        1 3MV     -0.074400
      6 CAK         4.1290   -0.2650    2.9650 c3        1 3MV     -0.057700
      7 CAG         4.8090   -1.5190    3.5030 c3        1 3MV     -0.076400
      8 CAB         6.0370   -1.9310    2.7320 c3        1 3MV     -0.093100
      9 CAJ         5.0700    0.9440    2.9590 c3        1 3MV     -0.062700
     10 CAE         4.3430    2.2010    2.5220 c3        1 3MV     -0.091600
     11 CAD         5.6890    1.1720    4.3250 c3        1 3MV     -0.091600
     12 H1          0.3510    1.7520    0.3110 hc        1 3MV      0.032700
     13 H2          0.2670    1.0000   -1.3360 hc        1 3MV      0.032700
     14 H3         -0.3930    0.1160    0.0990 hc        1 3MV      0.032700
     15 H4          2.5630    0.7980   -0.5080 hc        1 3MV      0.037700
     16 H5          1.8080   -0.8430   -0.5560 hc        1 3MV      0.037700
     17 H6          2.0180    0.9630    1.9470 hc        1 3MV      0.049700
     18 H7          1.0970   -1.9620    1.5250 hc        1 3MV      0.033033
     19 H8          0.1220   -0.5640    2.1400 hc        1 3MV      0.033033
     20 H9          1.4800   -1.2320    3.1380 hc        1 3MV      0.033033
     21 H10         4.1910   -0.0410    0.8020 hc        1 3MV      0.041700
     22 H11         3.5640   -1.6320    1.3610 hc        1 3MV      0.041700
     23 H12         3.2830   -0.0260    3.6730 hc        1 3MV      0.047700
     24 H13         4.0620   -2.3580    3.4830 hc        1 3MV      0.037700
     25 H14         5.0830   -1.3550    4.5790 hc        1 3MV      0.037700
     26 H15         6.8630   -1.1930    2.8760 hc        1 3MV      0.033033
     27 H16         6.3950   -2.9290    3.0850 hc        1 3MV      0.033033
     28 H17         5.8160   -2.0010    1.6400 hc        1 3MV      0.033033
     29 H18         5.8980    0.7390    2.2230 hc        1 3MV      0.046700
     30 H19         3.4950    2.4230    3.2130 hc        1 3MV      0.033200
     31 H20         5.0430    3.0720    2.5290 hc        1 3MV      0.033200
     32 H21         3.9370    2.0850    1.4880 hc        1 3MV      0.033200
     33 H22         4.9010    1.1960    5.1150 hc        1 3MV      0.033200
     34 H23         6.2370    2.1460    4.3420 hc        1 3MV      0.033200
     35 H24         6.4150    0.3600    4.5700 hc        1 3MV      0.033200
@<TRIPOS>BOND
     1    1    2 1   
     2    1   12 1   
     3    1   13 1   
     4    1   14 1   
     5    2    3 1   
     6    2   15 1   
     7    2   16 1   
     8    3    4 1   
     9    3    5 1   
    10    3   17 1   
    11    4   18 1   
    12    4   19 1   
    13    4   20 1   
    14    5    6 1   
    15    5   21 1   
    16    5   22 1   
    17    6    7 1   
    18    6    9 1   
    19    6   23 1   
    20    7    8 1   
    21    7   24 1   
    22    7   25 1   
    23    8   26 1   
    24    8   27 1   
    25    8   28 1   
    26    9   10 1   
    27    9   11 1   
    28    9   29 1   
    29   10   30 1   
    30   10   31 1   
    31   10   32 1   
    32   11   33 1   
    33   11   34 1   
    34   11   35 1   
@<TRIPOS>SUBSTRUCTURE
     1 3MV         1 TEMP              0 ****  ****    0 ROOT
