@<TRIPOS>MOLECULE
3MX
   44    44     1     0     0
SMALL
bcc


@<TRIPOS>ATOM
      1 C1         -0.0200    0.0200    0.0630 c         1 3MX      0.579700
      2 C3          1.4580    0.0350   -0.0540 ca        1 3MX     -0.139600
      3 C4          2.2130    0.0460    1.1270 ca        1 3MX     -0.140000
      4 C5          3.6080    0.0610    1.0610 ca        1 3MX      0.094600
      5 C6          4.2660    0.0650   -0.1830 ca        1 3MX      0.048100
      6 C7          3.4960    0.0540   -1.3630 ca        1 3MX      0.094600
      7 C8          2.0960    0.0390   -1.2970 ca        1 3MX     -0.140000
      8 O9          4.4230    0.0720    2.1740 oh        1 3MX     -0.503100
      9 O10         5.6340    0.0800   -0.3250 oh        1 3MX     -0.509100
     10 O11         4.0640    0.0580   -2.6140 oh        1 3MX     -0.503100
     11 O12        -0.5710    0.0090    1.1710 o         1 3MX     -0.535100
     12 C13        -0.8030    0.0190   -1.2190 c3        1 3MX     -0.175400
     13 C14        -2.2980    0.0110   -0.9820 c3        1 3MX     -0.075400
     14 C15        -3.0560    0.0090   -2.2910 c3        1 3MX     -0.079400
     15 C16        -4.5510    0.0020   -2.0550 c3        1 3MX     -0.078400
     16 C17        -5.3130    0.0010   -3.3630 c3        1 3MX     -0.079400
     17 C18        -6.8080   -0.0060   -3.1280 c3        1 3MX     -0.079400
     18 C19        -7.5700   -0.0070   -4.4350 c3        1 3MX     -0.079400
     19 C20        -9.0660   -0.0130   -4.2010 c3        1 3MX     -0.080400
     20 C21        -9.8290   -0.0150   -5.5000 c3        1 3MX     -0.092100
     21 H1          1.6970    0.0420    2.1000 ha        1 3MX      0.160500
     22 H2          1.5300    0.0310   -2.2400 ha        1 3MX      0.160500
     23 H3          3.8530    0.0670    2.9580 ho        1 3MX      0.439000
     24 H4          6.0250    0.0850    0.5630 ho        1 3MX      0.451000
     25 H5          5.0280    0.0680   -2.5070 ho        1 3MX      0.439000
     26 H6         -0.5080   -0.8850   -1.8170 hc        1 3MX      0.069700
     27 H7         -0.5170    0.9290   -1.8130 hc        1 3MX      0.069700
     28 H8         -2.5740   -0.8920   -0.3760 hc        1 3MX      0.055200
     29 H9         -2.5840    0.9090   -0.3730 hc        1 3MX      0.055200
     30 H10        -2.7750    0.9150   -2.8920 hc        1 3MX      0.038700
     31 H11        -2.7660   -0.8910   -2.8950 hc        1 3MX      0.038700
     32 H12        -4.8320   -0.9030   -1.4550 hc        1 3MX      0.042700
     33 H13        -4.8410    0.9020   -1.4520 hc        1 3MX      0.042700
     34 H14        -5.0230   -0.8990   -3.9670 hc        1 3MX      0.039700
     35 H15        -5.0310    0.9060   -3.9640 hc        1 3MX      0.039700
     36 H16        -7.0900   -0.9100   -2.5270 hc        1 3MX      0.039700
     37 H17        -7.2890    0.8970   -5.0360 hc        1 3MX      0.039700
     38 H18        -9.3460   -0.9180   -3.5980 hc        1 3MX      0.038700
     39 H19        -9.3530    0.8870   -3.5960 hc        1 3MX      0.038700
     40 H20        -9.5750   -0.9180   -6.1060 hc        1 3MX      0.032700
     41 H21        -9.5820    0.8910   -6.1040 hc        1 3MX      0.032700
     42 H22       -10.9290   -0.0200   -5.3050 hc        1 3MX      0.032700
     43 H23        -7.0980    0.8950   -2.5240 hc        1 3MX      0.039700
     44 H24        -7.2810   -0.9080   -5.0390 hc        1 3MX      0.039700
@<TRIPOS>BOND
     1    1    2 1   
     2    1   11 2   
     3    1   12 1   
     4    2    3 ar  
     5    2    7 ar  
     6    3    4 ar  
     7    3   21 1   
     8    4    5 ar  
     9    4    8 1   
    10    5    6 ar  
    11    5    9 1   
    12    6    7 ar  
    13    6   10 1   
    14    7   22 1   
    15    8   23 1   
    16    9   24 1   
    17   10   25 1   
    18   12   13 1   
    19   12   26 1   
    20   12   27 1   
    21   13   14 1   
    22   13   28 1   
    23   13   29 1   
    24   14   15 1   
    25   14   30 1   
    26   14   31 1   
    27   15   16 1   
    28   15   32 1   
    29   15   33 1   
    30   16   17 1   
    31   16   34 1   
    32   16   35 1   
    33   17   18 1   
    34   17   36 1   
    35   17   43 1   
    36   18   19 1   
    37   18   37 1   
    38   18   44 1   
    39   19   20 1   
    40   19   38 1   
    41   19   39 1   
    42   20   40 1   
    43   20   41 1   
    44   20   42 1   
@<TRIPOS>SUBSTRUCTURE
     1 3MX         1 TEMP              0 ****  ****    0 ROOT
