@<TRIPOS>MOLECULE
3MY
   23    23     1     0     0
SMALL
bcc


@<TRIPOS>ATOM
      1 OBD         4.0540   -1.2280   -0.0740 oh        1 3MY     -0.508100
      2 CZ          2.7350   -0.8810    0.1320 ca        1 3MY      0.102100
      3 CE2         2.2720    0.4410    0.2180 ca        1 3MY     -0.065600
      4 CD2         0.9160    0.6960    0.4380 ca        1 3MY     -0.096000
      5 CL          3.3540    1.7560    0.0520 cl        1 3MY     -0.133400
      6 CE1         1.8290   -1.9460    0.2660 ca        1 3MY     -0.160000
      7 CD1         0.4830   -1.6800    0.4880 ca        1 3MY     -0.082000
      8 CG          0.0120   -0.3610    0.5800 ca        1 3MY     -0.058300
      9 CB         -1.4270   -0.0850    0.8350 c3        1 3MY     -0.032100
     10 CA         -2.2980   -0.2290   -0.4180 c3        1 3MY      0.019500
     11 C          -3.6560    0.5060   -0.1480 c         1 3MY      0.887600
     12 O          -4.7250   -0.1210   -0.3940 o         1 3MY     -0.839300
     13 N          -2.4420   -1.6130   -0.8530 n3        1 3MY     -0.890800
     14 OXT        -3.5990    1.6910    0.2810 o         1 3MY     -0.839300
     15 HBD         4.5590   -0.4110   -0.1980 ho        1 3MY      0.417000
     16 HE1         2.2010   -2.9760    0.1870 ha        1 3MY      0.139000
     17 HD2         0.5520    1.7340    0.4940 ha        1 3MY      0.155000
     18 HD1        -0.2330   -2.5120    0.5740 ha        1 3MY      0.151000
     19 HB1C       -1.8000   -0.7720    1.6410 hc        1 3MY      0.061200
     20 HB2C       -1.5620    0.9710    1.2010 hc        1 3MY      0.061200
     21 HA         -1.7970    0.3300   -1.2600 h1        1 3MY      0.046700
     22 HN1        -2.9070   -2.1240   -0.1230 hn        1 3MY      0.331300
     23 HN2        -3.0730   -1.6120   -1.6370 hn        1 3MY      0.331300
@<TRIPOS>BOND
     1    1    2 1   
     2    1   15 1   
     3    2    3 ar  
     4    2    6 ar  
     5    3    4 ar  
     6    3    5 1   
     7    4    8 ar  
     8    4   17 1   
     9    6    7 ar  
    10    6   16 1   
    11    7    8 ar  
    12    7   18 1   
    13    8    9 1   
    14    9   10 1   
    15    9   19 1   
    16    9   20 1   
    17   10   11 1   
    18   10   13 1   
    19   10   21 1   
    20   11   12 1   
    21   11   14 1   
    22   13   22 1   
    23   13   23 1   
@<TRIPOS>SUBSTRUCTURE
     1 3MY         1 TEMP              0 ****  ****    0 ROOT
