@<TRIPOS>MOLECULE
3MY
   23    21     1     0     0
SMALL
bcc


@<TRIPOS>ATOM
      1 OBD        -4.4240    0.5570   -0.1120 oh        1 3MY     -0.254000
      2 CZ         -3.0000    0.5230   -0.1050 c2        1 3MY      0.053000
      3 CE2        -2.2980    0.5150    1.1210 c2        1 3MY     -0.090000
      4 CD2        -0.9160    0.4940    1.1270 c1        1 3MY     -0.103000
      5 CL         -3.1840    0.6620    2.6450 cl        1 3MY     -0.031000
      6 CE1        -2.2890    0.5100   -1.3230 c1        1 3MY     -0.213000
      7 CD1        -0.8850    0.4880   -1.3140 c1        1 3MY     -0.078000
      8 CG         -0.1980    0.4800   -0.0990 c1        1 3MY     -0.050000
      9 CB          1.3300    0.5280   -0.0800 c3        1 3MY     -0.118000
     10 CA          1.8790   -0.8680    0.1790 c3        1 3MY     -0.128000
     11 C           3.0310   -0.7750    1.0600 c2        1 3MY      0.308000
     12 O           3.1380   -1.5340    1.9990 o         1 3MY     -0.574000
     13 N           2.2820   -1.4780   -1.0810 n3        1 3MY     -0.323000
     14 OXT         3.9590    0.0410    0.7980 o         1 3MY     -0.574000
     15 HBD        -4.7040    1.3380   -0.4730 ho        1 3MY      0.208000
     16 HE1        -2.7730    0.6660   -2.1760 ha        1 3MY      0.121000
     17 HD2        -0.4050    0.4880    2.0230 ha        1 3MY      0.155000
     18 HD1        -0.3730    0.4790   -2.1810 ha        1 3MY      0.150000
     19 HB1C        1.6800    0.8730   -1.0030 hc        1 3MY      0.101000
     20 HB2C        1.6370    1.1530    0.6570 hc        1 3MY      0.101000
     21 HA          1.1800   -1.4220    0.6060 h1        1 3MY      0.086000
     22 HN1         3.1590   -1.2790   -1.2490 hn        1 3MY      0.126500
     23 HN2         2.1740   -2.4410   -1.0210 hn        1 3MY      0.126500
@<TRIPOS>BOND
     1    1    2 1   
     2    1   15 1   
     3    2    3 1   
     4    2    6 1   
     5    3    4 1   
     6    3    5 1   
     7    4   17 1   
     8    6   16 1   
     9    7    8 1   
    10    7   18 1   
    11    8    9 1   
    12    9   10 1   
    13    9   19 1   
    14    9   20 1   
    15   10   11 1   
    16   10   13 1   
    17   10   21 1   
    18   11   12 1   
    19   11   14 1   
    20   13   22 1   
    21   13   23 1   
@<TRIPOS>SUBSTRUCTURE
     1 3MY         1 TEMP              0 ****  ****    0 ROOT
