@<TRIPOS>MOLECULE
3MZ
   41    41     1     0     0
SMALL
bcc


@<TRIPOS>ATOM
      1 C4         -0.2340    1.4620    1.5470 ca        1 3MZ     -0.222000
      2 C13         6.6680   -0.2300   -0.6270 c3        1 3MZ     -0.078400
      3 C15         8.9210   -0.6060   -1.6430 c3        1 3MZ     -0.079400
      4 C17        11.1740   -0.9800   -2.6610 c3        1 3MZ     -0.080400
      5 C2          2.0610    0.7160    1.1740 ca        1 3MZ     -0.210600
      6 C11         4.4180    0.1460    0.3810 c3        1 3MZ     -0.168400
      7 C12         5.7300    0.7870   -0.0150 c3        1 3MZ     -0.075400
      8 C16        10.2310    0.0340   -2.0490 c3        1 3MZ     -0.079400
      9 C18        12.4790   -0.3470   -3.0670 c3        1 3MZ     -0.092100
     10 C1          3.4800    1.1170    1.0330 c         1 3MZ      0.593700
     11 C3          1.1190    1.7330    1.4060 ca        1 3MZ     -0.041000
     12 C5         -0.6810    0.1360    1.4650 ca        1 3MZ      0.109100
     13 C6          0.2330   -0.9040    1.2440 ca        1 3MZ     -0.000900
     14 C7          1.6090   -0.6150    1.0970 ca        1 3MZ      0.182100
     15 O8          2.5150   -1.6210    0.8850 oh        1 3MZ     -0.493100
     16 O9         -0.1290   -2.2330    1.1500 oh        1 3MZ     -0.516100
     17 O10        -2.0020   -0.2300    1.5940 oh        1 3MZ     -0.511100
     18 C14         7.9790    0.4100   -1.0320 c3        1 3MZ     -0.078400
     19 O19         3.8560    2.2280    1.4330 o         1 3MZ     -0.548100
     20 H1         -0.9520    2.2750    1.7240 ha        1 3MZ      0.144000
     21 H2          6.1850   -0.6980   -1.5250 hc        1 3MZ      0.038200
     22 H3          6.8640   -1.0540    0.1100 hc        1 3MZ      0.038200
     23 H4          8.4370   -1.0750   -2.5400 hc        1 3MZ      0.038700
     24 H5          9.1170   -1.4280   -0.9060 hc        1 3MZ      0.038700
     25 H6         11.3670   -1.8030   -1.9230 hc        1 3MZ      0.037700
     26 H7         10.6870   -1.4490   -3.5570 hc        1 3MZ      0.037700
     27 H8          4.6030   -0.6950    1.1060 hc        1 3MZ      0.077700
     28 H9          3.9170   -0.3010   -0.5180 hc        1 3MZ      0.077700
     29 H10         6.2050    1.2550    0.8880 hc        1 3MZ      0.052200
     30 H11         5.5360    1.6160   -0.7460 hc        1 3MZ      0.052200
     31 H12        10.7140    0.5030   -1.1520 hc        1 3MZ      0.039700
     32 H13        10.0350    0.8570   -2.7860 hc        1 3MZ      0.039700
     33 H14        12.9910    0.1040   -2.1820 hc        1 3MZ      0.032367
     34 H15        12.3090    0.4590   -3.8210 hc        1 3MZ      0.032367
     35 H16        13.1590   -1.1110   -3.5150 hc        1 3MZ      0.032367
     36 H17         1.4840    2.7720    1.4820 ha        1 3MZ      0.164000
     37 H18         2.0440   -2.4700    0.9030 ho        1 3MZ      0.446000
     38 H19        -1.0790   -2.2920    1.3330 ho        1 3MZ      0.448000
     39 H20        -2.5180    0.5720    1.7630 ho        1 3MZ      0.437000
     40 H21         8.4620    0.8780   -0.1340 hc        1 3MZ      0.041200
     41 H22         7.7840    1.2330   -1.7690 hc        1 3MZ      0.041200
@<TRIPOS>BOND
     1    1   11 ar  
     2    1   12 ar  
     3    1   20 1   
     4    2    7 1   
     5    2   18 1   
     6    2   21 1   
     7    2   22 1   
     8    3    8 1   
     9    3   18 1   
    10    3   23 1   
    11    3   24 1   
    12    4    8 1   
    13    4    9 1   
    14    4   25 1   
    15    4   26 1   
    16    5   10 1   
    17    5   11 ar  
    18    5   14 ar  
    19    6    7 1   
    20    6   10 1   
    21    6   27 1   
    22    6   28 1   
    23    7   29 1   
    24    7   30 1   
    25    8   31 1   
    26    8   32 1   
    27    9   33 1   
    28    9   34 1   
    29    9   35 1   
    30   10   19 2   
    31   11   36 1   
    32   12   13 ar  
    33   12   17 1   
    34   13   14 ar  
    35   13   16 1   
    36   14   15 1   
    37   15   37 1   
    38   16   38 1   
    39   17   39 1   
    40   18   40 1   
    41   18   41 1   
@<TRIPOS>SUBSTRUCTURE
     1 3MZ         1 TEMP              0 ****  ****    0 ROOT
