@<TRIPOS>MOLECULE
3N0
   32    32     1     0     0
SMALL
bcc


@<TRIPOS>ATOM
      1 C1         -0.0260   -0.0350   -0.0540 c         1 3N0      0.579700
      2 C2          1.4520    0.0240    0.0530 ca        1 3N0     -0.139600
      3 C3          2.0950    0.1050    1.2900 ca        1 3N0     -0.140000
      4 C4          3.4950    0.1590    1.3480 ca        1 3N0      0.094600
      5 C5          4.2590    0.1320    0.1640 ca        1 3N0      0.048100
      6 C6          3.5950    0.0500   -1.0750 ca        1 3N0      0.094600
      7 C7          2.2010   -0.0040   -1.1310 ca        1 3N0     -0.140000
      8 C11        -0.8020    0.0160    1.2310 c3        1 3N0     -0.175400
      9 C12        -2.2980   -0.0360    1.0030 c3        1 3N0     -0.075400
     10 O8          4.0690    0.2370    2.5930 oh        1 3N0     -0.503100
     11 O9          5.6270    0.1880    0.2960 oh        1 3N0     -0.509100
     12 O10         4.4040    0.0280   -2.1920 oh        1 3N0     -0.503100
     13 C13        -3.0500    0.0150    2.3140 c3        1 3N0     -0.079400
     14 C14        -4.5460   -0.0360    2.0900 c3        1 3N0     -0.079400
     15 C15        -5.3030    0.0150    3.3920 c3        1 3N0     -0.093100
     16 O16        -0.5810   -0.1210   -1.1570 o         1 3N0     -0.535100
     17 H1          1.5340    0.1280    2.2360 ha        1 3N0      0.160500
     18 H2          1.6810   -0.0680   -2.1000 ha        1 3N0      0.160500
     19 H3         -0.5340    0.9620    1.7740 hc        1 3N0      0.069700
     20 H4         -0.4850   -0.8490    1.8730 hc        1 3N0      0.069700
     21 H5         -2.6060    0.8220    0.3490 hc        1 3N0      0.055200
     22 H6         -2.5580   -0.9760    0.4470 hc        1 3N0      0.055200
     23 H7          5.0320    0.2670    2.4800 ho        1 3N0      0.439000
     24 H8          6.0130    0.1600   -0.5930 ho        1 3N0      0.451000
     25 H9          3.8310   -0.0310   -2.9710 ho        1 3N0      0.439000
     26 H10        -2.7380   -0.8450    2.9630 hc        1 3N0      0.038700
     27 H11        -2.7860    0.9570    2.8650 hc        1 3N0      0.038700
     28 H12        -4.8560    0.8240    1.4390 hc        1 3N0      0.040700
     29 H13        -4.8080   -0.9780    1.5380 hc        1 3N0      0.040700
     30 H14        -6.4020   -0.0240    3.2030 hc        1 3N0      0.033033
     31 H15        -5.0730    0.9580    3.9440 hc        1 3N0      0.033033
     32 H16        -5.0260   -0.8480    4.0440 hc        1 3N0      0.033033
@<TRIPOS>BOND
     1    1    2 1   
     2    1    8 1   
     3    1   16 2   
     4    2    3 ar  
     5    2    7 ar  
     6    3    4 ar  
     7    3   17 1   
     8    4    5 ar  
     9    4   10 1   
    10    5    6 ar  
    11    5   11 1   
    12    6    7 ar  
    13    6   12 1   
    14    7   18 1   
    15    8    9 1   
    16    8   19 1   
    17    8   20 1   
    18    9   13 1   
    19    9   21 1   
    20    9   22 1   
    21   10   23 1   
    22   11   24 1   
    23   12   25 1   
    24   13   14 1   
    25   13   26 1   
    26   13   27 1   
    27   14   15 1   
    28   14   28 1   
    29   14   29 1   
    30   15   30 1   
    31   15   31 1   
    32   15   32 1   
@<TRIPOS>SUBSTRUCTURE
     1 3N0         1 TEMP              0 ****  ****    0 ROOT
