@<TRIPOS>MOLECULE
3N1
   23    18     1     0     0
SMALL
bcc


@<TRIPOS>ATOM
      1 CL1        -4.9740   -0.0300   -0.7890 cl        1 3N1     -0.088000
      2 C2         -3.2400    0.0530   -0.9530 c2        1 3N1     -0.087000
      3 C3         -2.4110   -0.0490    0.1700 c2        1 3N1     -0.100000
      4 C5         -1.0370    0.0490    0.0280 c1        1 3N1     -0.061000
      5 C6         -0.4660    0.2560   -1.2680 c1        1 3N1     -0.456000
      6 S7          1.0920    0.3240   -1.1030 s         1 3N1      0.787000
      7 C8          1.4100    0.1410    0.3990 c1        1 3N1     -0.336000
      8 C9          0.1570   -0.0250    1.1000 c1        1 3N1     -0.144000
      9 C10        -0.0590   -0.2170    2.5860 c2        1 3N1     -0.138000
     10 C14         2.8930    0.4370    0.4350 c2        1 3N1     -0.175000
     11 C17         3.6580   -0.7560   -0.0950 c2        1 3N1      0.322000
     12 O18         3.7200   -0.9630   -1.3350 o         1 3N1     -0.518000
     13 O19         4.2510   -1.5280    0.7020 o         1 3N1     -0.518000
     14 C21        -1.2900    0.3570   -2.3790 c1        1 3N1     -0.079000
     15 C23        -2.6770    0.2570   -2.2320 c1        1 3N1     -0.158000
     16 H3         -2.8010   -0.1880    1.0540 ha        1 3N1      0.126000
     17 H10        -0.3510    0.6290    2.9860 ha        1 3N1      0.064667
     18 H10A       -0.7470   -0.9010    2.7300 ha        1 3N1      0.064667
     19 H10B        0.7800   -0.5040    3.0040 ha        1 3N1      0.064667
     20 H14         3.0830    1.2190   -0.1200 ha        1 3N1      0.096000
     21 H14A        3.1680    0.6170    1.3570 ha        1 3N1      0.096000
     22 H21        -0.9010    0.4980   -3.2630 ha        1 3N1      0.117000
     23 H23        -3.2570    0.3260   -3.0140 ha        1 3N1      0.119000
@<TRIPOS>BOND
     1    1    2 1   
     2    2    3 1   
     3    2   15 1   
     4    3    4 1   
     5    3   16 1   
     6    5   14 1   
     7    6    7 1   
     8    7    8 1   
     9    9   17 1   
    10    9   18 1   
    11    9   19 1   
    12   10   11 1   
    13   10   20 1   
    14   10   21 1   
    15   11   12 1   
    16   11   13 1   
    17   14   22 1   
    18   15   23 1   
@<TRIPOS>SUBSTRUCTURE
     1 3N1         1 TEMP              0 ****  ****    0 ROOT
