@<TRIPOS>MOLECULE
3N1
   23    24     1     0     0
SMALL
bcc


@<TRIPOS>ATOM
      1 CL1        -4.5200    1.0330    0.2990 cl        1 3N1     -0.140400
      2 C2         -3.0310    0.2060    0.1480 ca        1 3N1      0.006400
      3 C3         -1.8720    0.9220   -0.1160 ca        1 3N1     -0.094000
      4 C5         -0.6620    0.2240   -0.2410 ca        1 3N1     -0.046800
      5 C6         -0.6400   -1.1940   -0.0930 ca        1 3N1     -0.099100
      6 S7          0.9220   -1.7860   -0.2850 ss        1 3N1     -0.008500
      7 C8          1.6000   -0.2470   -0.5780 cc        1 3N1      0.028400
      8 C9          0.6530    0.7510   -0.5170 cd        1 3N1     -0.116400
      9 C10         0.9330    2.1830   -0.6950 c3        1 3N1     -0.049900
     10 C14         3.0270   -0.1110   -0.8700 c3        1 3N1     -0.173200
     11 C17         3.8410    0.4890    0.3170 c         1 3N1      0.927600
     12 O18         3.9630    1.7440    0.3560 o         1 3N1     -0.825800
     13 O19         4.3610   -0.3200    1.1290 o         1 3N1     -0.825800
     14 C21        -1.8240   -1.8880    0.1790 ca        1 3N1     -0.086000
     15 C23        -3.0170   -1.1940    0.2970 ca        1 3N1     -0.149000
     16 H3         -1.8840    2.0160   -0.2250 ha        1 3N1      0.145000
     17 H10         0.2560    2.8020   -0.0570 hc        1 3N1      0.052700
     18 H10A        2.0010    2.3990   -0.4070 hc        1 3N1      0.052700
     19 H10B        0.7800    2.4810   -1.7630 hc        1 3N1      0.052700
     20 H14         3.4710   -1.1110   -1.1150 hc        1 3N1      0.047200
     21 H14A        3.1660    0.5700   -1.7500 hc        1 3N1      0.047200
     22 H21        -1.8050   -2.9810    0.3010 ha        1 3N1      0.127000
     23 H23        -3.9520   -1.7310    0.5100 ha        1 3N1      0.129000
@<TRIPOS>BOND
     1    1    2 1   
     2    2    3 ar  
     3    2   15 ar  
     4    3    4 ar  
     5    3   16 1   
     6    4    5 ar  
     7    4    8 1   
     8    5    6 1   
     9    5   14 ar  
    10    6    7 1   
    11    7    8 2   
    12    7   10 1   
    13    8    9 1   
    14    9   17 1   
    15    9   18 1   
    16    9   19 1   
    17   10   11 1   
    18   10   20 1   
    19   10   21 1   
    20   11   12 1   
    21   11   13 1   
    22   14   15 ar  
    23   14   22 1   
    24   15   23 1   
@<TRIPOS>SUBSTRUCTURE
     1 3N1         1 TEMP              0 ****  ****    0 ROOT
