@<TRIPOS>MOLECULE
3N1
   23    24     1     0     0
SMALL
bcc


@<TRIPOS>ATOM
      1 CL1        -0.0040    0.1460    0.0890 cl        1 3N1     -0.140400
      2 C2          1.7040    0.0790    0.0800 ca        1 3N1      0.006400
      3 C3          2.3960    0.0490    1.2820 ca        1 3N1     -0.094000
      4 C5          3.7970   -0.0010    1.2520 ca        1 3N1     -0.046800
      5 C6          4.4820   -0.0240    0.0010 ca        1 3N1     -0.099100
      6 S7          6.1460   -0.0860    0.2380 ss        1 3N1     -0.008500
      7 C8          6.0280   -0.0690    1.9410 cc        1 3N1      0.028400
      8 C9          4.7170   -0.0330    2.3640 cd        1 3N1     -0.116400
      9 C10         4.2910   -0.0410    3.7710 c3        1 3N1     -0.049900
     10 C14         7.2360   -0.0720    2.7660 c3        1 3N1     -0.173200
     11 C17         7.4990   -1.4420    3.4620 c         1 3N1      0.927600
     12 O18         6.9940   -1.6150    4.6040 o         1 3N1     -0.825800
     13 O19         8.2360   -2.2640    2.8580 o         1 3N1     -0.825800
     14 C21         3.7570    0.0010   -1.1940 ca        1 3N1     -0.086000
     15 C23         2.3740    0.0540   -1.1600 ca        1 3N1     -0.149000
     16 H3          1.8710    0.0600    2.2480 ha        1 3N1      0.145000
     17 H10         3.3240   -0.5880    3.8890 hc        1 3N1      0.052700
     18 H10A        4.1510    1.0050    4.1420 hc        1 3N1      0.052700
     19 H10B        5.0750   -0.5480    4.4020 hc        1 3N1      0.052700
     20 H14         7.1390    0.7010    3.5730 hc        1 3N1      0.047200
     21 H14A        8.1340    0.1700    2.1420 hc        1 3N1      0.047200
     22 H21         4.2850   -0.0240   -2.1580 ha        1 3N1      0.127000
     23 H23         1.7960    0.0760   -2.0940 ha        1 3N1      0.129000
@<TRIPOS>BOND
     1    1    2 1   
     2    2    3 ar  
     3    2   15 ar  
     4    3    4 ar  
     5    3   16 1   
     6    4    5 ar  
     7    4    8 1   
     8    5    6 1   
     9    5   14 ar  
    10    6    7 1   
    11    7    8 2   
    12    7   10 1   
    13    8    9 1   
    14    9   17 1   
    15    9   18 1   
    16    9   19 1   
    17   10   11 1   
    18   10   20 1   
    19   10   21 1   
    20   11   12 1   
    21   11   13 1   
    22   14   15 ar  
    23   14   22 1   
    24   15   23 1   
@<TRIPOS>SUBSTRUCTURE
     1 3N1         1 TEMP              0 ****  ****    0 ROOT
