@<TRIPOS>MOLECULE
3N1
   23    24     1     0     0
SMALL
bcc


@<TRIPOS>ATOM
      1 Cl1        -0.0320    0.2400    0.1940 cl        1 3N1     -0.140400
      2 C2          1.6740    0.1260    0.1450 ca        1 3N1      0.006400
      3 C3          2.3940    0.1010    1.3300 ca        1 3N1     -0.094000
      4 C5          3.7920    0.0120    1.2680 ca        1 3N1     -0.046800
      5 C6          4.4450   -0.0550    0.0010 ca        1 3N1     -0.099100
      6 S7          6.1120   -0.1580    0.1990 ss        1 3N1     -0.008500
      7 C8          6.0370   -0.1030    1.9030 cc        1 3N1      0.028400
      8 C9          4.7390   -0.0230    2.3570 cd        1 3N1     -0.116400
      9 C10         4.3480    0.0090    3.7740 c3        1 3N1     -0.049900
     10 C14         7.2640   -0.1230    2.6990 c3        1 3N1     -0.173200
     11 C17         7.5080   -1.4850    3.4160 c         1 3N1      0.927600
     12 O18         7.0270   -1.6210    4.5740 o         1 3N1     -0.825800
     13 O19         8.2070   -2.3400    2.8120 o         1 3N1     -0.825800
     14 C21         3.6920   -0.0340   -1.1770 ca        1 3N1     -0.086000
     15 C23         2.3120    0.0580   -1.1100 ca        1 3N1     -0.149000
     16 H3          1.8940    0.1460    2.3080 ha        1 3N1      0.145000
     17 H10         3.3690   -0.5090    3.9270 hc        1 3N1      0.052700
     18 H10A        4.2450    1.0660    4.1260 hc        1 3N1      0.052700
     19 H10B        5.1330   -0.5060    4.3960 hc        1 3N1      0.052700
     20 H14         7.2090    0.6690    3.4910 hc        1 3N1      0.047200
     21 H14A        8.1530    0.0820    2.0470 hc        1 3N1      0.047200
     22 H21         4.1950   -0.0930   -2.1520 ha        1 3N1      0.127000
     23 H23         1.7110    0.0760   -2.0300 ha        1 3N1      0.129000
@<TRIPOS>BOND
     1    1    2 1   
     2    2    3 ar  
     3    2   15 ar  
     4    3    4 ar  
     5    3   16 1   
     6    4    5 ar  
     7    4    8 1   
     8    5    6 1   
     9    5   14 ar  
    10    6    7 1   
    11    7    8 2   
    12    7   10 1   
    13    8    9 1   
    14    9   17 1   
    15    9   18 1   
    16    9   19 1   
    17   10   11 1   
    18   10   20 1   
    19   10   21 1   
    20   11   12 1   
    21   11   13 1   
    22   14   15 ar  
    23   14   22 1   
    24   15   23 1   
@<TRIPOS>SUBSTRUCTURE
     1 3N1         1 TEMP              0 ****  ****    0 ROOT
