@<TRIPOS>MOLECULE
3N2
   20    21     1     0     0
SMALL
bcc


@<TRIPOS>ATOM
      1 CL1         0.0050   -0.1010    0.2560 cl        1 3N2     -0.129400
      2 C2          1.7090   -0.0480    0.1550 ca        1 3N2     -0.009600
      3 C3          2.4740   -0.1120    1.3140 ca        1 3N2     -0.051000
      4 C5          3.8680   -0.0460    1.1880 ca        1 3N2     -0.068800
      5 C6          4.4750    0.0320   -0.0950 ca        1 3N2     -0.060100
      6 S7          6.1620    0.0320    0.0390 ss        1 3N2     -0.082500
      7 C8          6.1270   -0.0370    1.7360 cc        1 3N2     -0.180400
      8 C10         4.8590   -0.0650    2.2520 cd        1 3N2      0.021600
      9 C11         4.5190   -0.0540    3.6820 c3        1 3N2     -0.172200
     10 C14         3.8010   -1.3430    4.1660 c         1 3N2      0.922600
     11 O15         4.5100   -2.2570    4.6640 o         1 3N2     -0.831800
     12 O16         2.5410   -1.3740    4.0750 o         1 3N2     -0.831800
     13 C18         3.6800    0.0860   -1.2440 ca        1 3N2     -0.118000
     14 C20         2.3010    0.0540   -1.1190 ca        1 3N2     -0.128000
     15 H3          2.0330   -0.2570    2.3250 ha        1 3N2      0.224000
     16 H8          7.0470   -0.0670    2.3140 h4        1 3N2      0.164000
     17 H11         5.4480    0.0730    4.2940 hc        1 3N2      0.042200
     18 H11A        3.8320    0.8090    3.8860 hc        1 3N2      0.042200
     19 H18         4.1470    0.1490   -2.2370 ha        1 3N2      0.122000
     20 H20         1.6660    0.0990   -2.0150 ha        1 3N2      0.126000
@<TRIPOS>BOND
     1    1    2 1   
     2    2    3 ar  
     3    2   14 ar  
     4    3    4 ar  
     5    3   15 1   
     6    4    5 ar  
     7    4    8 1   
     8    5    6 1   
     9    5   13 ar  
    10    6    7 1   
    11    7    8 2   
    12    7   16 1   
    13    8    9 1   
    14    9   10 1   
    15    9   17 1   
    16    9   18 1   
    17   10   11 1   
    18   10   12 1   
    19   13   14 ar  
    20   13   19 1   
    21   14   20 1   
@<TRIPOS>SUBSTRUCTURE
     1 3N2         1 TEMP              0 ****  ****    0 ROOT
