@<TRIPOS>MOLECULE
3N2
   20    21     1     0     0
SMALL
bcc


@<TRIPOS>ATOM
      1 CL1        -3.1870    1.9310   -0.1620 cl        1 3N2     -0.129400
      2 C2         -2.1510    0.5750   -0.0810 ca        1 3N2     -0.009600
      3 C3         -0.7870    0.7320   -0.3030 ca        1 3N2     -0.051000
      4 C5          0.0250   -0.4080   -0.2450 ca        1 3N2     -0.068800
      5 C6         -0.5310   -1.6760    0.0800 ca        1 3N2     -0.060100
      6 S7          0.6760   -2.8600    0.1440 ss        1 3N2     -0.082500
      7 C8          1.9090   -1.7690   -0.2730 cc        1 3N2     -0.180400
      8 C10         1.4600   -0.4910   -0.4690 cd        1 3N2      0.021600
      9 C11         2.2820    0.6460   -0.9050 c3        1 3N2     -0.172200
     10 C14         2.3920    1.7820    0.1480 c         1 3N2      0.922600
     11 O15         3.3830    1.7680    0.9240 o         1 3N2     -0.831800
     12 O16         1.5020    2.6800    0.1260 o         1 3N2     -0.831800
     13 C18        -1.9050   -1.8020    0.3070 ca        1 3N2     -0.118000
     14 C20        -2.7140   -0.6810    0.2180 ca        1 3N2     -0.128000
     15 H3         -0.3100    1.7210   -0.4770 ha        1 3N2      0.224000
     16 H8          2.9430   -2.0970   -0.3530 h4        1 3N2      0.164000
     17 H11         3.3190    0.2970   -1.1450 hc        1 3N2      0.042200
     18 H11A        1.8290    1.0890   -1.8310 hc        1 3N2      0.042200
     19 H18        -2.3370   -2.7810    0.5560 ha        1 3N2      0.122000
     20 H20        -3.7960   -0.7680    0.3910 ha        1 3N2      0.126000
@<TRIPOS>BOND
     1    1    2 1   
     2    2    3 ar  
     3    2   14 ar  
     4    3    4 ar  
     5    3   15 1   
     6    4    5 ar  
     7    4    8 1   
     8    5    6 1   
     9    5   13 ar  
    10    6    7 1   
    11    7    8 2   
    12    7   16 1   
    13    8    9 1   
    14    9   10 1   
    15    9   17 1   
    16    9   18 1   
    17   10   11 1   
    18   10   12 1   
    19   13   14 ar  
    20   13   19 1   
    21   14   20 1   
@<TRIPOS>SUBSTRUCTURE
     1 3N2         1 TEMP              0 ****  ****    0 ROOT
