@<TRIPOS>MOLECULE
3N2
   20    15     1     0     0
SMALL
bcc


@<TRIPOS>ATOM
      1 CL1        -3.9690    0.0660   -1.4690 cl        1 3N2     -0.057000
      2 C2         -2.2370    0.2080   -1.6180 c2        1 3N2     -0.079000
      3 C3         -1.5720    0.1750   -0.3870 c2        1 3N2     -0.077000
      4 C5         -0.1880    0.1670   -0.3480 c1        1 3N2     -0.054000
      5 C6          0.5610    0.1930   -1.5670 c1        1 3N2     -0.306000
      6 S7          2.0840    0.1770   -1.1960 s         1 3N2      0.407000
      7 C8          2.1880    0.1390    0.3460 c1        1 3N2     -0.361000
      8 C10         0.8450    0.1320    0.8810 c1        1 3N2     -0.036000
      9 C11         0.7370    0.2710    2.3810 c2        1 3N2     -0.192000
     10 C14         0.7430   -1.1010    3.0160 c2        1 3N2      0.338000
     11 O15         1.8000   -1.7850    3.0260 o         1 3N2     -0.575000
     12 O16        -0.2980   -1.5420    3.5690 o         1 3N2     -0.575000
     13 C18        -0.1000    0.2260   -2.7840 c1        1 3N2     -0.096000
     14 C20        -1.4980    0.2340   -2.8210 c1        1 3N2     -0.141000
     15 H3         -2.0850    0.1460    0.4440 ha        1 3N2      0.156000
     16 H8          3.1440    0.2790    0.4970 DU        1 3N2      0.230000
     17 H11         1.4950    0.7880    2.7160 ha        1 3N2      0.081500
     18 H11A       -0.0980    0.7320    2.6070 ha        1 3N2      0.081500
     19 H18         0.4110    0.2440   -3.6160 ha        1 3N2      0.125000
     20 H20        -1.9630    0.2510   -3.6780 ha        1 3N2      0.129000
@<TRIPOS>BOND
     1    1    2 1   
     2    2    3 1   
     3    2   14 1   
     4    3    4 1   
     5    3   15 1   
     6    5   13 1   
     7    6    7 1   
     8    7    8 1   
     9    9   10 1   
    10    9   17 1   
    11    9   18 1   
    12   10   11 1   
    13   10   12 1   
    14   13   19 1   
    15   14   20 1   
@<TRIPOS>SUBSTRUCTURE
     1 3N2         1 TEMP              0 ****  ****    0 ROOT
