@<TRIPOS>MOLECULE
3N2
   20    21     1     0     0
SMALL
bcc


@<TRIPOS>ATOM
      1 Cl1        -0.0430    0.0200    0.4340 cl        1 3N2     -0.129400
      2 C2          1.6550    0.0150    0.2520 ca        1 3N2     -0.009600
      3 C3          2.4720   -0.0690    1.3740 ca        1 3N2     -0.051000
      4 C5          3.8590   -0.0510    1.1820 ca        1 3N2     -0.068800
      5 C6          4.4080    0.0000   -0.1290 ca        1 3N2     -0.060100
      6 S7          6.0980   -0.0570   -0.0740 ss        1 3N2     -0.082500
      7 C8          6.1410   -0.1160    1.6230 cc        1 3N2     -0.180400
      8 C10         4.8990   -0.0990    2.1990 cd        1 3N2      0.021600
      9 C11         4.6270   -0.0700    3.6430 c3        1 3N2     -0.172200
     10 C14         3.8900   -1.3310    4.1680 c         1 3N2      0.922600
     11 O15         4.5910   -2.2660    4.6380 o         1 3N2     -0.831800
     12 O16         2.6270   -1.3190    4.1370 o         1 3N2     -0.831800
     13 C18         3.5620    0.0750   -1.2390 ca        1 3N2     -0.118000
     14 C20         2.1890    0.0910   -1.0490 ca        1 3N2     -0.128000
     15 H3          2.0750   -0.1940    2.4060 ha        1 3N2      0.224000
     16 H8          7.0860   -0.1740    2.1570 h4        1 3N2      0.164000
     17 H11         5.5880    0.0290    4.2090 hc        1 3N2      0.042200
     18 H11A        3.9800    0.8180    3.8730 hc        1 3N2      0.042200
     19 H18         3.9820    0.1170   -2.2530 ha        1 3N2      0.122000
     20 H20         1.5150    0.1530   -1.9150 ha        1 3N2      0.126000
@<TRIPOS>BOND
     1    1    2 1   
     2    2    3 ar  
     3    2   14 ar  
     4    3    4 ar  
     5    3   15 1   
     6    4    5 ar  
     7    4    8 1   
     8    5    6 1   
     9    5   13 ar  
    10    6    7 1   
    11    7    8 2   
    12    7   16 1   
    13    8    9 1   
    14    9   10 1   
    15    9   17 1   
    16    9   18 1   
    17   10   11 1   
    18   10   12 1   
    19   13   14 ar  
    20   13   19 1   
    21   14   20 1   
@<TRIPOS>SUBSTRUCTURE
     1 3N2         1 TEMP              0 ****  ****    0 ROOT
