@<TRIPOS>MOLECULE
3N3
   36    38     1     0     0
SMALL
bcc


@<TRIPOS>ATOM
      1 N1          1.5150    0.2880    1.1190 n         1 3N3     -0.296000
      2 C2          2.6730    0.7050    0.2800 c3        1 3N3     -0.057300
      3 C4          3.4080   -0.5990   -0.1380 c3        1 3N3     -0.030100
      4 C7          2.4890   -1.6890    0.3070 ca        1 3N3     -0.111300
      5 C8          1.3560   -1.1130    0.9680 ca        1 3N3      0.057600
      6 C9          0.3360   -1.9340    1.4510 ca        1 3N3     -0.155000
      7 C11         0.4680   -3.3200    1.3010 ca        1 3N3     -0.123000
      8 C13         1.5770   -3.8780    0.6760 ca        1 3N3     -0.175000
      9 C15         2.5970   -3.0580    0.1690 ca        1 3N3     -0.109000
     10 C17         2.2860    1.5350   -0.9870 c         1 3N3      0.913600
     11 O18         1.0840    1.9100   -1.0980 o         1 3N3     -0.815300
     12 O19         3.2070    1.7760   -1.8090 o         1 3N3     -0.815300
     13 C21         0.4050    1.1680    1.0920 c         1 3N3      0.789100
     14 O22         0.3700    2.3050    1.5770 o         1 3N3     -0.555000
     15 O23        -0.8050    0.6130    0.6830 os        1 3N3     -0.465900
     16 C24        -1.7020    1.5650    0.0890 c3        1 3N3      0.181700
     17 C27        -2.9610    0.8540   -0.2820 ca        1 3N3     -0.063300
     18 C28        -4.1040    1.6150   -0.5580 ca        1 3N3     -0.121000
     19 C30        -5.2900    0.9880   -0.9340 ca        1 3N3     -0.138500
     20 C32        -5.3470   -0.4020   -1.0340 ca        1 3N3     -0.149000
     21 C34        -4.2110   -1.1630   -0.7600 ca        1 3N3     -0.138500
     22 C36        -3.0210   -0.5400   -0.3870 ca        1 3N3     -0.121000
     23 H2          3.3260    1.3460    0.9300 h1        1 3N3      0.071700
     24 H4          3.5740   -0.6060   -1.2440 hc        1 3N3      0.064700
     25 H4A         4.4000   -0.6720    0.3700 hc        1 3N3      0.064700
     26 H9         -0.5590   -1.4990    1.9180 ha        1 3N3      0.145000
     27 H11        -0.3300   -3.9740    1.6830 ha        1 3N3      0.113000
     28 H13         1.6570   -4.9680    0.5690 ha        1 3N3      0.112000
     29 H15         3.4630   -3.5020   -0.3380 ha        1 3N3      0.121000
     30 H24        -1.9090    2.3840    0.8300 h1        1 3N3      0.083200
     31 H24A       -1.1940    1.9970   -0.8200 h1        1 3N3      0.083200
     32 H28        -4.0600    2.7120   -0.4800 ha        1 3N3      0.144500
     33 H30        -6.1830    1.5920   -1.1520 ha        1 3N3      0.118500
     34 H32        -6.2830   -0.8940   -1.3310 ha        1 3N3      0.115000
     35 H34        -4.2510   -2.2580   -0.8410 ha        1 3N3      0.118500
     36 H36        -2.1180   -1.1340   -0.1720 ha        1 3N3      0.144500
@<TRIPOS>BOND
     1    1    2 1   
     2    1    5 1   
     3    1   13 1   
     4    2    3 1   
     5    2   10 1   
     6    2   23 1   
     7    3    4 1   
     8    3   24 1   
     9    3   25 1   
    10    4    5 ar  
    11    4    9 ar  
    12    5    6 ar  
    13    6    7 ar  
    14    6   26 1   
    15    7    8 ar  
    16    7   27 1   
    17    8    9 ar  
    18    8   28 1   
    19    9   29 1   
    20   10   11 1   
    21   10   12 1   
    22   13   14 2   
    23   13   15 1   
    24   15   16 1   
    25   16   17 1   
    26   16   30 1   
    27   16   31 1   
    28   17   18 ar  
    29   17   22 ar  
    30   18   19 ar  
    31   18   32 1   
    32   19   20 ar  
    33   19   33 1   
    34   20   21 ar  
    35   20   34 1   
    36   21   22 ar  
    37   21   35 1   
    38   22   36 1   
@<TRIPOS>SUBSTRUCTURE
     1 3N3         1 TEMP              0 ****  ****    0 ROOT
