@<TRIPOS>MOLECULE
3N3
   36    38     1     0     0
SMALL
bcc


@<TRIPOS>ATOM
      1 N1          0.1810    0.6880   -0.0560 n         1 3N3     -0.296000
      2 C2          1.2890   -0.3050    0.0160 c3        1 3N3     -0.057300
      3 C4          1.5480   -0.5680    1.5260 c3        1 3N3     -0.030100
      4 C7          0.4180    0.1260    2.2120 ca        1 3N3     -0.111300
      5 C8         -0.4000    0.7810    1.2340 ca        1 3N3      0.057600
      6 C9         -1.5420    1.4780    1.6310 ca        1 3N3     -0.155000
      7 C11        -1.8430    1.5430    2.9970 ca        1 3N3     -0.123000
      8 C13        -1.0380    0.9230    3.9450 ca        1 3N3     -0.175000
      9 C15         0.1010    0.2030    3.5530 ca        1 3N3     -0.109000
     10 C17         0.9980   -1.6510   -0.7240 c         1 3N3      0.913600
     11 O18        -0.0460   -1.7160   -1.4350 o         1 3N3     -0.815300
     12 O19         1.8310   -2.5780   -0.5610 o         1 3N3     -0.815300
     13 C21        -0.6160    0.6160   -1.2260 c         1 3N3      0.789100
     14 O22        -0.2520    0.9120   -2.3700 o         1 3N3     -0.555000
     15 O23        -1.9780    0.4090   -1.0240 os        1 3N3     -0.465900
     16 C24        -2.6280   -0.2500   -2.1230 c3        1 3N3      0.181700
     17 C27        -4.0770   -0.3900   -1.7940 ca        1 3N3     -0.063300
     18 C28        -4.9740   -0.6850   -2.8300 ca        1 3N3     -0.121000
     19 C30        -6.3300   -0.8490   -2.5580 ca        1 3N3     -0.138500
     20 C32        -6.8040   -0.7180   -1.2520 ca        1 3N3     -0.149000
     21 C34        -5.9150   -0.4230   -0.2190 ca        1 3N3     -0.138500
     22 C36        -4.5560   -0.2620   -0.4860 ca        1 3N3     -0.121000
     23 H2          2.1800    0.1730   -0.4690 h1        1 3N3      0.071700
     24 H4          1.5570   -1.6690    1.7250 hc        1 3N3      0.064700
     25 H4A         2.5330   -0.1430    1.8360 hc        1 3N3      0.064700
     26 H9         -2.2010    1.9440    0.8850 ha        1 3N3      0.145000
     27 H11        -2.7390    2.0940    3.3170 ha        1 3N3      0.113000
     28 H13        -1.2950    0.9860    5.0110 ha        1 3N3      0.112000
     29 H15         0.7240   -0.3000    4.3040 ha        1 3N3      0.121000
     30 H24        -2.1410   -1.2580   -2.2560 h1        1 3N3      0.083200
     31 H24A       -2.4860    0.3640   -3.0530 h1        1 3N3      0.083200
     32 H28        -4.6000   -0.7900   -3.8590 ha        1 3N3      0.144500
     33 H30        -7.0280   -1.0840   -3.3740 ha        1 3N3      0.118500
     34 H32        -7.8740   -0.8480   -1.0390 ha        1 3N3      0.115000
     35 H34        -6.2840   -0.3220    0.8120 ha        1 3N3      0.118500
     36 H36        -3.8460   -0.0330    0.3260 ha        1 3N3      0.144500
@<TRIPOS>BOND
     1    1    2 1   
     2    1    5 1   
     3    1   13 1   
     4    2    3 1   
     5    2   10 1   
     6    2   23 1   
     7    3    4 1   
     8    3   24 1   
     9    3   25 1   
    10    4    5 ar  
    11    4    9 ar  
    12    5    6 ar  
    13    6    7 ar  
    14    6   26 1   
    15    7    8 ar  
    16    7   27 1   
    17    8    9 ar  
    18    8   28 1   
    19    9   29 1   
    20   10   11 1   
    21   10   12 1   
    22   13   14 2   
    23   13   15 1   
    24   15   16 1   
    25   16   17 1   
    26   16   30 1   
    27   16   31 1   
    28   17   18 ar  
    29   17   22 ar  
    30   18   19 ar  
    31   18   32 1   
    32   19   20 ar  
    33   19   33 1   
    34   20   21 ar  
    35   20   34 1   
    36   21   22 ar  
    37   21   35 1   
    38   22   36 1   
@<TRIPOS>SUBSTRUCTURE
     1 3N3         1 TEMP              0 ****  ****    0 ROOT
