@<TRIPOS>MOLECULE
3N3
   36    38     1     0     0
SMALL
bcc


@<TRIPOS>ATOM
      1 N1         -0.1610    0.7410    0.0340 n         1 3N3     -0.295000
      2 C2          1.1600    0.0960   -0.2070 c3        1 3N3     -0.058300
      3 C4          1.8390   -0.0600    1.1820 c3        1 3N3     -0.030100
      4 C7          0.7700    0.3230    2.1520 ca        1 3N3     -0.112300
      5 C8         -0.4060    0.7080    1.4310 ca        1 3N3      0.055600
      6 C9         -1.5590    1.0840    2.1230 ca        1 3N3     -0.150000
      7 C11        -1.5210    1.1030    3.5210 ca        1 3N3     -0.122000
      8 C13        -0.3720    0.7480    4.2190 ca        1 3N3     -0.175000
      9 C15         0.7840    0.3490    3.5320 ca        1 3N3     -0.109000
     10 C17         1.0810   -1.2860   -0.9310 c         1 3N3      0.912600
     11 O18        -0.0400   -1.6390   -1.4000 o         1 3N3     -0.814800
     12 O19         2.1440   -1.9530   -1.0040 o         1 3N3     -0.814800
     13 C21        -1.1750    0.3830   -0.8940 c         1 3N3      0.785100
     14 O22        -1.2540    0.7770   -2.0630 o         1 3N3     -0.548000
     15 O23        -2.2690   -0.3000   -0.3670 os        1 3N3     -0.460900
     16 C24        -2.9110   -1.2030   -1.2700 c3        1 3N3      0.194700
     17 C27        -4.3050   -0.7620   -1.5810 ca        1 3N3     -0.077300
     18 C28        -4.9870   -1.3780   -2.6380 ca        1 3N3     -0.121500
     19 C30        -6.3000   -1.0160   -2.9330 ca        1 3N3     -0.138000
     20 C32        -6.9420   -0.0340   -2.1790 ca        1 3N3     -0.150000
     21 C34        -6.2660    0.5860   -1.1290 ca        1 3N3     -0.138000
     22 C36        -4.9540    0.2230   -0.8290 ca        1 3N3     -0.121500
     23 H2          1.7420    0.7970   -0.8620 h1        1 3N3      0.070700
     24 H4          2.1850   -1.1150    1.3230 hc        1 3N3      0.064200
     25 H4A         2.7240    0.6170    1.2650 hc        1 3N3      0.064200
     26 H9         -2.4800    1.3340    1.5780 ha        1 3N3      0.140000
     27 H11        -2.4250    1.4010    4.0730 ha        1 3N3      0.112000
     28 H13        -0.3670    0.7690    5.3170 ha        1 3N3      0.111000
     29 H15         1.6840    0.0540    4.0880 ha        1 3N3      0.121000
     30 H24        -2.3000   -1.3300   -2.2060 h1        1 3N3      0.087700
     31 H24A       -2.9370   -2.1810   -0.7110 h1        1 3N3      0.087700
     32 H28        -4.4770   -2.1460   -3.2390 ha        1 3N3      0.140000
     33 H30        -6.8280   -1.5030   -3.7650 ha        1 3N3      0.117500
     34 H32        -7.9760    0.2520   -2.4140 ha        1 3N3      0.114000
     35 H34        -6.7670    1.3640   -0.5360 ha        1 3N3      0.117500
     36 H36        -4.4110    0.7110   -0.0040 ha        1 3N3      0.140000
@<TRIPOS>BOND
     1    1    2 1   
     2    1    5 1   
     3    1   13 1   
     4    2    3 1   
     5    2   10 1   
     6    2   23 1   
     7    3    4 1   
     8    3   24 1   
     9    3   25 1   
    10    4    5 ar  
    11    4    9 ar  
    12    5    6 ar  
    13    6    7 ar  
    14    6   26 1   
    15    7    8 ar  
    16    7   27 1   
    17    8    9 ar  
    18    8   28 1   
    19    9   29 1   
    20   10   11 1   
    21   10   12 1   
    22   13   14 2   
    23   13   15 1   
    24   15   16 1   
    25   16   17 1   
    26   16   30 1   
    27   16   31 1   
    28   17   18 ar  
    29   17   22 ar  
    30   18   19 ar  
    31   18   32 1   
    32   19   20 ar  
    33   19   33 1   
    34   20   21 ar  
    35   20   34 1   
    36   21   22 ar  
    37   21   35 1   
    38   22   36 1   
@<TRIPOS>SUBSTRUCTURE
     1 3N3         1 TEMP              0 ****  ****    0 ROOT
