@<TRIPOS>MOLECULE
3N3
   36    34     1     0     0
SMALL
bcc


@<TRIPOS>ATOM
      1 N1          0.5970    0.6490    1.2310 n         1 3N3     -0.219000
      2 C2          2.0280    0.7700    1.0990 c3        1 3N3     -0.052000
      3 C4          2.5220    0.7040    2.5050 c3        1 3N3     -0.114000
      4 C7          1.3430    0.6320    3.3920 c2        1 3N3     -0.106000
      5 C8          0.2470    0.8750    2.6440 c2        1 3N3      0.093000
      6 C9         -1.0000    1.0130    3.2560 c1        1 3N3     -0.161000
      7 C11        -1.1140    0.9000    4.6200 c1        1 3N3     -0.148500
      8 C13        -0.0030    0.6530    5.3830 c1        1 3N3     -0.148500
      9 C15         1.2260    0.5170    4.7880 c1        1 3N3     -0.107000
     10 C17         2.5350   -0.3440    0.2260 c2        1 3N3      0.337000
     11 O18         2.0840   -1.5330    0.3850 o         1 3N3     -0.555000
     12 O19         3.5150   -0.1430   -0.5360 o         1 3N3     -0.555000
     13 C21        -0.3390    0.4750    0.1470 c2        1 3N3      0.426000
     14 O22        -1.5410    0.5070    0.3690 o         1 3N3     -0.434000
     15 O23         0.1450    0.3920   -1.2260 os        1 3N3     -0.244000
     16 C24        -0.7990    0.8500   -2.2060 c3        1 3N3      0.035000
     17 C27        -1.1180   -0.2880   -3.1790 c2        1 3N3     -0.104000
     18 C28        -0.1400   -0.7270   -4.0780 c2        1 3N3     -0.089000
     19 C30        -0.4430   -1.7330   -5.0110 c1        1 3N3     -0.128000
     20 C32        -1.7160   -2.2960   -5.0450 c1        1 3N3     -0.148500
     21 C34        -2.7000   -1.8610   -4.1480 c1        1 3N3     -0.148500
     22 C36        -2.4000   -0.8530   -3.2110 c1        1 3N3     -0.138000
     23 H2          2.3940    1.5830    0.6200 h1        1 3N3      0.101000
     24 H4          3.0420    1.5370    2.7120 hc        1 3N3      0.101000
     25 H4A         3.0430   -0.0800    2.6140 hc        1 3N3      0.101000
     26 H9         -1.7610    1.1810    2.7370 ha        1 3N3      0.164000
     27 H11        -1.9890    1.0160    5.0500 ha        1 3N3      0.112000
     28 H13        -0.0860    0.5740    6.3570 ha        1 3N3      0.112000
     29 H15         2.0010    0.3440    5.3230 ha        1 3N3      0.121000
     30 H24        -1.5930    1.1280   -1.7720 h1        1 3N3      0.101500
     31 H24A       -0.4100    1.6150   -2.7080 h1        1 3N3      0.101500
     32 H28         0.7330   -0.2780   -4.1100 ha        1 3N3      0.222000
     33 H30         0.2580   -2.0460   -5.6540 ha        1 3N3      0.137000
     34 H32        -1.9290   -3.0150   -5.7150 ha        1 3N3      0.112000
     35 H34        -3.5820   -2.1580   -4.2470 ha        1 3N3      0.112000
     36 H36        -3.0530   -0.5620   -2.6130 ha        1 3N3      0.113000
@<TRIPOS>BOND
     1    1    2 1   
     2    1    5 1   
     3    1   13 1   
     4    2    3 1   
     5    2   10 1   
     6    2   23 1   
     7    3    4 1   
     8    3   24 1   
     9    3   25 1   
    10    4    5 1   
    11    4    9 1   
    12    5    6 1   
    13    6   26 1   
    14    7    8 1   
    15    7   27 1   
    16    8   28 1   
    17    9   29 1   
    18   10   11 1   
    19   10   12 1   
    20   13   14 1   
    21   13   15 1   
    22   15   16 1   
    23   16   17 1   
    24   16   30 1   
    25   16   31 1   
    26   17   18 1   
    27   17   22 1   
    28   18   19 1   
    29   18   32 1   
    30   19   33 1   
    31   20   21 1   
    32   20   34 1   
    33   21   35 1   
    34   22   36 1   
@<TRIPOS>SUBSTRUCTURE
     1 3N3         1 TEMP              0 ****  ****    0 ROOT
