@<TRIPOS>MOLECULE
3N3
   36    38     1     0     0
SMALL
bcc


@<TRIPOS>ATOM
      1 N1         -0.1650    0.7470    0.0860 n         1 3N3     -0.295000
      2 C2          1.1620    0.1160   -0.1590 c3        1 3N3     -0.058300
      3 C4          1.8240   -0.0820    1.2330 c3        1 3N3     -0.030100
      4 C7          0.7420    0.2640    2.2010 ca        1 3N3     -0.112300
      5 C8         -0.4280    0.6670    1.4780 ca        1 3N3      0.055600
      6 C9         -1.5910    1.0150    2.1670 ca        1 3N3     -0.150000
      7 C11        -1.5710    0.9890    3.5660 ca        1 3N3     -0.122000
      8 C13        -0.4290    0.6160    4.2660 ca        1 3N3     -0.175000
      9 C15         0.7380    0.2450    3.5810 ca        1 3N3     -0.109000
     10 C17         1.0990   -1.2420   -0.9280 c         1 3N3      0.912600
     11 O18        -0.0150   -1.5850   -1.4230 o         1 3N3     -0.814800
     12 O19         2.1660   -1.9020   -1.0090 o         1 3N3     -0.814800
     13 C21        -1.1650    0.4150   -0.8670 c         1 3N3      0.785100
     14 O22        -1.2320    0.8460   -2.0230 o         1 3N3     -0.548000
     15 O23        -2.2630   -0.2890   -0.3760 os        1 3N3     -0.460900
     16 C24        -2.8910   -1.1640   -1.3160 c3        1 3N3      0.194700
     17 C27        -4.2810   -0.7160   -1.6330 ca        1 3N3     -0.077300
     18 C28        -4.9460   -1.2980   -2.7200 ca        1 3N3     -0.121000
     19 C30        -6.2550   -0.9280   -3.0220 ca        1 3N3     -0.138000
     20 C32        -6.9110    0.0270   -2.2450 ca        1 3N3     -0.150000
     21 C34        -6.2510    0.6130   -1.1660 ca        1 3N3     -0.138000
     22 C36        -4.9430    0.2430   -0.8590 ca        1 3N3     -0.121000
     23 H2          1.7480    0.8400   -0.7840 h1        1 3N3      0.070700
     24 H4          2.7050    0.5960    1.3490 hc        1 3N3      0.064200
     25 H4A         2.1740   -1.1390    1.3430 hc        1 3N3      0.064200
     26 H9         -2.5070    1.2780    1.6190 ha        1 3N3      0.140000
     27 H11        -2.4830    1.2640    4.1160 ha        1 3N3      0.112000
     28 H13        -0.4380    0.6010    5.3640 ha        1 3N3      0.111000
     29 H15         1.6320   -0.0640    4.1380 ha        1 3N3      0.121000
     30 H24        -2.9230   -2.1590   -0.7890 h1        1 3N3      0.087700
     31 H24A       -2.2660   -1.2610   -2.2470 h1        1 3N3      0.087700
     32 H28        -4.4250   -2.0440   -3.3380 ha        1 3N3      0.140000
     33 H30        -6.7700   -1.3880   -3.8770 ha        1 3N3      0.117500
     34 H32        -7.9420    0.3190   -2.4860 ha        1 3N3      0.114000
     35 H34        -6.7620    1.3710   -0.5550 ha        1 3N3      0.117500
     36 H36        -4.4130    0.7050   -0.0100 ha        1 3N3      0.140000
@<TRIPOS>BOND
     1    1    2 1   
     2    1    5 1   
     3    1   13 1   
     4    2    3 1   
     5    2   10 1   
     6    2   23 1   
     7    3    4 1   
     8    3   24 1   
     9    3   25 1   
    10    4    5 ar  
    11    4    9 ar  
    12    5    6 ar  
    13    6    7 ar  
    14    6   26 1   
    15    7    8 ar  
    16    7   27 1   
    17    8    9 ar  
    18    8   28 1   
    19    9   29 1   
    20   10   11 1   
    21   10   12 1   
    22   13   14 2   
    23   13   15 1   
    24   15   16 1   
    25   16   17 1   
    26   16   30 1   
    27   16   31 1   
    28   17   18 ar  
    29   17   22 ar  
    30   18   19 ar  
    31   18   32 1   
    32   19   20 ar  
    33   19   33 1   
    34   20   21 ar  
    35   20   34 1   
    36   21   22 ar  
    37   21   35 1   
    38   22   36 1   
@<TRIPOS>SUBSTRUCTURE
     1 3N3         1 TEMP              0 ****  ****    0 ROOT
