@<TRIPOS>MOLECULE
3N4
   26    20     1     0     0
SMALL
bcc


@<TRIPOS>ATOM
      1 S1         -2.4790   -0.0060   -1.9860 ss        1 3N4      0.435000
      2 C2         -0.9160    0.1030   -1.9350 c1        1 3N4     -0.329000
      3 C3         -0.5130   -0.0110   -0.5650 c1        1 3N4     -0.031000
      4 C4          0.8510    0.0640   -0.2260 c1        1 3N4      0.008000
      5 C5          1.8020    0.2470   -1.2170 c1        1 3N4     -0.047000
      6 C6          1.3970    0.3610   -2.5880 c1        1 3N4     -0.141000
      7 C8          0.0390    0.2870   -2.9270 c1        1 3N4     -0.094000
      8 C10         3.1640    0.3150   -0.8790 c1        1 3N4     -0.141000
      9 C12         3.5570    0.1980    0.4510 c1        1 3N4     -0.142500
     10 C14         2.5990    0.0140    1.4500 c1        1 3N4     -0.142500
     11 C16         1.2500   -0.0540    1.1160 c1        1 3N4     -0.102000
     12 C18        -1.8280   -0.2010    0.3360 c1        1 3N4     -0.002000
     13 C19        -2.9820   -0.1950   -0.5350 c1        1 3N4     -0.420000
     14 C21        -2.3080   -0.8430    1.6180 c2        1 3N4     -0.204000
     15 C24        -2.7720    0.2300    2.5770 c2        1 3N4      0.342000
     16 O25        -3.8050    0.9020    2.3170 o         1 3N4     -0.568000
     17 O26        -2.1460    0.4290    3.6500 o         1 3N4     -0.568000
     18 H6          2.0660    0.4990   -3.2840 ha        1 3N4      0.113000
     19 H8         -0.2340    0.3460   -3.8630 ha        1 3N4      0.118000
     20 H10         3.8330    0.4520   -1.5760 ha        1 3N4      0.113000
     21 H12         4.5030    0.2580    0.6870 ha        1 3N4      0.120000
     22 H14         2.8760   -0.0680    2.3820 ha        1 3N4      0.120000
     23 H16         0.5810   -0.1830    1.8150 ha        1 3N4      0.222000
     24 H19        -3.9070   -0.3470   -0.2640 DU        1 3N4      0.178000
     25 H21        -3.0520   -1.4480    1.4220 ha        1 3N4      0.080000
     26 H21A       -1.5760   -1.3490    2.0240 ha        1 3N4      0.080000
@<TRIPOS>BOND
     1    1    2 1   
     2    1   13 1   
     3    2    7 1   
     4    3    4 1   
     5    4   11 1   
     6    5    6 1   
     7    5    8 1   
     8    6   18 1   
     9    7   19 1   
    10    8   20 1   
    11    9   10 1   
    12    9   21 1   
    13   10   22 1   
    14   11   23 1   
    15   12   13 1   
    16   14   15 1   
    17   14   25 1   
    18   14   26 1   
    19   15   16 1   
    20   15   17 1   
@<TRIPOS>SUBSTRUCTURE
     1 3N4         1 TEMP              0 ****  ****    0 ROOT
