@<TRIPOS>MOLECULE
3N4
   26    28     1     0     0
SMALL
bcc


@<TRIPOS>ATOM
      1 S1          2.2380   -2.0920   -0.2700 ss        1 3N4     -0.032500
      2 C2          0.5730   -1.8560   -0.1770 ca        1 3N4     -0.102100
      3 C3          0.2490   -0.5150    0.1310 ca        1 3N4     -0.042800
      4 C4         -1.1260   -0.1210    0.1530 ca        1 3N4      0.008000
      5 C5         -2.1180   -1.1330    0.0380 ca        1 3N4     -0.047000
      6 C6         -1.7410   -2.4900   -0.2050 ca        1 3N4     -0.135000
      7 C8         -0.4270   -2.8390   -0.3430 ca        1 3N4     -0.094000
      8 C10        -3.4880   -0.7840    0.1270 ca        1 3N4     -0.147000
      9 C12        -3.8680    0.5310    0.2740 ca        1 3N4     -0.136000
     10 C14        -2.8890    1.5440    0.3060 ca        1 3N4     -0.149000
     11 C16        -1.5490    1.2310    0.2360 ca        1 3N4     -0.102000
     12 C18         1.4520    0.2570    0.3860 cc        1 3N4      0.005600
     13 C19         2.5780   -0.5050    0.1640 cd        1 3N4     -0.179400
     14 C21         1.5360    1.6280    0.9140 c3        1 3N4     -0.171200
     15 C24         1.6760    2.7150   -0.1850 c         1 3N4      0.922600
     16 O25         0.6500    3.4050   -0.4490 o         1 3N4     -0.833300
     17 O26         2.8080    2.8800   -0.7110 o         1 3N4     -0.833300
     18 H6         -2.5360   -3.2430   -0.2990 ha        1 3N4      0.115000
     19 H8         -0.1320   -3.8730   -0.5700 ha        1 3N4      0.118000
     20 H10        -4.2420   -1.5820    0.0650 ha        1 3N4      0.111000
     21 H12        -4.9310    0.8010    0.3460 ha        1 3N4      0.111000
     22 H14        -3.2020    2.5960    0.3700 ha        1 3N4      0.129000
     23 H16        -0.7950    2.0480    0.1840 ha        1 3N4      0.222000
     24 H19         3.5970   -0.1290    0.2440 h4        1 3N4      0.178000
     25 H21         0.6430    1.8590    1.5490 hc        1 3N4      0.040700
     26 H21A        2.4480    1.7100    1.5640 hc        1 3N4      0.040700
@<TRIPOS>BOND
     1    1    2 1   
     2    1   13 1   
     3    2    3 ar  
     4    2    7 ar  
     5    3    4 ar  
     6    3   12 1   
     7    4    5 ar  
     8    4   11 ar  
     9    5    6 ar  
    10    5    8 ar  
    11    6    7 ar  
    12    6   18 1   
    13    7   19 1   
    14    8    9 ar  
    15    8   20 1   
    16    9   10 ar  
    17    9   21 1   
    18   10   11 ar  
    19   10   22 1   
    20   11   23 1   
    21   12   13 2   
    22   12   14 1   
    23   13   24 1   
    24   14   15 1   
    25   14   25 1   
    26   14   26 1   
    27   15   16 1   
    28   15   17 1   
@<TRIPOS>SUBSTRUCTURE
     1 3N4         1 TEMP              0 ****  ****    0 ROOT
