@<TRIPOS>MOLECULE
3N4
   26    28     1     0     0
SMALL
bcc


@<TRIPOS>ATOM
      1 S1          0.1710   -0.2860   -0.0440 ss        1 3N4     -0.032500
      2 C2          1.8440   -0.1050   -0.0050 ca        1 3N4     -0.102100
      3 C3          2.3420   -0.1030    1.3190 ca        1 3N4     -0.042800
      4 C4          3.7550   -0.0540    1.5290 ca        1 3N4      0.008000
      5 C5          4.5960    0.1680    0.4030 ca        1 3N4     -0.047000
      6 C6          4.0400    0.2290   -0.9120 ca        1 3N4     -0.135000
      7 C8          2.7000    0.0630   -1.1160 ca        1 3N4     -0.094000
      8 C10         5.9950    0.2910    0.5880 ca        1 3N4     -0.147000
      9 C12         6.5530    0.1490    1.8380 ca        1 3N4     -0.136000
     10 C14         5.7300   -0.1530    2.9420 ca        1 3N4     -0.149000
     11 C16         4.3650   -0.2650    2.7930 ca        1 3N4     -0.102000
     12 C18         1.2500   -0.1510    2.2750 cc        1 3N4      0.005600
     13 C19         0.0400   -0.2810    1.6310 cd        1 3N4     -0.179400
     14 C21         1.3370    0.0190    3.7350 c3        1 3N4     -0.171200
     15 C24         1.4160   -1.3190    4.5170 c         1 3N4      0.922600
     16 O25         2.5440   -1.6500    4.9840 o         1 3N4     -0.833300
     17 O26         0.3510   -1.9680    4.6860 o         1 3N4     -0.833300
     18 H6          4.7230    0.3920   -1.7590 ha        1 3N4      0.115000
     19 H8          2.2710    0.0680   -2.1280 ha        1 3N4      0.118000
     20 H10         6.6280    0.4930   -0.2890 ha        1 3N4      0.111000
     21 H12         7.6380    0.2480    1.9810 ha        1 3N4      0.111000
     22 H14         6.1880   -0.3180    3.9280 ha        1 3N4      0.129000
     23 H16         3.7410   -0.5800    3.6590 ha        1 3N4      0.222000
     24 H19        -0.9170   -0.3870    2.1410 h4        1 3N4      0.178000
     25 H21         0.4120    0.5460    4.0930 hc        1 3N4      0.040700
     26 H21A        2.2170    0.6560    4.0040 hc        1 3N4      0.040700
@<TRIPOS>BOND
     1    1    2 1   
     2    1   13 1   
     3    2    3 ar  
     4    2    7 ar  
     5    3    4 ar  
     6    3   12 1   
     7    4    5 ar  
     8    4   11 ar  
     9    5    6 ar  
    10    5    8 ar  
    11    6    7 ar  
    12    6   18 1   
    13    7   19 1   
    14    8    9 ar  
    15    8   20 1   
    16    9   10 ar  
    17    9   21 1   
    18   10   11 ar  
    19   10   22 1   
    20   11   23 1   
    21   12   13 2   
    22   12   14 1   
    23   13   24 1   
    24   14   15 1   
    25   14   25 1   
    26   14   26 1   
    27   15   16 1   
    28   15   17 1   
@<TRIPOS>SUBSTRUCTURE
     1 3N4         1 TEMP              0 ****  ****    0 ROOT
