@<TRIPOS>MOLECULE
3N5
   36    34     1     0     0
SMALL
bcc


@<TRIPOS>ATOM
      1 N1          0.5360    0.6210    1.1150 n         1 3N5     -0.211000
      2 C2          1.9510    0.6130    1.0080 c3        1 3N5     -0.065000
      3 C4          2.4120    0.3160    2.4140 c3        1 3N5     -0.115000
      4 C7          1.2570    0.5080    3.3180 c2        1 3N5     -0.107000
      5 C8          0.1800    0.8620    2.5560 c2        1 3N5      0.075000
      6 C9         -1.0660    1.1030    3.1690 c1        1 3N5     -0.153000
      7 C11        -1.1990    0.9790    4.5700 c1        1 3N5     -0.145250
      8 C13        -0.1080    0.6210    5.3400 c1        1 3N5     -0.145250
      9 C15         1.1200    0.3830    4.7350 c1        1 3N5     -0.109000
     10 C17         2.4180    1.9620    0.4740 c2        1 3N5      0.330000
     11 O18         2.0270    3.0290    1.0240 o         1 3N5     -0.559500
     12 O19         3.2830    2.0100   -0.4900 o         1 3N5     -0.559500
     13 C21        -0.3760    0.4410    0.0600 c2        1 3N5      0.438000
     14 O22        -1.5310    0.4480    0.2770 o         1 3N5     -0.425000
     15 O23         0.1040    0.1340   -1.2590 os        1 3N5     -0.252000
     16 C24        -0.7150    0.5620   -2.2630 c3        1 3N5      0.043000
     17 C27        -1.0220   -0.5960   -3.1940 c2        1 3N5     -0.079000
     18 C28        -2.3100   -1.0840   -3.2920 c2        1 3N5     -0.129000
     19 C30        -2.5900   -2.1650   -4.1540 c1        1 3N5     -0.157000
     20 C32        -1.5500   -2.7490   -4.9200 c1        1 3N5     -0.145250
     21 C34        -0.2650   -2.2610   -4.8220 c1        1 3N5     -0.145250
     22 C36         0.0170   -1.1800   -3.9600 c1        1 3N5     -0.083000
     23 H2          2.3820   -0.0330    0.3300 h1        1 3N5      0.107000
     24 H4          2.7210   -0.6560    2.4700 hc        1 3N5      0.102500
     25 H4A         3.1310    0.9520    2.6640 hc        1 3N5      0.102500
     26 H9         -1.8130    1.3450    2.6420 ha        1 3N5      0.159000
     27 H11        -2.0610    1.1460    4.9950 ha        1 3N5      0.116500
     28 H13        -0.2050    0.5320    6.3690 ha        1 3N5      0.116500
     29 H15         1.8900    0.1270    5.2780 ha        1 3N5      0.121000
     30 H24        -1.5500    0.9060   -1.8790 h1        1 3N5      0.101000
     31 H24A       -0.2600    1.2830   -2.7750 h1        1 3N5      0.101000
     32 H28        -2.9830   -0.7070   -2.7980 ha        1 3N5      0.119000
     33 H30        -3.5210   -2.5180   -4.2250 ha        1 3N5      0.111000
     34 H32        -1.7380   -3.4790   -5.5020 ha        1 3N5      0.116500
     35 H34         0.4580   -2.6680   -5.3570 ha        1 3N5      0.116500
     36 H36         0.9770   -0.7860   -3.9170 ha        1 3N5      0.209000
@<TRIPOS>BOND
     1    1    2 1   
     2    1    5 1   
     3    1   13 1   
     4    2    3 1   
     5    2   10 1   
     6    2   23 1   
     7    3    4 1   
     8    3   24 1   
     9    3   25 1   
    10    4    5 1   
    11    4    9 1   
    12    5    6 1   
    13    6   26 1   
    14    7    8 1   
    15    7   27 1   
    16    8   28 1   
    17    9   29 1   
    18   10   11 1   
    19   10   12 1   
    20   13   14 1   
    21   13   15 1   
    22   15   16 1   
    23   16   17 1   
    24   16   30 1   
    25   16   31 1   
    26   17   18 1   
    27   17   22 1   
    28   18   19 1   
    29   18   32 1   
    30   19   33 1   
    31   20   21 1   
    32   20   34 1   
    33   21   35 1   
    34   22   36 1   
@<TRIPOS>SUBSTRUCTURE
     1 3N5         1 TEMP              0 ****  ****    0 ROOT
