@<TRIPOS>MOLECULE
3N5
   36    38     1     0     0
SMALL
bcc


@<TRIPOS>ATOM
      1 N1         -0.1660   -0.7380    0.0820 n         1 3N5     -0.295000
      2 C2          1.1620   -0.1090   -0.1670 c3        1 3N5     -0.058300
      3 C4          1.8270    0.0890    1.2230 c3        1 3N5     -0.030100
      4 C7          0.7470   -0.2540    2.1940 ca        1 3N5     -0.112300
      5 C8         -0.4250   -0.6560    1.4740 ca        1 3N5      0.055600
      6 C9         -1.5870   -1.0020    2.1660 ca        1 3N5     -0.150000
      7 C11        -1.5640   -0.9740    3.5650 ca        1 3N5     -0.122000
      8 C13        -0.4190   -0.6020    4.2620 ca        1 3N5     -0.175000
      9 C15         0.7460   -0.2340    3.5740 ca        1 3N5     -0.109000
     10 C17         1.0990    1.2490   -0.9380 c         1 3N5      0.912600
     11 O18        -0.0160    1.5920   -1.4300 o         1 3N5     -0.814800
     12 O19         2.1660    1.9070   -1.0220 o         1 3N5     -0.814800
     13 C21        -1.1680   -0.4060   -0.8690 c         1 3N5      0.785100
     14 O22        -1.2380   -0.8370   -2.0250 o         1 3N5     -0.548000
     15 O23        -2.2630    0.3010   -0.3770 os        1 3N5     -0.460900
     16 C24        -2.8910    1.1770   -1.3160 c3        1 3N5      0.194700
     17 C27        -4.2830    0.7320   -1.6280 ca        1 3N5     -0.077300
     18 C28        -4.9500    1.3110   -2.7150 ca        1 3N5     -0.121000
     19 C30        -6.2610    0.9450   -3.0120 ca        1 3N5     -0.138000
     20 C32        -6.9170   -0.0050   -2.2310 ca        1 3N5     -0.150000
     21 C34        -6.2570   -0.5900   -1.1510 ca        1 3N5     -0.138000
     22 C36        -4.9460   -0.2220   -0.8480 ca        1 3N5     -0.121000
     23 H2          1.7460   -0.8350   -0.7920 h1        1 3N5      0.070700
     24 H4          2.1790    1.1470    1.3310 hc        1 3N5      0.064200
     25 H4A         2.7070   -0.5890    1.3380 hc        1 3N5      0.064200
     26 H9         -2.5050   -1.2640    1.6210 ha        1 3N5      0.140000
     27 H11        -2.4750   -1.2470    4.1170 ha        1 3N5      0.112000
     28 H13        -0.4260   -0.5870    5.3600 ha        1 3N5      0.111000
     29 H15         1.6420    0.0750    4.1290 ha        1 3N5      0.121000
     30 H24        -2.9190    2.1720   -0.7900 h1        1 3N5      0.087700
     31 H24A       -2.2690    1.2700   -2.2490 h1        1 3N5      0.087700
     32 H28        -4.4280    2.0530   -3.3380 ha        1 3N5      0.140000
     33 H30        -6.7760    1.4030   -3.8680 ha        1 3N5      0.117500
     34 H32        -7.9500   -0.2950   -2.4680 ha        1 3N5      0.114000
     35 H34        -6.7690   -1.3430   -0.5360 ha        1 3N5      0.117500
     36 H36        -4.4160   -0.6820    0.0000 ha        1 3N5      0.140000
@<TRIPOS>BOND
     1    1    2 1   
     2    1    5 1   
     3    1   13 1   
     4    2    3 1   
     5    2   10 1   
     6    2   23 1   
     7    3    4 1   
     8    3   24 1   
     9    3   25 1   
    10    4    5 ar  
    11    4    9 ar  
    12    5    6 ar  
    13    6    7 ar  
    14    6   26 1   
    15    7    8 ar  
    16    7   27 1   
    17    8    9 ar  
    18    8   28 1   
    19    9   29 1   
    20   10   11 1   
    21   10   12 1   
    22   13   14 2   
    23   13   15 1   
    24   15   16 1   
    25   16   17 1   
    26   16   30 1   
    27   16   31 1   
    28   17   18 ar  
    29   17   22 ar  
    30   18   19 ar  
    31   18   32 1   
    32   19   20 ar  
    33   19   33 1   
    34   20   21 ar  
    35   20   34 1   
    36   21   22 ar  
    37   21   35 1   
    38   22   36 1   
@<TRIPOS>SUBSTRUCTURE
     1 3N5         1 TEMP              0 ****  ****    0 ROOT
