@<TRIPOS>MOLECULE
3N5
   36    38     1     0     0
SMALL
bcc


@<TRIPOS>ATOM
      1 N1         -0.1650   -0.7410    0.0890 n         1 3N5     -0.295000
      2 C2          1.1650   -0.1190   -0.1660 c3        1 3N5     -0.058300
      3 C4          1.8310    0.0920    1.2220 c3        1 3N5     -0.030100
      4 C7          0.7490   -0.2380    2.1960 ca        1 3N5     -0.112300
      5 C8         -0.4240   -0.6430    1.4810 ca        1 3N5      0.055600
      6 C9         -1.5870   -0.9770    2.1760 ca        1 3N5     -0.150000
      7 C11        -1.5640   -0.9350    3.5750 ca        1 3N5     -0.122000
      8 C13        -0.4180   -0.5590    4.2680 ca        1 3N5     -0.175000
      9 C15         0.7490   -0.2030    3.5760 ca        1 3N5     -0.109000
     10 C17         1.1070    1.2310   -0.9510 c         1 3N5      0.912600
     11 O18        -0.0060    1.5730   -1.4470 o         1 3N5     -0.814800
     12 O19         2.1770    1.8840   -1.0420 o         1 3N5     -0.814800
     13 C21        -1.1650   -0.4150   -0.8650 c         1 3N5      0.785100
     14 O22        -1.2370   -0.8590   -2.0160 o         1 3N5     -0.548000
     15 O23        -2.2590    0.3010   -0.3800 os        1 3N5     -0.460900
     16 C24        -2.8830    1.1680   -1.3290 c3        1 3N5      0.194700
     17 C27        -4.2770    0.7250   -1.6360 ca        1 3N5     -0.077300
     18 C28        -4.9420    1.2960   -2.7290 ca        1 3N5     -0.121000
     19 C30        -6.2540    0.9310   -3.0220 ca        1 3N5     -0.138000
     20 C32        -6.9130   -0.0100   -2.2320 ca        1 3N5     -0.150000
     21 C34        -6.2540   -0.5860   -1.1470 ca        1 3N5     -0.138000
     22 C36        -4.9430   -0.2200   -0.8480 ca        1 3N5     -0.121000
     23 H2          1.7460   -0.8530   -0.7830 h1        1 3N5      0.070700
     24 H4          2.1860    1.1490    1.3190 hc        1 3N5      0.064200
     25 H4A         2.7090   -0.5890    1.3440 hc        1 3N5      0.064200
     26 H9         -2.5050   -1.2420    1.6340 ha        1 3N5      0.140000
     27 H11        -2.4750   -1.1990    4.1300 ha        1 3N5      0.112000
     28 H13        -0.4250   -0.5320    5.3660 ha        1 3N5      0.111000
     29 H15         1.6460    0.1090    4.1280 ha        1 3N5      0.121000
     30 H24        -2.2610    1.2500   -2.2620 h1        1 3N5      0.087700
     31 H24A       -2.9080    2.1700   -0.8140 h1        1 3N5      0.087700
     32 H28        -4.4180    2.0310   -3.3580 ha        1 3N5      0.140000
     33 H30        -6.7690    1.3830   -3.8820 ha        1 3N5      0.117500
     34 H32        -7.9470   -0.2990   -2.4660 ha        1 3N5      0.114000
     35 H34        -6.7680   -1.3330   -0.5250 ha        1 3N5      0.117500
     36 H36        -4.4130   -0.6740    0.0050 ha        1 3N5      0.140000
@<TRIPOS>BOND
     1    1    2 1   
     2    1    5 1   
     3    1   13 1   
     4    2    3 1   
     5    2   10 1   
     6    2   23 1   
     7    3    4 1   
     8    3   24 1   
     9    3   25 1   
    10    4    5 ar  
    11    4    9 ar  
    12    5    6 ar  
    13    6    7 ar  
    14    6   26 1   
    15    7    8 ar  
    16    7   27 1   
    17    8    9 ar  
    18    8   28 1   
    19    9   29 1   
    20   10   11 1   
    21   10   12 1   
    22   13   14 2   
    23   13   15 1   
    24   15   16 1   
    25   16   17 1   
    26   16   30 1   
    27   16   31 1   
    28   17   18 ar  
    29   17   22 ar  
    30   18   19 ar  
    31   18   32 1   
    32   19   20 ar  
    33   19   33 1   
    34   20   21 ar  
    35   20   34 1   
    36   21   22 ar  
    37   21   35 1   
    38   22   36 1   
@<TRIPOS>SUBSTRUCTURE
     1 3N5         1 TEMP              0 ****  ****    0 ROOT
