@<TRIPOS>MOLECULE
3N5
   36    38     1     0     0
SMALL
bcc


@<TRIPOS>ATOM
      1 N1          1.5170    0.2990   -1.1090 n         1 3N5     -0.296000
      2 C2          2.6730    0.7110   -0.2650 c3        1 3N5     -0.057300
      3 C4          3.4080   -0.5950    0.1440 c3        1 3N5     -0.030100
      4 C7          2.4930   -1.6830   -0.3110 ca        1 3N5     -0.111300
      5 C8          1.3590   -1.1030   -0.9700 ca        1 3N5      0.057600
      6 C9          0.3420   -1.9230   -1.4610 ca        1 3N5     -0.155000
      7 C11         0.4750   -3.3090   -1.3210 ca        1 3N5     -0.123000
      8 C13         1.5840   -3.8700   -0.6990 ca        1 3N5     -0.175000
      9 C15         2.6010   -3.0530   -0.1840 ca        1 3N5     -0.109000
     10 C17         2.2820    1.5310    1.0070 c         1 3N5      0.913600
     11 O18         1.0790    1.9030    1.1190 o         1 3N5     -0.815300
     12 O19         3.2010    1.7670    1.8330 o         1 3N5     -0.815300
     13 C21         0.4060    1.1770   -1.0780 c         1 3N5      0.789100
     14 O22         0.3700    2.3180   -1.5550 o         1 3N5     -0.555000
     15 O23        -0.8040    0.6170   -0.6760 os        1 3N5     -0.465900
     16 C24        -1.7040    1.5640   -0.0770 c3        1 3N5      0.181700
     17 C27        -2.9620    0.8490    0.2870 ca        1 3N5     -0.063300
     18 C28        -4.1080    1.6060    0.5660 ca        1 3N5     -0.121000
     19 C30        -5.2940    0.9740    0.9340 ca        1 3N5     -0.138500
     20 C32        -5.3480   -0.4160    1.0240 ca        1 3N5     -0.149000
     21 C34        -4.2110   -1.1740    0.7460 ca        1 3N5     -0.138500
     22 C36        -3.0210   -0.5460    0.3800 ca        1 3N5     -0.121000
     23 H2          3.3260    1.3570   -0.9090 h1        1 3N5      0.071700
     24 H4          4.4020   -0.6630   -0.3630 hc        1 3N5      0.064700
     25 H4A         3.5730   -0.6100    1.2510 hc        1 3N5      0.064700
     26 H9         -0.5530   -1.4850   -1.9260 ha        1 3N5      0.145000
     27 H11        -0.3210   -3.9610   -1.7100 ha        1 3N5      0.113000
     28 H13         1.6650   -4.9610   -0.5990 ha        1 3N5      0.112000
     29 H15         3.4680   -3.5000    0.3220 ha        1 3N5      0.121000
     30 H24        -1.1980    1.9890    0.8370 h1        1 3N5      0.083200
     31 H24A       -1.9100    2.3880   -0.8120 h1        1 3N5      0.083200
     32 H28        -4.0640    2.7030    0.4960 ha        1 3N5      0.144500
     33 H30        -6.1870    1.5750    1.1550 ha        1 3N5      0.118500
     34 H32        -6.2840   -0.9130    1.3150 ha        1 3N5      0.115000
     35 H34        -4.2490   -2.2700    0.8190 ha        1 3N5      0.118500
     36 H36        -2.1160   -1.1380    0.1620 ha        1 3N5      0.144500
@<TRIPOS>BOND
     1    1    2 1   
     2    1    5 1   
     3    1   13 1   
     4    2    3 1   
     5    2   10 1   
     6    2   23 1   
     7    3    4 1   
     8    3   24 1   
     9    3   25 1   
    10    4    5 ar  
    11    4    9 ar  
    12    5    6 ar  
    13    6    7 ar  
    14    6   26 1   
    15    7    8 ar  
    16    7   27 1   
    17    8    9 ar  
    18    8   28 1   
    19    9   29 1   
    20   10   11 1   
    21   10   12 1   
    22   13   14 2   
    23   13   15 1   
    24   15   16 1   
    25   16   17 1   
    26   16   30 1   
    27   16   31 1   
    28   17   18 ar  
    29   17   22 ar  
    30   18   19 ar  
    31   18   32 1   
    32   19   20 ar  
    33   19   33 1   
    34   20   21 ar  
    35   20   34 1   
    36   21   22 ar  
    37   21   35 1   
    38   22   36 1   
@<TRIPOS>SUBSTRUCTURE
     1 3N5         1 TEMP              0 ****  ****    0 ROOT
