@<TRIPOS>MOLECULE
3N7
   44    48     1     0     0
SMALL
bcc


@<TRIPOS>ATOM
      1 C1         -0.0570   -0.7060   -0.3370 c3        1 3N7     -0.153400
      2 C2          1.4050   -0.4260   -0.1760 ca        1 3N7      0.485600
      3 C3          1.9840   -0.5880    1.0970 ca        1 3N7     -0.396600
      4 C4          3.3710   -0.3120    1.2240 ca        1 3N7      0.681200
      5 N5          4.0510   -0.5770    2.4420 nu        1 3N7     -0.783600
      6 C6          3.5540   -0.0550    3.6470 cc        1 3N7      0.506200
      7 C7          4.2000   -0.2900    4.9340 cc        1 3N7     -0.303300
      8 C8          3.3720    0.3480    5.8720 cd        1 3N7     -0.050600
      9 N9          2.3160    0.9100    5.1430 na        1 3N7     -0.015600
     10 N10         2.4080    0.6930    3.8330 nd        1 3N7     -0.539800
     11 C12         3.5360    0.4330    7.3170 cx        1 3N7     -0.066400
     12 C13         3.1310    1.6770    8.0720 cx        1 3N7     -0.125900
     13 C14         2.3390    0.4170    8.2360 cx        1 3N7     -0.125900
     14 N15         4.1190    0.1140    0.1590 nb        1 3N7     -0.786000
     15 C16         3.4580    0.2430   -1.0440 ca        1 3N7      0.880900
     16 N17         4.1660    0.7700   -2.1580 nu        1 3N7     -0.697300
     17 C18         5.5760    0.6350   -2.2420 ca        1 3N7      0.089600
     18 C19         6.1400   -0.1360   -3.3000 ca        1 3N7     -0.128000
     19 C20         7.5070   -0.2390   -3.4900 ca        1 3N7     -0.129000
     20 C21         8.3410    0.4440   -2.5970 ca        1 3N7     -0.063200
     21 N22         9.7410    0.5120   -2.4500 na        1 3N7     -0.018100
     22 N24        10.0810    1.3370   -1.4460 nc        1 3N7     -0.515100
     23 C25         8.9600    1.7580   -0.8340 cd        1 3N7      0.351800
     24 C26         7.7850    1.2270   -1.5190 ca        1 3N7     -0.207900
     25 C27         6.4100    1.3220   -1.3450 ca        1 3N7     -0.034000
     26 N28         2.1140   -0.0300   -1.2560 nb        1 3N7     -0.764000
     27 H1         -0.4280   -1.3100    0.5250 hc        1 3N7      0.057700
     28 H1A        -0.6180    0.2620   -0.3680 hc        1 3N7      0.057700
     29 H1B        -0.2630   -1.2630   -1.2840 hc        1 3N7      0.057700
     30 H3          1.3830   -0.9230    1.9500 ha        1 3N7      0.168000
     31 HN5         5.0500   -0.4790    2.3900 hn        1 3N7      0.429800
     32 H7          5.1130   -0.8440    5.1140 ha        1 3N7      0.171000
     33 H12         4.4520   -0.1000    7.6480 hc        1 3N7      0.101700
     34 H13         3.7780    2.0210    8.8990 hc        1 3N7      0.076450
     35 H13A        2.6910    2.5250    7.5190 hc        1 3N7      0.076450
     36 H14         2.4140   -0.1490    9.1820 hc        1 3N7      0.076450
     37 H14A        1.3250    0.3550    7.8040 hc        1 3N7      0.076450
     38 HN17        3.7000    0.6170   -3.0320 hn        1 3N7      0.429800
     39 H19         5.4720   -0.6690   -3.9960 ha        1 3N7      0.134000
     40 H20         7.9200   -0.8410   -4.3100 ha        1 3N7      0.140000
     41 H25         8.9740    2.4020    0.0460 h4        1 3N7      0.055800
     42 H27         5.9960    1.9200   -0.5190 ha        1 3N7      0.161000
     43 HN9         1.5540    1.4310    5.5080 hn        1 3N7      0.322700
     44 HN22       10.4000    0.3250   -3.1700 hn        1 3N7      0.315700
@<TRIPOS>BOND
     1    1    2 1   
     2    1   27 1   
     3    1   28 1   
     4    1   29 1   
     5    2    3 ar  
     6    2   26 ar  
     7    3    4 ar  
     8    3   30 1   
     9    4    5 1   
    10    4   14 ar  
    11    5    6 1   
    12    5   31 1   
    13    6    7 1   
    14    6   10 2   
    15    7    8 2   
    16    7   32 1   
    17    8    9 1   
    18    8   11 1   
    19    9   10 1   
    20    9   43 1   
    21   11   12 1   
    22   11   13 1   
    23   11   33 1   
    24   12   13 1   
    25   12   34 1   
    26   12   35 1   
    27   13   36 1   
    28   13   37 1   
    29   14   15 ar  
    30   15   16 1   
    31   15   26 ar  
    32   16   17 1   
    33   16   38 1   
    34   17   18 ar  
    35   17   25 ar  
    36   18   19 ar  
    37   18   39 1   
    38   19   20 ar  
    39   19   40 1   
    40   20   21 1   
    41   20   24 ar  
    42   21   22 1   
    43   21   44 1   
    44   22   23 2   
    45   23   24 1   
    46   23   41 1   
    47   24   25 ar  
    48   25   42 1   
@<TRIPOS>SUBSTRUCTURE
     1 3N7         1 TEMP              0 ****  ****    0 ROOT
