@<TRIPOS>MOLECULE
3N7
   44    48     1     0     0
SMALL
bcc


@<TRIPOS>ATOM
      1 C1         -0.0620   -0.6810   -0.3390 c3        1 3N7     -0.153400
      2 C2          1.4000   -0.4080   -0.1780 ca        1 3N7      0.485600
      3 C3          1.9800   -0.5770    1.0950 ca        1 3N7     -0.396600
      4 C4          3.3680   -0.3070    1.2230 ca        1 3N7      0.681200
      5 N5          4.0470   -0.5790    2.4390 nh        1 3N7     -0.783600
      6 C6          3.5520   -0.0590    3.6460 cc        1 3N7      0.506200
      7 C7          4.1990   -0.2990    4.9320 cc        1 3N7     -0.303300
      8 C8          3.3740    0.3400    5.8720 cd        1 3N7     -0.050600
      9 N9          2.3190    0.9080    5.1460 na        1 3N7     -0.015600
     10 N10         2.4100    0.6940    3.8350 nd        1 3N7     -0.539800
     11 C12         3.5390    0.4200    7.3170 cx        1 3N7     -0.066400
     12 C13         3.1390    1.6630    8.0760 cx        1 3N7     -0.125900
     13 C14         2.3420    0.4060    8.2370 cx        1 3N7     -0.125900
     14 N15         4.1170    0.1180    0.1580 nb        1 3N7     -0.786000
     15 C16         3.4570    0.2540   -1.0440 ca        1 3N7      0.880900
     16 N17         4.1670    0.7820   -2.1560 nh        1 3N7     -0.697300
     17 C18         5.5760    0.6400   -2.2410 ca        1 3N7      0.089600
     18 C19         6.1370   -0.1300   -3.3020 ca        1 3N7     -0.128000
     19 C20         7.5030   -0.2390   -3.4930 ca        1 3N7     -0.129000
     20 C21         8.3400    0.4380   -2.5980 ca        1 3N7     -0.063200
     21 N22         9.7400    0.5010   -2.4520 na        1 3N7     -0.018100
     22 N24        10.0850    1.3200   -1.4450 nc        1 3N7     -0.515100
     23 C25         8.9660    1.7450   -0.8310 cd        1 3N7      0.351800
     24 C26         7.7880    1.2200   -1.5170 ca        1 3N7     -0.207900
     25 C27         6.4130    1.3210   -1.3420 ca        1 3N7     -0.034000
     26 N28         2.1110   -0.0120   -1.2560 nb        1 3N7     -0.764000
     27 H1         -0.6200    0.2890   -0.3520 hc        1 3N7      0.057700
     28 H1A        -0.4330   -1.2980    0.5150 hc        1 3N7      0.057700
     29 H1B        -0.2740   -1.2220   -1.2940 hc        1 3N7      0.057700
     30 H3          1.3770   -0.9120    1.9460 ha        1 3N7      0.168000
     31 HN5         5.0460   -0.4860    2.3870 hn        1 3N7      0.429800
     32 H7          5.1090   -0.8580    5.1100 ha        1 3N7      0.171000
     33 H12         4.4530   -0.1180    7.6460 hc        1 3N7      0.101700
     34 H13         2.7010    2.5150    7.5260 hc        1 3N7      0.076700
     35 H13A        3.7880    2.0020    8.9030 hc        1 3N7      0.076700
     36 H14         1.3280    0.3480    7.8050 hc        1 3N7      0.076700
     37 H14A        2.4150   -0.1630    9.1820 hc        1 3N7      0.076700
     38 HN17        3.7000    0.6340   -3.0310 hn        1 3N7      0.429800
     39 H19         5.4660   -0.6580   -3.9990 ha        1 3N7      0.134000
     40 H20         7.9130   -0.8400   -4.3150 ha        1 3N7      0.140000
     41 H25         8.9830    2.3850    0.0510 h4        1 3N7      0.055800
     42 H27         6.0020    1.9180   -0.5140 ha        1 3N7      0.161000
     43 HN9         1.5600    1.4310    5.5120 hn        1 3N7      0.322700
     44 HN22       10.3980    0.3130   -3.1720 hn        1 3N7      0.315700
@<TRIPOS>BOND
     1    1    2 1   
     2    1   27 1   
     3    1   28 1   
     4    1   29 1   
     5    2    3 ar  
     6    2   26 ar  
     7    3    4 ar  
     8    3   30 1   
     9    4    5 1   
    10    4   14 ar  
    11    5    6 1   
    12    5   31 1   
    13    6    7 1   
    14    6   10 2   
    15    7    8 2   
    16    7   32 1   
    17    8    9 1   
    18    8   11 1   
    19    9   10 1   
    20    9   43 1   
    21   11   12 1   
    22   11   13 1   
    23   11   33 1   
    24   12   13 1   
    25   12   34 1   
    26   12   35 1   
    27   13   36 1   
    28   13   37 1   
    29   14   15 ar  
    30   15   16 1   
    31   15   26 ar  
    32   16   17 1   
    33   16   38 1   
    34   17   18 ar  
    35   17   25 ar  
    36   18   19 ar  
    37   18   39 1   
    38   19   20 ar  
    39   19   40 1   
    40   20   21 1   
    41   20   24 ar  
    42   21   22 1   
    43   21   44 1   
    44   22   23 2   
    45   23   24 1   
    46   23   41 1   
    47   24   25 ar  
    48   25   42 1   
@<TRIPOS>SUBSTRUCTURE
     1 3N7         1 TEMP              0 ****  ****    0 ROOT
