@<TRIPOS>MOLECULE
3N7
   46    50     1     0     0
SMALL
bcc


@<TRIPOS>ATOM
      1 C1          1.1040   -1.1710   -0.7000 c3        1 3N7     -0.186400
      2 C2          2.3300   -0.5910   -0.0800 ca        1 3N7      0.534600
      3 C3          2.7330   -1.0620    1.2090 ca        1 3N7     -0.277600
      4 C4          3.8950   -0.4980    1.7600 ca        1 3N7      0.540200
      5 N5          4.3670   -0.9340    3.1010 n4        1 3N7     -0.684400
      6 C6          3.5510   -0.3970    4.1740 cc        1 3N7      0.289200
      7 C7          4.0430    0.3720    5.2930 cc        1 3N7     -0.246300
      8 C8          2.8930    0.6060    6.0770 cd        1 3N7      0.021400
      9 N9          1.8230   -0.0050    5.3940 na        1 3N7      0.047400
     10 N10         2.1810   -0.5980    4.2770 nd        1 3N7     -0.472800
     11 C12         2.7850    1.3210    7.3380 cx        1 3N7     -0.129400
     12 C13         1.5360    2.0980    7.6960 cx        1 3N7     -0.097900
     13 C14         1.8530    0.8360    8.4290 cx        1 3N7     -0.097900
     14 N15         4.6410    0.4560    1.1200 nb        1 3N7     -0.683000
     15 C16         4.1650    0.8280   -0.1040 ca        1 3N7      0.769900
     16 N17         4.9600    1.8570   -0.8550 n4        1 3N7     -0.592100
     17 C18         5.9170    1.2320   -1.7720 ca        1 3N7     -0.135400
     18 C19         5.4560    0.8140   -3.0530 ca        1 3N7     -0.082000
     19 C20         6.3260    0.2780   -3.9790 ca        1 3N7     -0.099000
     20 C21         7.6810    0.1500   -3.6160 ca        1 3N7     -0.005200
     21 N22         8.8030   -0.3310   -4.2780 na        1 3N7      0.019900
     22 N24         9.9060   -0.2480   -3.5170 nc        1 3N7     -0.444100
     23 C25         9.5730    0.2780   -2.3240 cd        1 3N7      0.374800
     24 C26         8.1430    0.5670   -2.2980 ca        1 3N7     -0.227900
     25 C27         7.2590    1.1050   -1.3800 ca        1 3N7     -0.001000
     26 N28         3.0400    0.3520   -0.7370 nb        1 3N7     -0.646000
     27 H1          1.3790   -2.1140   -1.2430 hc        1 3N7      0.105033
     28 H1A         0.3540   -1.4170    0.0930 hc        1 3N7      0.105033
     29 H1B         0.6320   -0.4710   -1.4380 hc        1 3N7      0.105033
     30 H3          2.1250   -1.8230    1.7290 ha        1 3N7      0.218000
     31 HN5         5.3400   -0.6230    3.2690 hn        1 3N7      0.490300
     32 H7          5.0610    0.6900    5.5010 ha        1 3N7      0.201000
     33 H12         3.7660    1.7450    7.6450 hc        1 3N7      0.125700
     34 H13         1.6620    3.0710    8.2090 hc        1 3N7      0.094950
     35 H13A        0.6860    2.1200    6.9900 hc        1 3N7      0.094950
     36 H14         1.2370   -0.0650    8.2570 hc        1 3N7      0.094950
     37 H14A        2.2100    0.8900    9.4760 hc        1 3N7      0.094950
     38 HN17        5.4650    2.4540   -0.1830 hn        1 3N7      0.487300
     39 H19         4.3910    0.9230   -3.3220 ha        1 3N7      0.164000
     40 H20         5.9710   -0.0340   -4.9740 ha        1 3N7      0.183000
     41 H25        10.3070    0.4490   -1.5310 h4        1 3N7      0.084800
     42 H27         7.6190    1.4270   -0.3890 ha        1 3N7      0.159000
     43 HN9         0.8650   -0.0350    5.6940 hn        1 3N7      0.366700
     44 HN22        8.8610   -0.6740   -5.2140 hn        1 3N7      0.361700
     45 H52         4.3290   -1.9670    3.1280 hn        1 3N7      0.490300
     46 H172        4.3030    2.4380   -1.4040 hn        1 3N7      0.487300
@<TRIPOS>BOND
     1    1    2 1   
     2    1   27 1   
     3    1   28 1   
     4    1   29 1   
     5    2    3 ar  
     6    2   26 ar  
     7    3    4 ar  
     8    3   30 1   
     9    4    5 1   
    10    4   14 ar  
    11    5    6 1   
    12    5   31 1   
    13    5   45 1   
    14    6    7 1   
    15    6   10 2   
    16    7    8 2   
    17    7   32 1   
    18    8    9 1   
    19    8   11 1   
    20    9   10 1   
    21    9   43 1   
    22   11   12 1   
    23   11   13 1   
    24   11   33 1   
    25   12   13 1   
    26   12   34 1   
    27   12   35 1   
    28   13   36 1   
    29   13   37 1   
    30   14   15 ar  
    31   15   16 1   
    32   15   26 ar  
    33   16   17 1   
    34   16   38 1   
    35   16   46 1   
    36   17   18 ar  
    37   17   25 ar  
    38   18   19 ar  
    39   18   39 1   
    40   19   20 ar  
    41   19   40 1   
    42   20   21 1   
    43   20   24 ar  
    44   21   22 1   
    45   21   44 1   
    46   22   23 2   
    47   23   24 1   
    48   23   41 1   
    49   24   25 ar  
    50   25   42 1   
@<TRIPOS>SUBSTRUCTURE
     1 3N7         1 TEMP              0 ****  ****    0 ROOT
