@<TRIPOS>MOLECULE
3N7
   44    48     1     0     0
SMALL
bcc


@<TRIPOS>ATOM
      1 C1          1.0680    4.8510    0.1290 c3        1 3N7     -0.153400
      2 C2          0.4840    3.4730    0.1110 ca        1 3N7      0.485600
      3 C3          1.3050    2.3900    0.4820 ca        1 3N7     -0.396600
      4 C4          0.7290    1.0920    0.4520 ca        1 3N7      0.681200
      5 N5          1.4510   -0.0290    0.9340 nh        1 3N7     -0.783600
      6 C6          2.7430   -0.2900    0.4480 cc        1 3N7      0.506200
      7 C7          3.5430   -1.4230    0.9010 cc        1 3N7     -0.303300
      8 C8          4.7640   -1.2930    0.2210 cd        1 3N7     -0.050600
      9 N9          4.6520   -0.1440   -0.5720 na        1 3N7     -0.015600
     10 N10         3.4680    0.4560   -0.4610 nd        1 3N7     -0.539800
     11 C12         5.9390   -2.1510    0.2950 cx        1 3N7     -0.066400
     12 C13         6.7900   -2.4080   -0.9250 cx        1 3N7     -0.125900
     13 C14         7.3310   -1.5740    0.1950 cx        1 3N7     -0.125900
     14 N15        -0.5690    0.8930    0.0630 nb        1 3N7     -0.786000
     15 C16        -1.2880    2.0170   -0.2820 ca        1 3N7      0.880900
     16 N17        -2.6080    1.8550   -0.7820 nh        1 3N7     -0.697300
     17 C18        -3.3780    0.7190   -0.4230 ca        1 3N7      0.089600
     18 C19        -4.5740    0.8980    0.3330 ca        1 3N7     -0.128000
     19 C20        -5.4150   -0.1570    0.6440 ca        1 3N7     -0.129000
     20 C21        -5.0530   -1.4310    0.1920 ca        1 3N7     -0.063200
     21 N22        -5.6190   -2.7090    0.3700 na        1 3N7     -0.018100
     22 N24        -4.9170   -3.6440   -0.2920 nc        1 3N7     -0.515100
     23 C25        -3.8330   -3.0650   -0.8380 cd        1 3N7      0.351800
     24 C26        -3.8450   -1.6290   -0.5730 ca        1 3N7     -0.207900
     25 C27        -3.0140   -0.5580   -0.8780 ca        1 3N7     -0.034000
     26 N28        -0.8060    3.3190   -0.2570 nb        1 3N7     -0.764000
     27 H1          1.3130    5.1630   -0.9170 hc        1 3N7      0.057700
     28 H1A         0.3510    5.5920    0.5590 hc        1 3N7      0.057700
     29 H1B         2.0050    4.8620    0.7370 hc        1 3N7      0.057700
     30 H3          2.3450    2.5520    0.7870 ha        1 3N7      0.168000
     31 HN5         0.9120   -0.8750    1.0000 hn        1 3N7      0.429800
     32 H7          3.2500   -2.1840    1.6130 ha        1 3N7      0.171000
     33 H12         5.7770   -2.9930    1.0010 hc        1 3N7      0.101700
     34 H13         7.1880   -3.4270   -1.0810 hc        1 3N7      0.076450
     35 H13A        6.5250   -1.9230   -1.8820 hc        1 3N7      0.076450
     36 H14         7.4560   -0.4870    0.0480 hc        1 3N7      0.076450
     37 H14A        8.1180   -1.9910    0.8480 hc        1 3N7      0.076450
     38 HN17       -3.1370    2.7070   -0.7880 hn        1 3N7      0.429800
     39 H19        -4.8460    1.9070    0.6830 ha        1 3N7      0.134000
     40 H20        -6.3290    0.0040    1.2300 ha        1 3N7      0.140000
     41 H25        -3.0780   -3.6270   -1.3880 h4        1 3N7      0.055800
     42 H27        -2.0940   -0.7200   -1.4600 ha        1 3N7      0.161000
     43 HN9         5.3430    0.2310   -1.1770 hn        1 3N7      0.322700
     44 HN22       -6.5690   -2.8870    0.5990 hn        1 3N7      0.315700
@<TRIPOS>BOND
     1    1    2 1   
     2    1   27 1   
     3    1   28 1   
     4    1   29 1   
     5    2    3 ar  
     6    2   26 ar  
     7    3    4 ar  
     8    3   30 1   
     9    4    5 1   
    10    4   14 ar  
    11    5    6 1   
    12    5   31 1   
    13    6    7 1   
    14    6   10 2   
    15    7    8 2   
    16    7   32 1   
    17    8    9 1   
    18    8   11 1   
    19    9   10 1   
    20    9   43 1   
    21   11   12 1   
    22   11   13 1   
    23   11   33 1   
    24   12   13 1   
    25   12   34 1   
    26   12   35 1   
    27   13   36 1   
    28   13   37 1   
    29   14   15 ar  
    30   15   16 1   
    31   15   26 ar  
    32   16   17 1   
    33   16   38 1   
    34   17   18 ar  
    35   17   25 ar  
    36   18   19 ar  
    37   18   39 1   
    38   19   20 ar  
    39   19   40 1   
    40   20   21 1   
    41   20   24 ar  
    42   21   22 1   
    43   21   44 1   
    44   22   23 2   
    45   23   24 1   
    46   23   41 1   
    47   24   25 ar  
    48   25   42 1   
@<TRIPOS>SUBSTRUCTURE
     1 3N7         1 TEMP              0 ****  ****    0 ROOT
