@<TRIPOS>MOLECULE
3NA
   36    36     1     0     0
SMALL
bcc


@<TRIPOS>ATOM
      1 C2          1.1580    0.7480   -1.4750 cg        1 3NA     -0.525300
      2 C3          0.1860   -1.5080    0.3660 cf        1 3NA     -0.118000
      3 C4          1.9690   -0.1620   -0.7780 ce        1 3NA      0.240300
      4 C5          0.4670    1.5440   -2.0840 c1        1 3NA     -0.165000
      5 C6         -0.9280   -0.8520    0.0280 c2        1 3NA     -0.213000
      6 C7          1.5460   -1.1690    0.0350 cf        1 3NA     -0.189000
      7 C11         4.6670   -1.4320    0.4900 cg        1 3NA      0.017000
      8 C13         5.7530   -3.0300    2.2270 cd        1 3NA      0.505100
      9 S14         6.0500   -2.3900    3.8290 ss        1 3NA      0.013900
     10 N15         3.3790    0.0530   -1.0100 nh        1 3NA     -0.331800
     11 C16         4.4110   -0.4920   -0.4620 cg        1 3NA     -0.121000
     12 C17         5.1730   -2.1910    1.2920 ch        1 3NA     -0.239200
     13 C20        -1.0950    3.1910   -3.4740 cx        1 3NA     -0.158600
     14 C24         6.6570   -4.8000    3.2360 ca        1 3NA      0.115400
     15 C25         7.7070   -5.5690    5.7410 ca        1 3NA     -0.199000
     16 C26         7.1490   -6.1220    3.4110 ca        1 3NA      0.119900
     17 C27         6.6960   -3.8680    4.3260 ca        1 3NA     -0.161100
     18 C28         7.2240   -4.2710    5.5680 ca        1 3NA      0.180900
     19 C29         7.6700   -6.4870    4.6710 ca        1 3NA      0.103900
     20 C32        -1.2810    4.5870   -3.1950 c         1 3NA      0.675600
     21 O33        -0.4520    4.2930   -4.2540 os        1 3NA     -0.500900
     22 O34        -1.5880    5.6720   -2.7330 o         1 3NA     -0.607500
     23 N36         6.1160   -4.3030    2.0480 nc        1 3NA     -0.539100
     24 H2         -0.3000    2.4410   -2.7940 h1        1 3NA      0.174700
     25 H3          0.1030   -2.4270    0.9780 ha        1 3NA      0.098000
     26 H5         -1.9170   -1.2080    0.3440 ha        1 3NA      0.121500
     27 H6         -0.9280    0.0680   -0.5760 ha        1 3NA      0.121500
     28 H16         2.2930   -1.8290    0.5140 ha        1 3NA      0.120000
     29 H171        5.0690   -0.2630    4.1570 ha        1 3NA      0.012000
     30 H172        5.6890   -0.0570    3.9620 ha        1 3NA      0.012000
     31 H201       -1.8610    2.6470   -4.0520 h1        1 3NA      0.174700
     32 H202        3.5660    0.7610   -1.7030 hn        1 3NA      0.473800
     33 H25         8.1190   -5.8840    6.7100 ha        1 3NA      0.162000
     34 F19         7.2690   -3.4040    6.6090 f         1 3NA     -0.133900
     35 F22         7.1260   -7.0180    2.4040 f         1 3NA     -0.108900
     36 F23         8.1460   -7.7400    4.8630 f         1 3NA     -0.130900
@<TRIPOS>BOND
     1    1    3 1   
     2    1    4 3   
     3    2    5 2   
     4    2    6 1   
     5    2   25 1   
     6    3    6 2   
     7    3   10 1   
     8    5   26 1   
     9    5   27 1   
    10    6   28 1   
    11    7   11 1   
    12    7   12 3   
    13    8    9 1   
    14    8   12 1   
    15    8   23 2   
    16    9   17 1   
    17   10   11 3   
    18   10   32 1   
    19   13   20 1   
    20   13   21 1   
    21   13   24 1   
    22   13   31 1   
    23   14   16 ar  
    24   14   17 ar  
    25   14   23 1   
    26   15   18 ar  
    27   15   19 ar  
    28   15   33 1   
    29   16   19 ar  
    30   16   35 1   
    31   17   18 ar  
    32   18   34 1   
    33   19   36 1   
    34   20   21 1   
    35   20   22 2   
    36   29   30 1   
@<TRIPOS>SUBSTRUCTURE
     1 3NA         1 TEMP              0 ****  ****    0 ROOT
