@<TRIPOS>MOLECULE
3NA
   36    39     1     0     0
SMALL
bcc


@<TRIPOS>ATOM
      1 C2          4.0150    2.0320   -0.9900 ca        1 3NA     -0.121000
      2 C3          1.8160    2.6680    0.7080 ca        1 3NA     -0.110000
      3 C4          3.2700    1.0130   -0.3780 ca        1 3NA     -0.073200
      4 C5          3.6480    3.3460   -0.7430 ca        1 3NA     -0.147000
      5 C6          2.5650    3.6620    0.0950 ca        1 3NA     -0.160000
      6 C7          2.1470    1.3320    0.4830 ca        1 3NA     -0.065800
      7 C11         1.6140    0.0690    0.9340 cc        1 3NA     -0.287400
      8 C13        -0.8020   -0.2250    1.1990 cc        1 3NA      0.374200
      9 S14        -0.8390   -0.2810   -0.5270 ss        1 3NA      0.132900
     10 N15         3.4040   -0.3840   -0.4250 na        1 3NA     -0.010400
     11 C16         2.4150   -0.9410    0.3660 cd        1 3NA     -0.013100
     12 C17         0.5180   -0.1270    1.8890 c3        1 3NA     -0.008500
     13 C20         4.3840   -1.0800   -1.2120 c3        1 3NA     -0.116700
     14 C24        -2.9900   -0.3760    0.8420 ca        1 3NA      0.096400
     15 C25        -4.8160   -0.5620   -1.2990 ca        1 3NA     -0.196000
     16 C26        -4.3830   -0.4540    1.1170 ca        1 3NA      0.124900
     17 C27        -2.5190   -0.3900   -0.5140 ca        1 3NA     -0.175100
     18 C28        -3.4510   -0.4840   -1.5690 ca        1 3NA      0.183900
     19 C29        -5.2790   -0.5470    0.0350 ca        1 3NA      0.095900
     20 C32         4.7180   -2.5530   -0.8120 c         1 3NA      0.922600
     21 O33         3.8290   -3.2780   -0.2910 o         1 3NA     -0.818800
     22 O34         5.8870   -2.9190   -1.1000 o         1 3NA     -0.818800
     23 N36        -1.9840   -0.2800    1.8070 nd        1 3NA     -0.544100
     24 H2          4.8660    1.7900   -1.6420 ha        1 3NA      0.133000
     25 H3          0.9730    2.9220    1.3660 ha        1 3NA      0.121000
     26 H5          4.2170    4.1630   -1.2100 ha        1 3NA      0.114000
     27 H6          2.3130    4.7180    0.2650 ha        1 3NA      0.112000
     28 H16         2.3610   -2.0380    0.4780 h4        1 3NA      0.233000
     29 H171        0.6810   -1.0700    2.4830 hc        1 3NA      0.074700
     30 H172        0.4860    0.7310    2.6180 hc        1 3NA      0.074700
     31 H201        5.3420   -0.4900   -1.1750 h1        1 3NA      0.046200
     32 H202        4.0270   -1.1090   -2.2810 h1        1 3NA      0.046200
     33 H25        -5.5430   -0.6370   -2.1210 ha        1 3NA      0.161000
     34 F19        -3.0290   -0.4970   -2.8560 f         1 3NA     -0.130900
     35 F22        -4.8470   -0.4410    2.3840 f         1 3NA     -0.112900
     36 F23        -6.6120   -0.6240    0.2680 f         1 3NA     -0.133900
@<TRIPOS>BOND
     1    1    3 ar  
     2    1    4 ar  
     3    1   24 1   
     4    2    5 ar  
     5    2    6 ar  
     6    2   25 1   
     7    3    6 ar  
     8    3   10 1   
     9    4    5 ar  
    10    4   26 1   
    11    5   27 1   
    12    6    7 1   
    13    7   11 2   
    14    7   12 1   
    15    8    9 1   
    16    8   12 1   
    17    8   23 2   
    18    9   17 1   
    19   10   11 1   
    20   10   13 1   
    21   11   28 1   
    22   12   29 1   
    23   12   30 1   
    24   13   20 1   
    25   13   31 1   
    26   13   32 1   
    27   14   16 ar  
    28   14   17 ar  
    29   14   23 1   
    30   15   18 ar  
    31   15   19 ar  
    32   15   33 1   
    33   16   19 ar  
    34   16   35 1   
    35   17   18 ar  
    36   18   34 1   
    37   19   36 1   
    38   20   21 1   
    39   20   22 1   
@<TRIPOS>SUBSTRUCTURE
     1 3NA         1 TEMP              0 ****  ****    0 ROOT
