@<TRIPOS>MOLECULE
3NA
   36    26     1     0     0
SMALL
bcc


@<TRIPOS>ATOM
      1 C2         -4.3510   -0.0330   -1.0670 c1        1 3NA     -0.134750
      2 C3         -2.8940    0.0360    1.3040 c1        1 3NA     -0.134750
      3 C4         -2.9450    0.0010   -1.1070 c1        1 3NA     -0.041500
      4 C5         -5.0140   -0.0330    0.1600 c1        1 3NA     -0.134750
      5 C6         -4.2820    0.0020    1.3460 c1        1 3NA     -0.134750
      6 C7         -2.2250    0.0350    0.0620 c1        1 3NA     -0.041500
      7 C11        -0.8770    0.0480   -0.2660 c1        1 3NA     -0.294000
      8 C13         1.4520   -0.0180    0.6840 c1        1 3NA     -0.221000
      9 S14         2.0590   -1.3250    1.2300 ss        1 3NA      0.602000
     10 N15        -2.0430   -0.0070   -2.1680 n1        1 3NA     -0.103000
     11 C16        -0.7730    0.0220   -1.6470 c1        1 3NA      0.012000
     12 C17         0.1290    0.7590    0.6690 c1        1 3NA     -0.015000
     13 F19         4.3190   -3.0440    2.7660 f         1 3NA     -0.094000
     14 C20        -2.7780    0.1880   -3.4030 c2        1 3NA     -0.125000
     15 F22         5.2180    2.2310    1.6250 f         1 3NA     -0.090000
     16 F23         7.0700    0.8560    2.6300 f         1 3NA     -0.090000
     17 C24         3.7110    0.3920    1.5340 c1        1 3NA     -0.044000
     18 C25         5.7130   -1.2310    2.6390 c1        1 3NA     -0.197000
     19 C26         4.9370    0.9490    1.8740 c1        1 3NA      0.074500
     20 C27         3.4770   -0.9980    1.7480 c1        1 3NA     -0.405000
     21 C28         4.4790   -1.7950    2.2980 c1        1 3NA      0.152000
     22 C29         5.9440    0.1440    2.4270 c1        1 3NA      0.074500
     23 C32        -1.8030    0.2260   -4.5770 c2        1 3NA      0.341000
     24 O33        -0.5820    0.4400   -4.3730 o         1 3NA     -0.553500
     25 O34        -2.2350    0.1100   -5.7590 o         1 3NA     -0.553500
     26 N36         2.4180    1.0180    0.8540 n1        1 3NA     -0.119000
     27 H2         -4.8580   -0.0570   -1.8910 ha        1 3NA      0.120000
     28 H3         -2.3840    0.0130    2.1290 ha        1 3NA      0.120000
     29 H5         -5.9860   -0.1070    0.1890 ha        1 3NA      0.120000
     30 H6         -4.7500   -0.0230    2.2160 ha        1 3NA      0.120000
     31 H16         0.0530    0.0540   -2.1580 DU        1 3NA      0.233000
     32 H171        0.2890    1.6730    0.3440 ha        1 3NA      0.112000
     33 H172       -0.2400    0.7940    1.5790 ha        1 3NA      0.112000
     34 H201       -3.4110   -0.5520   -3.5270 ha        1 3NA      0.085500
     35 H202       -3.2680    1.0320   -3.3590 ha        1 3NA      0.085500
     36 H25         6.4330   -1.8020    2.9950 ha        1 3NA      0.161000
@<TRIPOS>BOND
     1    1    4 1   
     2    1   27 1   
     3    2    5 1   
     4    2   28 1   
     5    3    6 1   
     6    4   29 1   
     7    5   30 1   
     8    7   11 1   
     9    8    9 1   
    10    8   26 1   
    11    9   20 1   
    12   10   11 1   
    13   12   32 1   
    14   12   33 1   
    15   13   21 1   
    16   14   23 1   
    17   14   34 1   
    18   14   35 1   
    19   15   19 1   
    20   16   22 1   
    21   17   20 1   
    22   18   21 1   
    23   18   36 1   
    24   19   22 1   
    25   23   24 1   
    26   23   25 1   
@<TRIPOS>SUBSTRUCTURE
     1 3NA         1 TEMP              0 ****  ****    0 ROOT
