@<TRIPOS>MOLECULE
3NA
   36    36     1     0     0
SMALL
bcc


@<TRIPOS>ATOM
      1 C2          1.0620    0.7810   -1.3400 cg        1 3NA     -0.525300
      2 C3          0.1220   -1.3620    0.6470 cf        1 3NA     -0.118000
      3 C4          1.8780   -0.1490   -0.6750 ce        1 3NA      0.241300
      4 C5          0.3680    1.5930   -1.9210 c1        1 3NA     -0.165000
      5 C6         -0.9800   -0.6610    0.3670 c2        1 3NA     -0.214000
      6 C7          1.4680   -1.1060    0.2030 cf        1 3NA     -0.189000
      7 C11         4.5980   -1.5010    0.4520 cg        1 3NA      0.017000
      8 C13         5.7310   -3.0740    2.1800 cd        1 3NA      0.505100
      9 S14         6.1790   -2.3800    3.7240 ss        1 3NA      0.013900
     10 N15         3.2750   -0.0170   -1.0190 nu        1 3NA     -0.331800
     11 C16         4.3180   -0.5910   -0.5230 cg        1 3NA     -0.120000
     12 C17         5.1250   -2.2490    1.2510 ch        1 3NA     -0.239200
     13 C20        -1.2410    3.3050   -3.1730 cx        1 3NA     -0.157600
     14 C24         6.6200   -4.8430    3.2050 ca        1 3NA      0.115400
     15 C25         7.8160   -5.5530    5.6620 ca        1 3NA     -0.199000
     16 C26         7.0580   -6.1790    3.4090 ca        1 3NA      0.119900
     17 C27         6.7870   -3.8660    4.2440 ca        1 3NA     -0.161100
     18 C28         7.3860   -4.2410    5.4620 ca        1 3NA      0.180900
     19 C29         7.6530   -6.5150    4.6440 ca        1 3NA      0.103900
     20 C32        -0.8810    4.0680   -4.3370 c         1 3NA      0.674600
     21 O33        -0.5900    4.4590   -5.4530 o         1 3NA     -0.608500
     22 O34        -0.9010    4.7610   -3.1480 os        1 3NA     -0.500900
     23 N36         6.0160   -4.3720    2.0370 nc        1 3NA     -0.539100
     24 H2         -0.4170    2.5190   -2.5730 h1        1 3NA      0.174700
     25 H3          0.0410   -2.2540    1.2980 ha        1 3NA      0.098000
     26 H5         -1.9590   -0.9550    0.7690 ha        1 3NA      0.121500
     27 H6         -0.9820    0.2350   -0.2700 ha        1 3NA      0.121500
     28 H16         2.2160   -1.7900    0.6470 ha        1 3NA      0.120000
     29 H171        5.3330   -0.1910    4.0180 ha        1 3NA      0.012000
     30 H172        5.9460   -0.0270    3.7680 ha        1 3NA      0.012000
     31 H201       -2.3050    3.1090   -2.9620 h1        1 3NA      0.174700
     32 H202        3.4430    0.6500   -1.7550 hn        1 3NA      0.473800
     33 H25         8.2830   -5.8460    6.6130 ha        1 3NA      0.162000
     34 F19         7.5510   -3.3320    6.4530 f         1 3NA     -0.133900
     35 F22         6.9140   -7.1170    2.4500 f         1 3NA     -0.108900
     36 F23         8.0790   -7.7820    4.8610 f         1 3NA     -0.130900
@<TRIPOS>BOND
     1    1    3 1   
     2    1    4 3   
     3    2    5 2   
     4    2    6 1   
     5    2   25 1   
     6    3    6 2   
     7    3   10 1   
     8    5   26 1   
     9    5   27 1   
    10    6   28 1   
    11    7   11 1   
    12    7   12 3   
    13    8    9 1   
    14    8   12 1   
    15    8   23 2   
    16    9   17 1   
    17   10   11 3   
    18   10   32 1   
    19   13   20 1   
    20   13   22 1   
    21   13   24 1   
    22   13   31 1   
    23   14   16 ar  
    24   14   17 ar  
    25   14   23 1   
    26   15   18 ar  
    27   15   19 ar  
    28   15   33 1   
    29   16   19 ar  
    30   16   35 1   
    31   17   18 ar  
    32   18   34 1   
    33   19   36 1   
    34   20   21 2   
    35   20   22 1   
    36   29   30 1   
@<TRIPOS>SUBSTRUCTURE
     1 3NA         1 TEMP              0 ****  ****    0 ROOT
