@<TRIPOS>MOLECULE
3NB
   38    38     1     0     0
SMALL
bcc


@<TRIPOS>ATOM
      1 C16         0.0160   -0.0010    0.0140 c3        1 3NB     -0.079400
      2 C18         2.0390    0.0110   -1.4510 c3        1 3NB     -0.093100
      3 C17         1.5290    0.0080   -0.0330 c3        1 3NB     -0.080400
      4 C14        -2.0030   -0.0140    1.4860 c3        1 3NB     -0.079400
      5 C13        -2.5060   -0.0150    2.9130 c3        1 3NB     -0.075400
      6 C15        -0.4900   -0.0040    1.4400 c3        1 3NB     -0.078400
      7 C12        -4.0190   -0.0260    2.9560 c3        1 3NB     -0.175400
      8 C1         -4.5510   -0.0270    4.3610 c         1 3NB      0.579700
      9 C2         -6.0250   -0.0370    4.5200 ca        1 3NB     -0.139600
     10 C3         -6.8820   -0.0460    3.4170 ca        1 3NB     -0.140000
     11 C4         -8.2700   -0.0560    3.6110 ca        1 3NB      0.094600
     12 C5         -8.8080   -0.0550    4.9130 ca        1 3NB      0.048100
     13 C6         -7.9310   -0.0450    6.0140 ca        1 3NB      0.094600
     14 C7         -6.5480   -0.0360    5.8200 ca        1 3NB     -0.140000
     15 O8         -8.5250   -0.0460    7.2590 oh        1 3NB     -0.503100
     16 O9        -10.1790   -0.0650    5.0280 oh        1 3NB     -0.509100
     17 O10        -9.0600   -0.0650    2.4870 oh        1 3NB     -0.503100
     18 O11        -3.8040   -0.0190    5.3480 o         1 3NB     -0.535100
     19 H1         -0.3810    0.8980   -0.5250 hc        1 3NB      0.038700
     20 H2         -0.3700   -0.9070   -0.5250 hc        1 3NB      0.038700
     21 H3          3.1550    0.0180   -1.4630 hc        1 3NB      0.032700
     22 H4          1.6750    0.9130   -1.9990 hc        1 3NB      0.032700
     23 H5          1.6860   -0.8960   -1.9990 hc        1 3NB      0.032700
     24 H6          1.9140    0.9130    0.5080 hc        1 3NB      0.038700
     25 H7          1.9250   -0.8920    0.5080 hc        1 3NB      0.038700
     26 H8         -2.4010    0.8860    0.9460 hc        1 3NB      0.038700
     27 H9         -2.3890   -0.9200    0.9480 hc        1 3NB      0.038700
     28 H10        -2.1110   -0.9120    3.4590 hc        1 3NB      0.055700
     29 H11        -2.1240    0.8890    3.4560 hc        1 3NB      0.055700
     30 H12        -0.1040    0.9020    1.9790 hc        1 3NB      0.041700
     31 H13        -0.0920   -0.9030    1.9800 hc        1 3NB      0.041700
     32 H14        -4.4210    0.8760    2.4230 hc        1 3NB      0.069700
     33 H15        -4.4080   -0.9370    2.4270 hc        1 3NB      0.069700
     34 H16        -6.5000   -0.0470    2.3850 ha        1 3NB      0.160500
     35 H17        -5.8610   -0.0290    6.6810 ha        1 3NB      0.160500
     36 H18        -7.8210   -0.0380    7.9230 ho        1 3NB      0.439000
     37 H19       -10.3980   -0.0630    5.9730 ho        1 3NB      0.451000
     38 H20        -9.9880   -0.0700    2.7710 ho        1 3NB      0.439000
@<TRIPOS>BOND
     1    1    3 1   
     2    1    6 1   
     3    1   19 1   
     4    1   20 1   
     5    2    3 1   
     6    2   21 1   
     7    2   22 1   
     8    2   23 1   
     9    3   24 1   
    10    3   25 1   
    11    4    5 1   
    12    4    6 1   
    13    4   26 1   
    14    4   27 1   
    15    5    7 1   
    16    5   28 1   
    17    5   29 1   
    18    6   30 1   
    19    6   31 1   
    20    7    8 1   
    21    7   32 1   
    22    7   33 1   
    23    8    9 1   
    24    8   18 2   
    25    9   10 ar  
    26    9   14 ar  
    27   10   11 ar  
    28   10   34 1   
    29   11   12 ar  
    30   11   17 1   
    31   12   13 ar  
    32   12   16 1   
    33   13   14 ar  
    34   13   15 1   
    35   14   35 1   
    36   15   36 1   
    37   16   37 1   
    38   17   38 1   
@<TRIPOS>SUBSTRUCTURE
     1 3NB         1 TEMP              0 ****  ****    0 ROOT
