@<TRIPOS>MOLECULE
3NC
   42    39     1     0     0
SMALL
bcc


@<TRIPOS>ATOM
      1 C1        334.3490  462.3700   67.1930 c2        1 3NC     -0.568000
      2 C2        334.2300  462.7030   65.7570 c3        1 3NC     -0.073000
      3 C3        332.8980  462.2650   65.1600 c3        1 3NC     -0.212000
      4 C4        332.6620  460.8120   65.3720 c2        1 3NC      0.172000
      5 C5         10.8250   12.5490    6.3700 c3        1 3NC     -0.266000
      6 C6        333.7820  462.9770   68.2170 c1        1 3NC      0.295000
      7 C7       -207.3740 -285.5450  -38.8030 ca        1 3NC     -0.253000
      8 C8       -207.5460 -286.6240  -37.8360 ca        1 3NC     -0.015000
      9 C9       -208.5220 -286.6350  -36.9060 c2        1 3NC     -0.199000
     10 C10      -204.1320 -290.0060  -36.4970 c1        1 3NC      0.011000
     11 N11      -203.7920 -290.4920  -35.4920 n2        1 3NC     -0.235000
     12 C12      -208.2070 -284.4890  -38.7930 c1        1 3NC      0.345000
     13 C13      -206.3110 -285.6040  -39.7680 ca        1 3NC      0.024000
     14 C14      -205.4520 -286.6560  -39.8040 ca        1 3NC     -0.165000
     15 C15      -205.6000 -287.7450  -38.8480 ca        1 3NC     -0.085000
     16 C16      -206.5940 -287.7180  -37.9170 ca        1 3NC     -0.046000
     17 N19      -204.6540 -288.8540  -38.9000 n4        1 3NC     -0.140000
     18 C20      -205.0870 -289.9090  -39.8650 c2        1 3NC      0.221000
     19 O21      -204.2240 -290.5580  -40.4280 o         1 3NC     -0.171000
     20 N22       332.0160  460.0300   64.5500 n3        1 3NC     -0.176000
     21 H1       -206.1920 -289.9960  -39.9600 hx        1 3NC      0.214000
     22 H2        334.3180  463.8160   65.6090 hc        1 3NC      0.126000
     23 H2A       335.0870  461.5750   67.4430 ha        1 3NC      0.205000
     24 H3        332.8650  462.5540   64.0730 hc        1 3NC      0.159000
     25 H3A       335.0720  462.2310   65.1820 hc        1 3NC      0.126000
     26 H4        332.0550  462.8140   65.6790 hc        1 3NC      0.159000
     27 H5         10.3290   12.7150    5.3880 hc        1 3NC      0.066000
     28 H5A       333.0670  460.3770   66.3230 h4        1 3NC      0.216000
     29 H6         11.6750   13.2560    6.4800 hc        1 3NC      0.066000
     30 H6A        11.2010   11.5050    6.4230 hc        1 3NC      0.066000
     31 H9       -208.6390 -287.4550  -36.1860 ha        1 3NC      0.136000
     32 H10      -209.2590 -285.8260  -36.8150 ha        1 3NC      0.136000
     33 HN11     -203.5030 -290.8990  -34.6540 hn        1 3NC      0.330000
     34 H13      -206.2070 -284.7700  -40.4850 ha        1 3NC      0.169000
     35 H16      -206.7230 -288.5280  -37.1760 ha        1 3NC      0.150000
     36 HN19     -204.5370 -289.3130  -37.8960 hn        1 3NC      0.296500
     37 HN22       10.0920   12.7210    7.1880 hc        1 3NC      0.066000
     38 HN2A      331.6330  460.3630   63.6810 hn        1 3NC      0.284500
     39 O17      -208.9380 -283.5670  -38.7830 o         1 3NC     -0.044000
     40 H192     -203.7290 -288.4930  -39.1700 hn        1 3NC      0.296500
     41 H223      331.8680  459.0550   64.7520 hn        1 3NC      0.284500
     42 CL18     -204.2000 -286.7150  -40.9470 cl        1 3NC      0.023000
@<TRIPOS>BOND
     1    1    2 1   
     2    1    6 1   
     3    1   23 1   
     4    2    3 1   
     5    2   22 1   
     6    2   25 1   
     7    3    4 1   
     8    3   24 1   
     9    3   26 1   
    10    4   20 1   
    11    4   28 1   
    12    5   27 1   
    13    5   29 1   
    14    5   30 1   
    15    5   37 1   
    16    7    8 1   
    17    7   12 1   
    18    7   13 1   
    19    8    9 1   
    20    8   16 1   
    21    9   31 1   
    22    9   32 1   
    23   10   11 1   
    24   11   33 1   
    25   12   39 1   
    26   13   14 1   
    27   13   34 1   
    28   14   15 1   
    29   14   42 1   
    30   15   16 1   
    31   15   17 1   
    32   16   35 1   
    33   17   18 1   
    34   17   36 1   
    35   17   40 1   
    36   18   19 1   
    37   18   21 1   
    38   20   38 1   
    39   20   41 1   
@<TRIPOS>SUBSTRUCTURE
     1 3NC         1 TEMP              0 ****  ****    0 ROOT
