@<TRIPOS>MOLECULE
3NC
   40    38     1     0     0
SMALL
bcc


@<TRIPOS>ATOM
      1 C1          1.4440   -0.4470    1.4250 c3        1 3NC     -0.118000
      2 C2          3.0210   -0.4620    1.5150 c3        1 3NC     -0.151500
      3 C3          3.5330   -0.6640    2.9300 c3        1 3NC     -0.155000
      4 C4          2.9460   -1.8590    3.5940 c3        1 3NC     -0.027000
      5 C5          1.4300   -1.8890    3.5390 c3        1 3NC     -0.155000
      6 C6          0.8850   -1.7030    2.1290 c3        1 3NC     -0.151500
      7 C7         -2.3760    1.5330   -3.6560 c1        1 3NC     -0.135000
      8 C8         -2.9140    1.1800   -2.4290 c2        1 3NC      0.038000
      9 C9         -4.3840    1.4310   -2.1490 c2        1 3NC     -0.232000
     10 C10        -5.2680    2.0770   -3.2220 c1        1 3NC      0.009000
     11 N11        -4.7020    2.4480   -4.4970 n2        1 3NC     -0.300000
     12 C12        -3.2950    2.1980   -4.7680 c1        1 3NC      0.342000
     13 C13        -1.0100    1.3130   -3.9180 c1        1 3NC     -0.052000
     14 C14        -0.1900    0.7350   -2.9370 c1        1 3NC     -0.080000
     15 C15        -0.7370    0.3740   -1.6860 c1        1 3NC      0.107000
     16 C16        -2.0880    0.5930   -1.4300 c1        1 3NC     -0.159000
     17 O17        -2.7940    2.5680   -5.8500 o         1 3NC     -0.354000
     18 CL18        1.4840    0.6840   -3.4930 cl        1 3NC      0.008000
     19 N19        -0.3310    0.2070   -0.3300 n         1 3NC     -0.358000
     20 C20         0.9710   -0.3270   -0.0360 c2        1 3NC      0.313000
     21 O21         1.7280   -0.6380   -0.9520 o         1 3NC     -0.332000
     22 N22         3.3680   -1.8720    4.9950 n3        1 3NC     -0.346000
     23 H1          1.0570    0.3920    1.8290 hc        1 3NC      0.102000
     24 H2          3.3660    0.4020    1.1700 hc        1 3NC      0.095500
     25 H2A         3.3670   -1.1930    0.9440 hc        1 3NC      0.095500
     26 H3          3.3140    0.1290    3.4610 hc        1 3NC      0.088500
     27 H3A         4.5400   -0.7680    2.9030 hc        1 3NC      0.088500
     28 H4          3.2890   -2.6630    3.1530 h1        1 3NC      0.052000
     29 H5          1.1100   -2.7700    3.8970 hc        1 3NC      0.088500
     30 H5A         1.0880   -1.1890    4.0950 hc        1 3NC      0.088500
     31 H6         -0.1220   -1.6280    2.1790 hc        1 3NC      0.095500
     32 H6A         1.1090   -2.4720    1.6090 hc        1 3NC      0.095500
     33 H9         -4.7660    1.1800   -1.2870 ha        1 3NC      0.151000
     34 H10        -6.2470    2.2500   -3.0330 ha        1 3NC      0.152000
     35 HN11       -5.2510    2.8490   -5.1650 hn        1 3NC      0.249000
     36 H13        -0.6430    1.5570   -4.7630 ha        1 3NC      0.175000
     37 H16        -2.4820    0.3360   -0.5360 ha        1 3NC      0.144000
     38 HN19       -0.8500    0.5550    0.3500 hn        1 3NC      0.235000
     39 HN22        3.1020   -2.6400    5.3810 hn        1 3NC      0.146000
     40 HN2A        4.2980   -1.8090    5.0370 hn        1 3NC      0.146000
@<TRIPOS>BOND
     1    1    2 1   
     2    1    6 1   
     3    1   20 1   
     4    1   23 1   
     5    2    3 1   
     6    2   24 1   
     7    2   25 1   
     8    3    4 1   
     9    3   26 1   
    10    3   27 1   
    11    4    5 1   
    12    4   22 1   
    13    4   28 1   
    14    5    6 1   
    15    5   29 1   
    16    5   30 1   
    17    6   31 1   
    18    6   32 1   
    19    7    8 1   
    20    7   13 1   
    21    8    9 1   
    22    8   16 1   
    23    9   10 1   
    24    9   33 1   
    25   10   34 1   
    26   11   12 1   
    27   11   35 1   
    28   12   17 1   
    29   13   36 1   
    30   14   15 1   
    31   14   18 1   
    32   15   19 1   
    33   16   37 1   
    34   19   20 1   
    35   19   38 1   
    36   20   21 1   
    37   22   39 1   
    38   22   40 1   
@<TRIPOS>SUBSTRUCTURE
     1 3NC         1 TEMP              0 ****  ****    0 ROOT
