@<TRIPOS>MOLECULE
3NC
   41    40     1     0     0
SMALL
bcc


@<TRIPOS>ATOM
      1 C1          1.2190    2.8720    0.8810 c2        1 3NC     -0.501000
      2 C2          1.5930    1.6790    0.0890 c3        1 3NC     -0.075000
      3 C3          0.6080    0.5280    0.2000 c3        1 3NC     -0.221000
      4 C4          0.4910    0.0200    1.5940 c2        1 3NC      0.151000
      5 C5          0.0320    1.3620    4.8250 c3        1 3NC     -0.283000
      6 C6          0.2110    3.0290    1.7060 c1        1 3NC      0.187000
      7 C7         -1.9740   -5.6220    2.5450 ca        1 3NC     -0.142000
      8 C8         -2.1530   -4.4300    1.8240 ca        1 3NC     -0.029000
      9 C9         -3.2250   -3.4760    2.2160 c3        1 3NC     -0.197000
     10 C10        -3.9600   -3.7890    3.4730 c1        1 3NC     -0.046000
     11 N11        -3.7480   -4.9180    4.1210 ns        1 3NC     -0.224000
     12 C12        -2.8080   -5.9240    3.7350 c2        1 3NC      0.291000
     13 C13        -1.0000   -6.5430    2.1490 ca        1 3NC     -0.027000
     14 C14        -0.1860   -6.2760    1.0490 ca        1 3NC     -0.116000
     15 C15        -0.3410   -5.0690    0.3190 ca        1 3NC      0.086000
     16 C16        -1.3350   -4.1570    0.7270 ca        1 3NC     -0.192000
     17 N19         0.4680   -4.8140   -0.8040 ns        1 3NC     -0.317000
     18 C20         0.8780   -3.5770   -1.2310 c2        1 3NC      0.305000
     19 O21         0.6150   -2.5090   -0.6340 o         1 3NC     -0.465000
     20 N22         0.1930   -1.2060    1.9180 n8        1 3NC     -0.171000
     21 H1          1.4820   -3.5960   -2.1700 h5        1 3NC      0.165000
     22 H2          1.6550    1.9680   -0.9980 hc        1 3NC      0.124000
     23 H2A         1.8990    3.7440    0.7300 ha        1 3NC      0.224000
     24 H3          2.6170    1.3360    0.4020 hc        1 3NC      0.124000
     25 H3A         0.9090   -0.2910   -0.5180 hc        1 3NC      0.171000
     26 H4         -0.4210    0.8750   -0.1150 hc        1 3NC      0.171000
     27 H5         -0.1610    2.1210    4.0330 hc        1 3NC      0.071500
     28 H5A         0.6480    0.7640    2.4240 h4        1 3NC      0.212000
     29 H6         -0.2890    0.3550    4.4750 hc        1 3NC      0.071500
     30 H6A        -0.5480    1.6310    5.7360 hc        1 3NC      0.071500
     31 H9         -4.0070   -3.4300    1.4010 hc        1 3NC      0.137500
     32 H10        -2.8090   -2.4380    2.3250 hc        1 3NC      0.137500
     33 HN11       -4.2880   -5.1110    4.9450 hn        1 3NC      0.277000
     34 H13        -0.8850   -7.4860    2.7190 ha        1 3NC      0.192000
     35 H16        -1.5050   -3.2350    0.1460 ha        1 3NC      0.151000
     36 HN19        0.7990   -5.6200   -1.2970 hn        1 3NC      0.267000
     37 HN22        1.1150    1.3420    5.0750 hc        1 3NC      0.071500
     38 HN2A        0.0480   -1.9350    1.2240 hn        1 3NC      0.292000
     39 O17        -2.7110   -6.9690    4.3910 o         1 3NC     -0.269000
     40 H223        0.1060   -1.4820    2.8810 hn        1 3NC      0.292000
     41 Cl18        0.9820   -7.4200    0.5960 cl        1 3NC      0.029000
@<TRIPOS>BOND
     1    1    2 1   
     2    1    6 1   
     3    1   23 1   
     4    2    3 1   
     5    2   22 1   
     6    2   24 1   
     7    3    4 1   
     8    3   25 1   
     9    3   26 1   
    10    4   20 1   
    11    4   28 1   
    12    5   27 1   
    13    5   29 1   
    14    5   30 1   
    15    5   37 1   
    16    7    8 1   
    17    7   12 1   
    18    7   13 1   
    19    8    9 1   
    20    8   16 1   
    21    9   10 1   
    22    9   31 1   
    23    9   32 1   
    24   10   11 1   
    25   11   12 1   
    26   11   33 1   
    27   12   39 1   
    28   13   14 1   
    29   13   34 1   
    30   14   15 1   
    31   14   41 1   
    32   15   16 1   
    33   15   17 1   
    34   16   35 1   
    35   17   18 1   
    36   17   36 1   
    37   18   19 1   
    38   18   21 1   
    39   20   38 1   
    40   20   40 1   
@<TRIPOS>SUBSTRUCTURE
     1 3NC         1 TEMP              0 ****  ****    0 ROOT
