@<TRIPOS>MOLECULE
3NC
   41    40     1     0     0
SMALL
bcc


@<TRIPOS>ATOM
      1 C1          1.3150    2.8240    0.7860 c2        1 3NC     -0.501000
      2 C2          1.6450    1.6150   -0.0000 c3        1 3NC     -0.075000
      3 C3          0.6350    0.4880    0.1410 c3        1 3NC     -0.221000
      4 C4          0.5320   -0.0030    1.5420 c2        1 3NC      0.151000
      5 C5          0.1630    1.3810    4.7670 c3        1 3NC     -0.283000
      6 C6          0.3250    3.0130    1.6270 c1        1 3NC      0.187000
      7 C7         -2.0380   -5.5770    2.6020 ca        1 3NC     -0.142000
      8 C8         -2.2060   -4.3880    1.8730 ca        1 3NC     -0.030000
      9 C9         -3.2470   -3.4050    2.2790 c3        1 3NC     -0.197000
     10 C10        -3.9600   -3.6890    3.5550 c1        1 3NC     -0.046000
     11 N11        -3.7600   -4.8160    4.2090 n         1 3NC     -0.224000
     12 C12        -2.8530   -5.8490    3.8120 c2        1 3NC      0.291000
     13 C13        -1.0960   -6.5250    2.1930 ca        1 3NC     -0.027000
     14 C14        -0.3000   -6.2870    1.0730 ca        1 3NC     -0.116000
     15 C15        -0.4440   -5.0830    0.3340 ca        1 3NC      0.086000
     16 C16        -1.4070   -4.1440    0.7560 ca        1 3NC     -0.192000
     17 N19         0.3470   -4.8570   -0.8090 n         1 3NC     -0.317000
     18 C20         0.7750   -3.6350   -1.2560 c2        1 3NC      0.305000
     19 O21         0.5510   -2.5560   -0.6640 o         1 3NC     -0.465000
     20 N22         0.2120   -1.2190    1.8840 n3        1 3NC     -0.171000
     21 H1          1.3580   -3.6770   -2.2080 h5        1 3NC      0.165000
     22 H2          1.6930    1.8910   -1.0920 hc        1 3NC      0.124000
     23 H2A         2.0120    3.6780    0.6150 ha        1 3NC      0.224000
     24 H3          0.9030   -0.3440   -0.5740 hc        1 3NC      0.171000
     25 H3A         2.6660    1.2500    0.2960 hc        1 3NC      0.124000
     26 H4         -0.3910    0.8570   -0.1590 hc        1 3NC      0.171000
     27 H5         -0.0260    2.1370    3.9700 hc        1 3NC      0.071500
     28 H5A         0.7230    0.7460    2.3600 h4        1 3NC      0.212000
     29 H6         -0.3950    1.6720    5.6840 hc        1 3NC      0.071500
     30 H6A        -0.1880    0.3790    4.4320 hc        1 3NC      0.071500
     31 H9         -4.0450   -3.3480    1.4820 hc        1 3NC      0.137500
     32 H10        -2.8040   -2.3760    2.3680 hc        1 3NC      0.137500
     33 HN11       -4.2860   -4.9890    5.0470 hn        1 3NC      0.277000
     34 H13        -0.9900   -7.4640    2.7690 ha        1 3NC      0.192000
     35 H16        -1.5680   -3.2240    0.1700 ha        1 3NC      0.151000
     36 HN19        0.6470   -5.6760   -1.3000 hn        1 3NC      0.267000
     37 HN22        1.2500    1.3380    4.9980 hc        1 3NC      0.071500
     38 HN2A        0.0360   -1.9510    1.2000 hn        1 3NC      0.292000
     39 O17        -2.7660   -6.8890    4.4760 o         1 3NC     -0.269000
     40 H223        0.1370   -1.4830    2.8510 hn        1 3NC      0.292000
     41 CL18        0.8300   -7.4620    0.6060 cl        1 3NC      0.030000
@<TRIPOS>BOND
     1    1    2 1   
     2    1    6 1   
     3    1   23 1   
     4    2    3 1   
     5    2   22 1   
     6    2   25 1   
     7    3    4 1   
     8    3   24 1   
     9    3   26 1   
    10    4   20 1   
    11    4   28 1   
    12    5   27 1   
    13    5   29 1   
    14    5   30 1   
    15    5   37 1   
    16    7    8 1   
    17    7   12 1   
    18    7   13 1   
    19    8    9 1   
    20    8   16 1   
    21    9   10 1   
    22    9   31 1   
    23    9   32 1   
    24   10   11 1   
    25   11   12 1   
    26   11   33 1   
    27   12   39 1   
    28   13   14 1   
    29   13   34 1   
    30   14   15 1   
    31   14   41 1   
    32   15   16 1   
    33   15   17 1   
    34   16   35 1   
    35   17   18 1   
    36   17   36 1   
    37   18   19 1   
    38   18   21 1   
    39   20   38 1   
    40   20   40 1   
@<TRIPOS>SUBSTRUCTURE
     1 3NC         1 TEMP              0 ****  ****    0 ROOT
