@<TRIPOS>MOLECULE
3NC
   40    42     1     0     0
SMALL
bcc


@<TRIPOS>ATOM
      1 C1         -3.1730    0.1870   -1.1000 c3        1 3NC     -0.131700
      2 C2         -3.6600    1.1270   -0.0070 c3        1 3NC     -0.065400
      3 C3         -3.9890    0.4000    1.2780 c3        1 3NC     -0.100900
      4 C4         -5.0710   -0.6620    1.0290 c3        1 3NC      0.164500
      5 C5         -4.5450   -1.6520   -0.0240 c3        1 3NC     -0.100900
      6 C6         -4.1650   -0.9490   -1.3080 c3        1 3NC     -0.065400
      7 C7          3.3960    0.1070   -0.1690 ca        1 3NC     -0.185600
      8 C8          2.5550   -1.0240   -0.1570 ca        1 3NC      0.047200
      9 C9          3.1390   -2.3180    0.0850 cc        1 3NC     -0.218200
     10 C10         4.4830   -2.4260    0.2970 cd        1 3NC      0.011600
     11 N11         5.3250   -1.3340    0.2900 n         1 3NC     -0.456100
     12 C12         4.8430   -0.0350    0.0630 c         1 3NC      0.708100
     13 C13         2.8520    1.3770   -0.4020 ca        1 3NC     -0.027000
     14 C14         1.4920    1.5220   -0.6200 ca        1 3NC     -0.066600
     15 C15         0.6150    0.3900   -0.6140 ca        1 3NC      0.121600
     16 C16         1.1770   -0.8760   -0.3800 ca        1 3NC     -0.178000
     17 CL18        0.8820    3.0920   -0.8990 cl        1 3NC     -0.099400
     18 N19        -0.7480    0.5900   -0.8490 n         1 3NC     -0.473100
     19 C20        -1.7730   -0.3540   -0.7990 c         1 3NC      0.673100
     20 O21        -1.5630   -1.5540   -0.5540 o         1 3NC     -0.583100
     21 N22        -5.5190   -1.2750    2.2660 n3        1 3NC     -0.900800
     22 H1         -3.1110    0.7660   -2.0670 hc        1 3NC      0.066700
     23 H2         -2.8960    1.9210    0.2010 hc        1 3NC      0.050200
     24 H2A        -4.5820    1.6480   -0.3840 hc        1 3NC      0.050200
     25 H3         -3.0640   -0.0890    1.6830 hc        1 3NC      0.055200
     26 H3A        -4.3490    1.1390    2.0400 hc        1 3NC      0.055200
     27 H4         -5.9760   -0.1410    0.5910 h1        1 3NC      0.055700
     28 H5         -3.6470   -2.1930    0.3790 hc        1 3NC      0.055200
     29 H5A        -5.3320   -2.4180   -0.2510 hc        1 3NC      0.055200
     30 H6         -5.0860   -0.5200   -1.7860 hc        1 3NC      0.050200
     31 H6A        -3.7230   -1.6980   -2.0170 hc        1 3NC      0.050200
     32 H9          2.4920   -3.2040    0.0960 ha        1 3NC      0.156000
     33 H10         4.9690   -3.4010    0.4860 h4        1 3NC      0.151000
     34 HN11        6.3000   -1.4560    0.4500 hn        1 3NC      0.334500
     35 H13         3.5250    2.2530   -0.4080 ha        1 3NC      0.174000
     36 H16         0.5450   -1.7800   -0.3660 ha        1 3NC      0.182000
     37 HN19       -1.0210    1.5340   -1.0310 hn        1 3NC      0.328500
     38 HN22       -6.1610   -2.0170    2.0660 hn        1 3NC      0.346800
     39 HN2A       -4.7440   -1.6490    2.7770 hn        1 3NC      0.346800
     40 O17         5.6570    0.9100    0.0690 o         1 3NC     -0.636500
@<TRIPOS>BOND
     1    1    2 1   
     2    1    6 1   
     3    1   19 1   
     4    1   22 1   
     5    2    3 1   
     6    2   23 1   
     7    2   24 1   
     8    3    4 1   
     9    3   25 1   
    10    3   26 1   
    11    4    5 1   
    12    4   21 1   
    13    4   27 1   
    14    5    6 1   
    15    5   28 1   
    16    5   29 1   
    17    6   30 1   
    18    6   31 1   
    19    7    8 ar  
    20    7   12 1   
    21    7   13 ar  
    22    8    9 1   
    23    8   16 ar  
    24    9   10 2   
    25    9   32 1   
    26   10   11 1   
    27   10   33 1   
    28   11   12 1   
    29   11   34 1   
    30   12   40 2   
    31   13   14 ar  
    32   13   35 1   
    33   14   15 ar  
    34   14   17 1   
    35   15   16 ar  
    36   15   18 1   
    37   16   36 1   
    38   18   19 1   
    39   18   37 1   
    40   19   20 2   
    41   21   38 1   
    42   21   39 1   
@<TRIPOS>SUBSTRUCTURE
     1 3NC         1 TEMP              0 ****  ****    0 ROOT
