@<TRIPOS>MOLECULE
3ND
   44    42     1     0     0
SMALL
bcc


@<TRIPOS>ATOM
      1 C1          4.6310    3.2130   -3.9780 c1        1 3ND     -0.004000
      2 N2          4.2850    2.5530   -5.1770 n1        1 3ND     -0.197000
      3 C3          3.6340    1.3020   -5.1320 c1        1 3ND      0.299000
      4 C4          3.8520    2.9350   -2.7090 c2        1 3ND     -0.167000
      5 C5          3.1940    1.5340   -2.6570 c2        1 3ND     -0.008000
      6 C6          3.0180    0.8080   -3.8210 c2        1 3ND     -0.185000
      7 C7          2.2950   -0.3980   -3.7940 c2        1 3ND     -0.029000
      8 C8          1.7570   -0.8620   -2.5950 c1        1 3ND     -0.138000
      9 C9          1.9340   -0.1310   -1.4230 c2        1 3ND      0.125000
     10 C10         2.6510    1.0660   -1.4490 c2        1 3ND     -0.172000
     11 N11         1.3390   -0.5880   -0.1910 n         1 3ND     -0.325000
     12 C12        -0.0690   -0.9350   -0.1530 c2        1 3ND      0.320000
     13 C13        -0.7460   -1.3010    1.2130 c3        1 3ND     -0.154000
     14 C14        -0.9010   -2.5790    1.2930 c3        1 3ND     -0.086000
     15 N15        -2.3110   -2.9240    0.6430 n3        1 3ND     -0.268000
     16 C16        -3.0890   -2.0350    0.9880 c3        1 3ND     -0.088000
     17 C17        -2.2380   -0.8100    1.2120 c3        1 3ND     -0.090000
     18 C18        -2.5690   -0.1950    2.5040 c2        1 3ND     -0.074000
     19 C19        -2.4870   -0.9440    3.6710 c2        1 3ND     -0.121000
     20 C20        -2.8780   -0.3870    4.8850 c1        1 3ND     -0.123000
     21 C21        -3.3510    0.9180    4.9300 c1        1 3ND     -0.059000
     22 C22        -3.4340    1.6680    3.7650 c1        1 3ND     -0.123000
     23 C23        -3.0430    1.1120    2.5510 c1        1 3ND     -0.111000
     24 CL24       -3.9280    1.5870    6.4420 cl        1 3ND     -0.012000
     25 O25         3.5060    0.6450   -6.1500 o         1 3ND     -0.261000
     26 CL26        0.8890   -2.3680   -2.5560 cl        1 3ND     -0.013000
     27 O27        -0.7470   -0.8410   -1.1630 o         1 3ND     -0.346000
     28 H1          5.3250    3.9010   -3.9830 ha        1 3ND      0.159000
     29 H4          3.2140    3.6760   -2.6300 ha        1 3ND      0.131000
     30 H4A         4.4030    3.0280   -1.9080 ha        1 3ND      0.131000
     31 H7          2.1710   -0.9100   -4.6130 ha        1 3ND      0.176000
     32 H10         2.7760    1.5800   -0.6250 ha        1 3ND      0.181000
     33 HN11        1.8660   -0.7430    0.5390 hn        1 3ND      0.245000
     34 H13        -0.1330   -0.8800    1.8450 hc        1 3ND      0.125000
     35 H14        -0.1830   -3.0360    0.7970 h1        1 3ND      0.097500
     36 H14A       -0.8890   -2.8570    2.2280 h1        1 3ND      0.097500
     37 HN15       -2.2340   -2.9250   -0.2690 hn        1 3ND      0.153000
     38 H16        -3.7440   -1.8660    0.2800 h1        1 3ND      0.100000
     39 H16A       -3.5460   -2.2880    1.8210 h1        1 3ND      0.100000
     40 H17        -2.3780   -0.1700    0.4910 hc        1 3ND      0.133000
     41 H19        -2.1550   -1.8600    3.6390 ha        1 3ND      0.141000
     42 H20        -2.8200   -0.9170    5.7090 ha        1 3ND      0.149000
     43 H22        -3.7670    2.5880    3.7970 ha        1 3ND      0.150000
     44 H23        -3.1010    1.6400    1.7300 ha        1 3ND      0.143000
@<TRIPOS>BOND
     1    1    2 1   
     2    1   28 1   
     3    3    6 1   
     4    3   25 1   
     5    4    5 1   
     6    4   29 1   
     7    4   30 1   
     8    5    6 1   
     9    5   10 1   
    10    6    7 1   
    11    7    8 1   
    12    7   31 1   
    13    8    9 1   
    14    9   10 1   
    15    9   11 1   
    16   10   32 1   
    17   11   12 1   
    18   11   33 1   
    19   12   13 1   
    20   12   27 1   
    21   13   14 1   
    22   13   17 1   
    23   13   34 1   
    24   14   15 1   
    25   14   35 1   
    26   14   36 1   
    27   15   16 1   
    28   15   37 1   
    29   16   17 1   
    30   16   38 1   
    31   16   39 1   
    32   17   18 1   
    33   17   40 1   
    34   18   19 1   
    35   18   23 1   
    36   19   20 1   
    37   19   41 1   
    38   20   42 1   
    39   21   22 1   
    40   21   24 1   
    41   22   43 1   
    42   23   44 1   
@<TRIPOS>SUBSTRUCTURE
     1 3ND         1 TEMP              0 ****  ****    0 ROOT
