@<TRIPOS>MOLECULE
3ND
   44    47     1     0     0
SMALL
bcc


@<TRIPOS>ATOM
      1 C1          5.9510    0.6290    2.4620 c2        1 3ND      0.488200
      2 N2          6.7180   -0.1140    1.7470 ne        1 3ND     -0.624100
      3 C3          6.2070   -0.7170    0.5520 c         1 3ND      0.698100
      4 C4          4.5170    0.9800    2.2150 c3        1 3ND     -0.156400
      5 C5          3.9770    0.3600    0.9750 ca        1 3ND     -0.015300
      6 C6          4.7920   -0.4570    0.1770 ca        1 3ND     -0.205600
      7 C7          4.2650   -1.0310   -0.9830 ca        1 3ND     -0.029000
      8 C8          2.9440   -0.7950   -1.3480 ca        1 3ND     -0.059600
      9 C9          2.1000    0.0320   -0.5520 ca        1 3ND      0.117600
     10 C10         2.6510    0.6000    0.6170 ca        1 3ND     -0.172000
     11 N11         0.7760    0.2400   -0.9490 n         1 3ND     -0.471100
     12 C12        -0.1680    1.0830   -0.3660 c         1 3ND      0.676100
     13 C13        -1.5300    1.0930   -1.0500 c3        1 3ND     -0.164700
     14 C14        -1.4750    1.9280   -2.3560 c3        1 3ND      0.150800
     15 N15        -2.3340    3.0970   -2.2210 n3        1 3ND     -0.789200
     16 C16        -3.2120    2.8740   -1.0780 c3        1 3ND      0.148800
     17 C17        -2.6140    1.7590   -0.1810 c3        1 3ND     -0.043400
     18 C18        -3.6470    0.7900    0.2800 ca        1 3ND     -0.081300
     19 C19        -3.8570    0.5970    1.6510 ca        1 3ND     -0.116000
     20 C20        -4.8220   -0.3020    2.1010 ca        1 3ND     -0.123000
     21 C21        -5.5860   -1.0160    1.1730 ca        1 3ND      0.019400
     22 C22        -5.3870   -0.8330   -0.1990 ca        1 3ND     -0.123000
     23 C23        -4.4200    0.0680   -0.6380 ca        1 3ND     -0.116000
     24 CL24       -6.7650   -2.1140    1.7160 cl        1 3ND     -0.090400
     25 O25         6.9450   -1.4340   -0.1370 o         1 3ND     -0.500100
     26 CL26        2.3580   -1.5230   -2.7750 cl        1 3ND     -0.091400
     27 O27         0.0820    1.7850    0.6290 o         1 3ND     -0.585100
     28 H1          6.3970    1.0720    3.3780 h4        1 3ND      0.029800
     29 H4          3.9050    0.6490    3.1000 hc        1 3ND      0.091700
     30 H4A         4.4250    2.1000    2.1470 hc        1 3ND      0.091700
     31 H7          4.9150   -1.6740   -1.6050 ha        1 3ND      0.176000
     32 H10         2.0360    1.2460    1.2680 ha        1 3ND      0.181000
     33 HN11        0.4830   -0.2650   -1.7600 hn        1 3ND      0.331500
     34 H13        -1.8350    0.0380   -1.2900 hc        1 3ND      0.085700
     35 H14        -0.4230    2.2190   -2.6170 h1        1 3ND      0.058200
     36 H14A       -1.8820    1.3060   -3.2000 h1        1 3ND      0.058200
     37 HN15       -1.7800    3.9220   -2.0810 hn        1 3ND      0.357800
     38 H16        -3.3600    3.8140   -0.4840 h1        1 3ND      0.060700
     39 H16A       -4.2130    2.5530   -1.4780 h1        1 3ND      0.060700
     40 H17        -2.1300    2.2410    0.7160 hc        1 3ND      0.093700
     41 H19        -3.2560    1.1570    2.3840 ha        1 3ND      0.142000
     42 H20        -4.9790   -0.4470    3.1800 ha        1 3ND      0.149500
     43 H22        -5.9900   -1.3940   -0.9290 ha        1 3ND      0.149500
     44 H23        -4.2650    0.2150   -1.7180 ha        1 3ND      0.142000
@<TRIPOS>BOND
     1    1    2 2   
     2    1    4 1   
     3    1   28 1   
     4    2    3 1   
     5    3    6 1   
     6    3   25 2   
     7    4    5 1   
     8    4   29 1   
     9    4   30 1   
    10    5    6 ar  
    11    5   10 ar  
    12    6    7 ar  
    13    7    8 ar  
    14    7   31 1   
    15    8    9 ar  
    16    8   26 1   
    17    9   10 ar  
    18    9   11 1   
    19   10   32 1   
    20   11   12 1   
    21   11   33 1   
    22   12   13 1   
    23   12   27 2   
    24   13   14 1   
    25   13   17 1   
    26   13   34 1   
    27   14   15 1   
    28   14   35 1   
    29   14   36 1   
    30   15   16 1   
    31   15   37 1   
    32   16   17 1   
    33   16   38 1   
    34   16   39 1   
    35   17   18 1   
    36   17   40 1   
    37   18   19 ar  
    38   18   23 ar  
    39   19   20 ar  
    40   19   41 1   
    41   20   21 ar  
    42   20   42 1   
    43   21   22 ar  
    44   21   24 1   
    45   22   23 ar  
    46   22   43 1   
    47   23   44 1   
@<TRIPOS>SUBSTRUCTURE
     1 3ND         1 TEMP              0 ****  ****    0 ROOT
