@<TRIPOS>MOLECULE
3ND
   44    47     1     0     0
SMALL
bcc


@<TRIPOS>ATOM
      1 C1          0.4540    0.6270   -0.0340 c2        1 3ND      0.488200
      2 N2          1.5900    0.0290   -0.1020 ne        1 3ND     -0.625100
      3 C3          2.1890   -0.4930    1.0890 c         1 3ND      0.698100
      4 C4         -0.3850    0.8730    1.1810 c3        1 3ND     -0.156400
      5 C5          0.2280    0.3340    2.4250 ca        1 3ND     -0.014300
      6 C6          1.4670   -0.3240    2.3780 ca        1 3ND     -0.205600
      7 C7          2.0260   -0.8230    3.5570 ca        1 3ND     -0.029000
      8 C8          1.3610   -0.6720    4.7700 ca        1 3ND     -0.060600
      9 C9          0.1030   -0.0070    4.8390 ca        1 3ND      0.118600
     10 C10        -0.4440    0.4900    3.6370 ca        1 3ND     -0.172000
     11 N11        -0.5300    0.1290    6.0780 ns        1 3ND     -0.472100
     12 C12        -1.7700    0.7080    6.3460 c         1 3ND      0.684100
     13 C13        -2.1650    0.7120    7.8160 c3        1 3ND     -0.167700
     14 C14        -2.2390   -0.7250    8.3890 c3        1 3ND      0.144800
     15 N15        -3.4200   -0.8390    9.2360 n7        1 3ND     -0.784200
     16 C16        -4.3330    0.2370    8.8610 c3        1 3ND      0.143800
     17 C17        -3.5640    1.3140    8.0510 c3        1 3ND     -0.042400
     18 C18        -3.4950    2.6210    8.7660 ca        1 3ND     -0.083300
     19 C19        -3.8860    3.7940    8.1100 ca        1 3ND     -0.116500
     20 C20        -3.8300    5.0240    8.7620 ca        1 3ND     -0.122500
     21 C21        -3.3790    5.0850   10.0840 ca        1 3ND      0.018400
     22 C22        -2.9830    3.9200   10.7510 ca        1 3ND     -0.122500
     23 C23        -3.0430    2.6970   10.0890 ca        1 3ND     -0.116500
     24 Cl24       -3.3080    6.5810   10.8860 cl        1 3ND     -0.089400
     25 O25         3.2840   -1.0690    1.0250 o         1 3ND     -0.501100
     26 Cl26        2.0940   -1.3040    6.1750 cl        1 3ND     -0.093400
     27 O27        -2.4900    1.1970    5.4610 o         1 3ND     -0.581100
     28 H1          0.0350    1.0130   -0.9870 h4        1 3ND      0.028800
     29 H4         -0.5480    1.9810    1.2900 hc        1 3ND      0.092200
     30 H4A        -1.3960    0.4020    1.0240 hc        1 3ND      0.092200
     31 H7          3.0010   -1.3400    3.5110 ha        1 3ND      0.176000
     32 H10        -1.4160    1.0120    3.6380 ha        1 3ND      0.182000
     33 HN11       -0.0440   -0.2620    6.8590 hn        1 3ND      0.330500
     34 H13        -1.3980    1.3100    8.3810 hc        1 3ND      0.085700
     35 H14        -2.3570   -1.4700    7.5540 h1        1 3ND      0.059200
     36 H14A       -1.3010   -0.9750    8.9520 h1        1 3ND      0.059200
     37 HN15       -3.1630   -0.7550   10.2030 hn        1 3ND      0.350800
     38 H16        -4.8290    0.6860    9.7620 h1        1 3ND      0.063200
     39 H16A       -5.1310   -0.2120    8.2090 h1        1 3ND      0.063200
     40 H17        -4.0840    1.4590    7.0630 hc        1 3ND      0.099700
     41 H19        -4.2390    3.7480    7.0670 ha        1 3ND      0.138500
     42 H20        -4.1410    5.9400    8.2380 ha        1 3ND      0.150000
     43 H22        -2.6280    3.9690   11.7920 ha        1 3ND      0.150000
     44 H23        -2.7360    1.7800   10.6140 ha        1 3ND      0.138500
@<TRIPOS>BOND
     1    1    2 2   
     2    1    4 1   
     3    1   28 1   
     4    2    3 1   
     5    3    6 1   
     6    3   25 2   
     7    4    5 1   
     8    4   29 1   
     9    4   30 1   
    10    5    6 ar  
    11    5   10 ar  
    12    6    7 ar  
    13    7    8 ar  
    14    7   31 1   
    15    8    9 ar  
    16    8   26 1   
    17    9   10 ar  
    18    9   11 1   
    19   10   32 1   
    20   11   12 1   
    21   11   33 1   
    22   12   13 1   
    23   12   27 2   
    24   13   14 1   
    25   13   17 1   
    26   13   34 1   
    27   14   15 1   
    28   14   35 1   
    29   14   36 1   
    30   15   16 1   
    31   15   37 1   
    32   16   17 1   
    33   16   38 1   
    34   16   39 1   
    35   17   18 1   
    36   17   40 1   
    37   18   19 ar  
    38   18   23 ar  
    39   19   20 ar  
    40   19   41 1   
    41   20   21 ar  
    42   20   42 1   
    43   21   22 ar  
    44   21   24 1   
    45   22   23 ar  
    46   22   43 1   
    47   23   44 1   
@<TRIPOS>SUBSTRUCTURE
     1 3ND         1 TEMP              0 ****  ****    0 ROOT
