@<TRIPOS>MOLECULE
3ND
   45    48     1     0     0
SMALL
bcc


@<TRIPOS>ATOM
      1 C1          1.0770    1.8620    1.2360 c2        1 3ND      0.499200
      2 N2          2.2690    1.8060    1.7120 ne        1 3ND     -0.594100
      3 C3          2.5210    1.1100    2.9310 c         1 3ND      0.686100
      4 C4         -0.1720    1.2650    1.8100 c3        1 3ND     -0.166400
      5 C5          0.0700    0.5290    3.0800 ca        1 3ND     -0.019300
      6 C6          1.3620    0.4470    3.6240 ca        1 3ND     -0.124600
      7 C7          1.5890   -0.2510    4.8120 ca        1 3ND     -0.040000
      8 C8          0.5290   -0.8720    5.4760 ca        1 3ND      0.007400
      9 C9         -0.7730   -0.7880    4.9350 ca        1 3ND     -0.033400
     10 C10        -0.9980   -0.0890    3.7370 ca        1 3ND     -0.106000
     11 N11        -1.8980   -1.4440    5.6020 n4        1 3ND     -0.563200
     12 C12        -2.9080   -0.4210    6.1380 c         1 3ND      0.580100
     13 C13        -2.5930    0.1260    7.4950 c3        1 3ND     -0.175700
     14 C14        -2.5870   -0.9950    8.5740 c3        1 3ND      0.155800
     15 N15        -3.3070   -0.5250    9.7410 n3        1 3ND     -0.780200
     16 C16        -4.1260    0.6150    9.3490 c3        1 3ND      0.146800
     17 C17        -3.6600    1.1430    7.9650 c3        1 3ND     -0.028400
     18 C18        -3.1050    2.5230    8.0350 ca        1 3ND     -0.123300
     19 C19        -3.6640    3.5380    7.2500 ca        1 3ND     -0.114500
     20 C20        -3.1630    4.8370    7.3120 ca        1 3ND     -0.117000
     21 C21        -2.0920    5.1280    8.1640 ca        1 3ND      0.031400
     22 C22        -1.5310    4.1210    8.9600 ca        1 3ND     -0.117000
     23 C23        -2.0400    2.8280    8.8920 ca        1 3ND     -0.114500
     24 CL24       -1.4760    6.7020    8.2390 cl        1 3ND     -0.051400
     25 O25         3.6540    1.0480    3.4150 o         1 3ND     -0.447100
     26 CL26        0.8200   -1.7240    6.9120 cl        1 3ND     -0.034400
     27 O27        -3.8390   -0.1980    5.3850 o         1 3ND     -0.408100
     28 H1          0.9450    2.4180    0.2820 h4        1 3ND      0.058800
     29 H4         -0.6210    0.5690    1.0460 hc        1 3ND      0.107200
     30 H4A        -0.9180    2.0910    1.9850 hc        1 3ND      0.107200
     31 H7          2.6190   -0.3060    5.2190 ha        1 3ND      0.209000
     32 H10        -2.0130   -0.0170    3.3070 ha        1 3ND      0.171000
     33 HN11       -1.5490   -2.0160    6.3850 hn        1 3ND      0.468300
     34 H13        -1.5840    0.6250    7.4500 hc        1 3ND      0.119700
     35 H14        -1.5330   -1.2940    8.8200 h1        1 3ND      0.057200
     36 H14A       -3.1340   -1.9020    8.1910 h1        1 3ND      0.057200
     37 HN15       -2.6750   -0.2810   10.4820 hn        1 3ND      0.377800
     38 H16        -5.1900    0.2580    9.2690 h1        1 3ND      0.083200
     39 H16A       -4.0890    1.4320   10.1190 h1        1 3ND      0.083200
     40 H17        -4.5410    1.1300    7.2650 hc        1 3ND      0.091700
     41 H19        -4.5150    3.3200    6.5860 ha        1 3ND      0.136000
     42 H20        -3.6150    5.6310    6.6970 ha        1 3ND      0.162000
     43 H22        -0.6960    4.3520    9.6400 ha        1 3ND      0.162000
     44 H23        -1.6080    2.0420    9.5310 ha        1 3ND      0.136000
     45 H112       -2.3660   -2.0560    4.9190 hn        1 3ND      0.468300
@<TRIPOS>BOND
     1    1    2 2   
     2    1    4 1   
     3    1   28 1   
     4    2    3 1   
     5    3    6 1   
     6    3   25 2   
     7    4    5 1   
     8    4   29 1   
     9    4   30 1   
    10    5    6 ar  
    11    5   10 ar  
    12    6    7 ar  
    13    7    8 ar  
    14    7   31 1   
    15    8    9 ar  
    16    8   26 1   
    17    9   10 ar  
    18    9   11 1   
    19   10   32 1   
    20   11   12 1   
    21   11   33 1   
    22   11   45 1   
    23   12   13 1   
    24   12   27 2   
    25   13   14 1   
    26   13   17 1   
    27   13   34 1   
    28   14   15 1   
    29   14   35 1   
    30   14   36 1   
    31   15   16 1   
    32   15   37 1   
    33   16   17 1   
    34   16   38 1   
    35   16   39 1   
    36   17   18 1   
    37   17   40 1   
    38   18   19 ar  
    39   18   23 ar  
    40   19   20 ar  
    41   19   41 1   
    42   20   21 ar  
    43   20   42 1   
    44   21   22 ar  
    45   21   24 1   
    46   22   23 ar  
    47   22   43 1   
    48   23   44 1   
@<TRIPOS>SUBSTRUCTURE
     1 3ND         1 TEMP              0 ****  ****    0 ROOT
