@<TRIPOS>MOLECULE
3ND
   44    47     1     0     0
SMALL
bcc


@<TRIPOS>ATOM
      1 C1          0.4430    0.6110   -0.0370 c2        1 3ND      0.488200
      2 N2          1.5800    0.0170   -0.1050 ne        1 3ND     -0.625100
      3 C3          2.1840   -0.4990    1.0870 c         1 3ND      0.698100
      4 C4         -0.3950    0.8570    1.1790 c3        1 3ND     -0.156400
      5 C5          0.2220    0.3250    2.4240 ca        1 3ND     -0.014300
      6 C6          1.4630   -0.3280    2.3770 ca        1 3ND     -0.205600
      7 C7          2.0260   -0.8210    3.5570 ca        1 3ND     -0.029000
      8 C8          1.3630   -0.6680    4.7700 ca        1 3ND     -0.060600
      9 C9          0.1020   -0.0080    4.8390 ca        1 3ND      0.118600
     10 C10        -0.4480    0.4830    3.6360 ca        1 3ND     -0.172000
     11 N11        -0.5290    0.1310    6.0780 n         1 3ND     -0.472100
     12 C12        -1.7690    0.7080    6.3470 c         1 3ND      0.684100
     13 C13        -2.1620    0.7160    7.8180 c3        1 3ND     -0.167700
     14 C14        -2.2340   -0.7210    8.3950 c3        1 3ND      0.144800
     15 N15        -3.4130   -0.8340    9.2430 n3        1 3ND     -0.785200
     16 C16        -4.3270    0.2410    8.8680 c3        1 3ND      0.143800
     17 C17        -3.5610    1.3170    8.0540 c3        1 3ND     -0.042400
     18 C18        -3.4920    2.6250    8.7650 ca        1 3ND     -0.083300
     19 C19        -3.8860    3.7960    8.1080 ca        1 3ND     -0.116500
     20 C20        -3.8310    5.0270    8.7580 ca        1 3ND     -0.122500
     21 C21        -3.3760    5.0920   10.0780 ca        1 3ND      0.018400
     22 C22        -2.9780    3.9290   10.7470 ca        1 3ND     -0.122500
     23 C23        -3.0380    2.7050   10.0880 ca        1 3ND     -0.116500
     24 CL24       -3.3060    6.5900   10.8770 cl        1 3ND     -0.089400
     25 O25         3.2800   -1.0710    1.0230 o         1 3ND     -0.501100
     26 CL26        2.1000   -1.2920    6.1760 cl        1 3ND     -0.093400
     27 O27        -2.4910    1.1950    5.4620 o         1 3ND     -0.581100
     28 H1          0.0200    0.9910   -0.9910 h4        1 3ND      0.028800
     29 H4         -1.4050    0.3830    1.0260 hc        1 3ND      0.092200
     30 H4A        -0.5630    1.9660    1.2840 hc        1 3ND      0.092200
     31 H7          3.0030   -1.3340    3.5100 ha        1 3ND      0.176000
     32 H10        -1.4230    1.0020    3.6380 ha        1 3ND      0.182000
     33 HN11       -0.0410   -0.2570    6.8600 hn        1 3ND      0.330500
     34 H13        -1.3950    1.3150    8.3800 hc        1 3ND      0.085700
     35 H14        -2.3520   -1.4680    7.5610 h1        1 3ND      0.059200
     36 H14A       -1.2950   -0.9690    8.9560 h1        1 3ND      0.059200
     37 HN15       -3.1550   -0.7480   10.2090 hn        1 3ND      0.350800
     38 H16        -5.1270   -0.2110    8.2180 h1        1 3ND      0.063200
     39 H16A       -4.8220    0.6910    9.7680 h1        1 3ND      0.063200
     40 H17        -4.0830    1.4590    7.0660 hc        1 3ND      0.099700
     41 H19        -4.2410    3.7480    7.0660 ha        1 3ND      0.138500
     42 H20        -4.1430    5.9420    8.2320 ha        1 3ND      0.150000
     43 H22        -2.6210    3.9810   11.7870 ha        1 3ND      0.150000
     44 H23        -2.7280    1.7890   10.6140 ha        1 3ND      0.138500
@<TRIPOS>BOND
     1    1    2 2   
     2    1    4 1   
     3    1   28 1   
     4    2    3 1   
     5    3    6 1   
     6    3   25 2   
     7    4    5 1   
     8    4   29 1   
     9    4   30 1   
    10    5    6 ar  
    11    5   10 ar  
    12    6    7 ar  
    13    7    8 ar  
    14    7   31 1   
    15    8    9 ar  
    16    8   26 1   
    17    9   10 ar  
    18    9   11 1   
    19   10   32 1   
    20   11   12 1   
    21   11   33 1   
    22   12   13 1   
    23   12   27 2   
    24   13   14 1   
    25   13   17 1   
    26   13   34 1   
    27   14   15 1   
    28   14   35 1   
    29   14   36 1   
    30   15   16 1   
    31   15   37 1   
    32   16   17 1   
    33   16   38 1   
    34   16   39 1   
    35   17   18 1   
    36   17   40 1   
    37   18   19 ar  
    38   18   23 ar  
    39   19   20 ar  
    40   19   41 1   
    41   20   21 ar  
    42   20   42 1   
    43   21   22 ar  
    44   21   24 1   
    45   22   23 ar  
    46   22   43 1   
    47   23   44 1   
@<TRIPOS>SUBSTRUCTURE
     1 3ND         1 TEMP              0 ****  ****    0 ROOT
