@<TRIPOS>MOLECULE
3NE
   31    33     1     0     0
SMALL
bcc


@<TRIPOS>ATOM
      1 C4          1.0590    0.0290    1.4480 cu        1 3NE     -0.089000
      2 C5          3.2210   -3.0400   -2.8100 c1        1 3NE      0.095000
      3 C6          2.4240   -0.4260    1.1130 cx        1 3NE     -0.061000
      4 C7         -0.2500   -0.0680    1.2880 c2        1 3NE      0.000000
      5 C8          2.9260   -2.5470   -1.4600 c3        1 3NE     -0.140000
      6 C10         3.1760   -1.1110   -1.2800 c2        1 3NE     -0.261000
      7 C13        -0.8660   -1.0640    0.2930 c3        1 3NE      0.468000
      8 C1         -1.9470    1.4240    2.5810 c1        1 3NE     -0.141000
      9 C2          2.1810    0.6870    2.1190 cx        1 3NE     -0.142000
     10 C3         -1.1710    0.7350    1.9840 c1        1 3NE     -0.147000
     11 C9          3.3500   -2.0870   -3.9440 c2        1 3NE      0.251000
     12 C11         2.9830   -0.1520   -0.2120 c2        1 3NE     -0.028000
     13 C12         3.6640   -0.3260   -2.3720 c2        1 3NE      0.088000
     14 N15         3.7510    0.9950   -1.9070 na        1 3NE     -0.161000
     15 N16         3.8730   -0.8040   -3.6560 n         1 3NE     -0.323000
     16 N17         3.3770    1.0880   -0.6290 n2        1 3NE     -0.072000
     17 O18         3.1420   -2.3910   -5.1260 o         1 3NE     -0.253000
     18 F19        -2.0610   -1.6070    0.6900 f         1 3NE     -0.165333
     19 F20        -1.1280   -0.5270   -0.9440 f         1 3NE     -0.165333
     20 F21        -0.0870   -2.1630    0.0150 f         1 3NE     -0.165333
     21 F22         3.2390   -3.3930    0.8400 f         1 3NE     -0.154667
     22 F23         3.6190   -4.8070   -0.7390 f         1 3NE     -0.154667
     23 F24         5.0460   -3.2110   -0.3530 f         1 3NE     -0.154667
     24 H4          2.7470   -1.4160    1.5090 hc        1 3NE      0.165000
     25 H5          1.8200   -2.7760   -1.2760 hc        1 3NE      0.212000
     26 H1          2.3700    0.4740    3.1890 hc        1 3NE      0.141000
     27 H2         -2.6410    2.0300    3.1060 ha        1 3NE      0.232000
     28 H3          2.4260    1.7340    1.8570 hc        1 3NE      0.141000
     29 HN16        4.1140   -0.1820   -4.3960 hn        1 3NE      0.247000
     30 HN15        4.1780    1.7680   -2.3630 hn        1 3NE      0.284000
     31 C14         3.7060   -3.4730   -0.4470 c3        1 3NE      0.453000
@<TRIPOS>BOND
     1    1    3 1   
     2    1    4 1   
     3    1    9 1   
     4    2    5 1   
     5    2   11 1   
     6    3    9 1   
     7    3   12 1   
     8    3   24 1   
     9    4    7 1   
    10    4   10 1   
    11    5    6 1   
    12    5   25 1   
    13    5   31 1   
    14    6   12 1   
    15    6   13 1   
    16    7   18 1   
    17    7   19 1   
    18    7   20 1   
    19    8   10 1   
    20    8   27 1   
    21    9   26 1   
    22    9   28 1   
    23   11   15 1   
    24   11   17 1   
    25   12   16 1   
    26   13   14 1   
    27   13   15 1   
    28   14   16 1   
    29   14   30 1   
    30   15   29 1   
    31   21   31 1   
    32   22   31 1   
    33   23   31 1   
@<TRIPOS>SUBSTRUCTURE
     1 3NE         1 TEMP              0 ****  ****    0 ROOT
