@<TRIPOS>MOLECULE
3NE
   31    33     1     0     0
SMALL
bcc


@<TRIPOS>ATOM
      1 C4         -1.8160    0.6780    0.0190 ca        1 3NE     -0.046000
      2 C5          3.6940   -0.6660   -0.7120 cc        1 3NE     -0.220200
      3 C6         -0.7250    0.3330    0.8270 ca        1 3NE     -0.141500
      4 C7         -3.0390    0.0320    0.2060 ca        1 3NE     -0.172300
      5 C8          2.3870   -0.6480   -0.3340 cd        1 3NE      0.010600
      6 C10         1.8160    0.5510    0.1700 cd        1 3NE     -0.272100
      7 C13        -4.2230    0.3870   -0.6860 c3        1 3NE      0.688200
      8 C1         -2.1010   -1.2760    2.0000 ca        1 3NE     -0.135000
      9 C2         -0.8710   -0.6420    1.8210 ca        1 3NE     -0.070000
     10 C3         -3.1880   -0.9440    1.1940 ca        1 3NE     -0.068000
     11 C9          4.5660    0.5120   -0.6300 c         1 3NE      0.705700
     12 C11         0.5390    1.0450    0.6620 cd        1 3NE      0.426800
     13 C12         2.6790    1.7100    0.2350 cc        1 3NE      0.077300
     14 N15         1.9000    2.7630    0.7290 na        1 3NE     -0.037600
     15 N16         4.0010    1.7100   -0.1380 n         1 3NE     -0.431100
     16 N17         0.6470    2.3670    0.9800 nc        1 3NE     -0.482800
     17 O18         5.7630    0.5330   -0.9600 o         1 3NE     -0.603500
     18 F19        -5.4490    0.2760   -0.0750 f         1 3NE     -0.236300
     19 F20        -4.2070    1.6700   -1.1770 f         1 3NE     -0.236300
     20 F21        -4.3370   -0.3990   -1.8080 f         1 3NE     -0.236300
     21 F22         0.4330   -1.8300   -1.2160 f         1 3NE     -0.227967
     22 F23         2.2560   -2.9760   -1.0650 f         1 3NE     -0.227967
     23 F24         1.1700   -2.4750    0.7330 f         1 3NE     -0.227967
     24 H4         -1.7140    1.4560   -0.7540 ha        1 3NE      0.160000
     25 H5          4.1840   -1.5700   -1.1110 ha        1 3NE      0.189000
     26 H1         -2.2120   -2.0440    2.7810 ha        1 3NE      0.147000
     27 H2         -0.0120   -0.9180    2.4520 ha        1 3NE      0.150000
     28 H3         -4.1620   -1.4390    1.3350 ha        1 3NE      0.154000
     29 HN16        4.5630    2.5300   -0.0770 hn        1 3NE      0.343500
     30 HN15        2.1790    3.6990    0.9130 hn        1 3NE      0.337700
     31 C14         1.5740   -1.9420   -0.4660 c3        1 3NE      0.683100
@<TRIPOS>BOND
     1    1    3 ar  
     2    1    4 ar  
     3    1   24 1   
     4    2    5 2   
     5    2   11 1   
     6    2   25 1   
     7    3    9 ar  
     8    3   12 1   
     9    4    7 1   
    10    4   10 ar  
    11    5    6 1   
    12    5   31 1   
    13    6   12 1   
    14    6   13 2   
    15    7   18 1   
    16    7   19 1   
    17    7   20 1   
    18    8    9 ar  
    19    8   10 ar  
    20    8   26 1   
    21    9   27 1   
    22   10   28 1   
    23   11   15 1   
    24   11   17 2   
    25   12   16 2   
    26   13   14 1   
    27   13   15 1   
    28   14   16 1   
    29   14   30 1   
    30   15   29 1   
    31   21   31 1   
    32   22   31 1   
    33   23   31 1   
@<TRIPOS>SUBSTRUCTURE
     1 3NE         1 TEMP              0 ****  ****    0 ROOT
