@<TRIPOS>MOLECULE
3NE
   31    33     1     0     0
SMALL
bcc


@<TRIPOS>ATOM
      1 C4          1.1240    0.0150    1.4860 cu        1 3NE     -0.089000
      2 C5          3.1110   -3.0210   -2.8780 c1        1 3NE      0.095000
      3 C6          2.4700   -0.4620    1.1100 cx        1 3NE     -0.061000
      4 C7         -0.1900   -0.0500    1.3570 c2        1 3NE      0.000000
      5 C8          2.8620   -2.5460   -1.5120 c3        1 3NE     -0.140000
      6 C10         3.1470   -1.1190   -1.3130 c2        1 3NE     -0.261000
      7 C13        -0.8520   -1.0160    0.3610 c3        1 3NE      0.468000
      8 C1         -1.8220    1.4540    2.7170 c1        1 3NE     -0.141000
      9 C2          2.2760    0.6370    2.1410 cx        1 3NE     -0.142000
     10 C3         -1.0760    0.7590    2.0900 c1        1 3NE     -0.147000
     11 C9          3.2340   -2.0500   -3.9980 c2        1 3NE      0.251000
     12 C11         3.0020   -0.1770   -0.2240 c2        1 3NE     -0.028000
     13 C12         3.6260   -0.3260   -2.4020 c2        1 3NE      0.088000
     14 N15         3.7530    0.9850   -1.9170 na        1 3NE     -0.161000
     15 N16         3.7930   -0.7840   -3.7000 n         1 3NE     -0.323000
     16 N17         3.4130    1.0620   -0.6280 n2        1 3NE     -0.072000
     17 O18         2.9890   -2.3280   -5.1790 o         1 3NE     -0.253000
     18 F19        -2.0490   -1.5390    0.7780 f         1 3NE     -0.165333
     19 F20        -1.1320   -0.4510   -0.8600 f         1 3NE     -0.165333
     20 F21        -0.1040   -2.1260    0.0450 f         1 3NE     -0.165333
     21 F22         3.2150   -3.4400    0.7640 f         1 3NE     -0.154667
     22 F23         3.5210   -4.8340   -0.8490 f         1 3NE     -0.154667
     23 F24         4.9940   -3.2780   -0.4730 f         1 3NE     -0.154667
     24 H4          2.7810   -1.4660    1.4800 hc        1 3NE      0.165000
     25 H5          1.7560   -2.7550   -1.3040 hc        1 3NE      0.212000
     26 H1          2.4870    0.4010    3.2020 hc        1 3NE      0.141000
     27 H2         -2.4900    2.0660    3.2700 ha        1 3NE      0.232000
     28 H3          2.5370    1.6840    1.8910 hc        1 3NE      0.141000
     29 HN16        4.0280   -0.1540   -4.4340 hn        1 3NE      0.247000
     30 HN15        4.1860    1.7570   -2.3690 hn        1 3NE      0.284000
     31 C14         3.6470   -3.5070   -0.5370 c3        1 3NE      0.453000
@<TRIPOS>BOND
     1    1    3 1   
     2    1    4 1   
     3    1    9 1   
     4    2    5 1   
     5    2   11 1   
     6    3    9 1   
     7    3   12 1   
     8    3   24 1   
     9    4    7 1   
    10    4   10 1   
    11    5    6 1   
    12    5   25 1   
    13    5   31 1   
    14    6   12 1   
    15    6   13 1   
    16    7   18 1   
    17    7   19 1   
    18    7   20 1   
    19    8   10 1   
    20    8   27 1   
    21    9   26 1   
    22    9   28 1   
    23   11   15 1   
    24   11   17 1   
    25   12   16 1   
    26   13   14 1   
    27   13   15 1   
    28   14   16 1   
    29   14   30 1   
    30   15   29 1   
    31   21   31 1   
    32   22   31 1   
    33   23   31 1   
@<TRIPOS>SUBSTRUCTURE
     1 3NE         1 TEMP              0 ****  ****    0 ROOT
