@<TRIPOS>MOLECULE
3NE
   31    25     1     0     0
SMALL
bcc


@<TRIPOS>ATOM
      1 C4         -1.0230    0.1180    1.5160 c1        1 3NE     -0.066000
      2 C5          0.5570   -0.0580   -3.9290 c1        1 3NE     -0.066000
      3 C6          0.2270   -0.3640    1.1610 c1        1 3NE     -0.034000
      4 C7         -1.5600   -0.1960    2.7550 c1        1 3NE     -0.054100
      5 C8          0.4250   -0.5930   -2.5930 c1        1 3NE     -0.054100
      6 C10         0.8310    0.2460   -1.4040 c1        1 3NE     -0.195000
      7 C13        -2.7710    0.5400    3.2860 c3        1 3NE      0.653000
      8 C1          0.4020   -1.4730    3.2830 c1        1 3NE     -0.044000
      9 C2          0.9400   -1.1590    2.0440 c1        1 3NE     -0.012500
     10 C3         -0.8470   -0.9920    3.6380 c1        1 3NE     -0.044000
     11 C9          1.0840    1.2960   -4.1230 c1        1 3NE      0.797900
     12 C11         0.7920    0.0040   -0.0510 c1        1 3NE      0.270400
     13 C12         1.3300    1.5290   -1.5950 c1        1 3NE      0.270400
     14 C14        -0.0190   -2.0260   -2.3920 c3        1 3NE      0.653000
     15 N15         1.5930    2.0630   -0.3720 ne        1 3NE     -0.336400
     16 N16         1.4680    2.0880   -2.9850 n2        1 3NE     -0.749800
     17 N17         1.2600    1.1180    0.5900 ne        1 3NE     -0.336400
     18 O18         1.1510    1.7660   -5.2410 o         1 3NE     -0.561500
     19 F19        -3.8850   -0.0430    2.8280 f         1 3NE     -0.232133
     20 F20        -2.7340    1.8150    2.8760 f         1 3NE     -0.232133
     21 F21        -2.7640    0.5020    4.6250 f         1 3NE     -0.232133
     22 F22        -1.3530   -2.0680   -2.2800 f         1 3NE     -0.232133
     23 F23         0.3640   -2.7630   -3.4430 f         1 3NE     -0.232133
     24 F24         0.5390   -2.5140   -1.2770 f         1 3NE     -0.232133
     25 H4         -1.5250    0.6780    0.8940 ha        1 3NE      0.117000
     26 H5          0.2960   -0.5960   -4.6990 ha        1 3NE      0.117000
     27 H1          0.9040   -2.0340    3.9050 ha        1 3NE      0.093000
     28 H2          1.8200   -1.4980    1.7940 ha        1 3NE      0.092500
     29 H3         -1.2260   -1.2130    4.5100 ha        1 3NE      0.093000
     30 HN16        1.7960    2.9300   -3.1070 hn        1 3NE      0.501400
     31 HN15        1.9290    2.8960   -0.2120 DU        1 3NE      0.288000
@<TRIPOS>BOND
     1    1    4 3   
     2    1   25 1   
     3    2    5 3   
     4    2   26 1   
     5    3    9 3   
     6    4    7 1   
     7    5   14 1   
     8    6   12 2   
     9    6   13 2   
    10    7   19 1   
    11    7   20 1   
    12    7   21 1   
    13    8   10 3   
    14    8   27 1   
    15    9   28 1   
    16   10   29 1   
    17   11   16 2   
    18   11   18 2   
    19   12   17 2   
    20   13   15 2   
    21   14   22 1   
    22   14   23 1   
    23   14   24 1   
    24   15   17 1   
    25   16   30 1   
@<TRIPOS>SUBSTRUCTURE
     1 3NE         1 TEMP              0 ****  ****    0 ROOT
