@<TRIPOS>MOLECULE
3NF
   28    25     1     0     0
SMALL
bcc


@<TRIPOS>ATOM
      1 O1         -2.2510   -0.4850    2.7890 o         1 3NF     -0.407000
      2 C2         -2.2640   -1.5240    2.0080 c1        1 3NF      0.284000
      3 C3         -3.0110   -2.7470    2.4080 c2        1 3NF     -0.245000
      4 N4         -1.5920   -1.4680    0.6870 n3        1 3NF     -0.331000
      5 C5         -1.1580   -0.2520    0.1870 c3        1 3NF     -0.073000
      6 C6         -2.3560    0.5800   -0.2290 c2        1 3NF      0.327000
      7 O7         -3.2560    0.0760   -1.0370 o         1 3NF     -0.566000
      8 OXT        -2.5520    1.7790    0.3230 o         1 3NF     -0.566000
      9 C9         -0.2590   -0.4870   -1.0320 c3        1 3NF     -0.111000
     10 C10         1.0100    0.3990   -0.9140 c2        1 3NF     -0.077000
     11 C11         2.3030   -0.2110   -0.7450 c2        1 3NF     -0.108000
     12 C12         3.4420    0.5770   -0.7480 c1        1 3NF     -0.173000
     13 C13         3.3270    1.9650   -0.9160 c1        1 3NF      0.046000
     14 C14         2.0680    2.5490   -1.0800 c1        1 3NF     -0.214000
     15 C15         0.9100    1.7460   -1.0770 c1        1 3NF     -0.086000
     16 O16         4.4500    2.7510   -0.9590 oh        1 3NF     -0.274000
     17 H3         -3.4130   -2.6070    3.1910 ha        1 3NF      0.089333
     18 H3A        -2.4000   -3.4860    2.4880 ha        1 3NF      0.089333
     19 H3B        -3.6670   -2.9490    1.7440 ha        1 3NF      0.089333
     20 H2         -1.3490   -2.2540    0.2610 hn        1 3NF      0.234000
     21 H5         -0.6200    0.2630    0.9300 h1        1 3NF      0.114000
     22 H9         -0.7630   -0.2400   -1.8680 hc        1 3NF      0.085000
     23 H9A         0.0100   -1.4610   -1.0760 hc        1 3NF      0.085000
     24 H11         2.3720   -1.1260   -0.6320 ha        1 3NF      0.122000
     25 H12         4.3380    0.1590   -0.6320 ha        1 3NF      0.128000
     26 H14         1.9950    3.4380   -1.1880 ha        1 3NF      0.122000
     27 H15         0.0200    2.1670   -1.1910 ha        1 3NF      0.208000
     28 HO16        4.6660    2.8470   -1.6920 ho        1 3NF      0.205000
@<TRIPOS>BOND
     1    1    2 1   
     2    2    4 1   
     3    3   17 1   
     4    3   18 1   
     5    3   19 1   
     6    4    5 1   
     7    4   20 1   
     8    5    6 1   
     9    5    9 1   
    10    5   21 1   
    11    6    7 1   
    12    6    8 1   
    13    9   10 1   
    14    9   22 1   
    15    9   23 1   
    16   10   11 1   
    17   10   15 1   
    18   11   12 1   
    19   11   24 1   
    20   12   25 1   
    21   13   14 1   
    22   13   16 1   
    23   14   26 1   
    24   15   27 1   
    25   16   28 1   
@<TRIPOS>SUBSTRUCTURE
     1 3NF         1 TEMP              0 ****  ****    0 ROOT
