@<TRIPOS>MOLECULE
3NF
   28    28     1     0     0
SMALL
bcc


@<TRIPOS>ATOM
      1 O1         -0.9790    1.5010   -1.8710 o         1 3NF     -0.660100
      2 C2         -1.4940    1.7790   -0.7620 c         1 3NF      0.642100
      3 C3         -2.0370    3.1720   -0.5170 c3        1 3NF     -0.177100
      4 N4         -1.5230    0.9010    0.2980 n         1 3NF     -0.503900
      5 C5         -1.3990   -0.5320    0.1190 c3        1 3NF     -0.061300
      6 C6         -2.6990   -1.2970    0.5910 c         1 3NF      0.906600
      7 O7         -3.5380   -0.6710    1.2970 o         1 3NF     -0.828300
      8 OXT        -2.7970   -2.4980    0.2280 o         1 3NF     -0.828300
      9 C9         -0.2420   -1.1430    0.9170 c3        1 3NF     -0.034100
     10 C10         1.1330   -0.6970    0.5730 ca        1 3NF     -0.072300
     11 C11         1.4620   -0.1430   -0.6700 ca        1 3NF     -0.102500
     12 C12         2.7740    0.2200   -0.9630 ca        1 3NF     -0.188000
     13 C13         3.7750    0.0290   -0.0030 ca        1 3NF      0.087100
     14 C14         3.4690   -0.5200    1.2500 ca        1 3NF     -0.188000
     15 C15         2.1520   -0.8760    1.5230 ca        1 3NF     -0.102500
     16 O16         5.0970    0.3640   -0.2300 oh        1 3NF     -0.518100
     17 H3         -3.1330    3.1230   -0.3090 hc        1 3NF      0.051700
     18 H3A        -1.5240    3.6480    0.3520 hc        1 3NF      0.051700
     19 H3B        -1.8650    3.7940   -1.4270 hc        1 3NF      0.051700
     20 H2         -2.1540    1.1320    1.0440 hn        1 3NF      0.314500
     21 H5         -1.2560   -0.7590   -0.9760 h1        1 3NF      0.070700
     22 H9         -0.4240   -0.9630    2.0110 hc        1 3NF      0.063200
     23 H9A        -0.3090   -2.2560    0.7480 hc        1 3NF      0.063200
     24 H11         0.6710    0.0310   -1.4220 ha        1 3NF      0.151000
     25 H12         3.0200    0.6590   -1.9400 ha        1 3NF      0.126500
     26 H14         4.2630   -0.6610    1.9930 ha        1 3NF      0.126500
     27 H15         1.9030   -1.3070    2.5050 ha        1 3NF      0.151000
     28 HO16        5.1480    0.7410   -1.1190 ho        1 3NF      0.407000
@<TRIPOS>BOND
     1    1    2 2   
     2    2    3 1   
     3    2    4 1   
     4    3   17 1   
     5    3   18 1   
     6    3   19 1   
     7    4    5 1   
     8    4   20 1   
     9    5    6 1   
    10    5    9 1   
    11    5   21 1   
    12    6    7 1   
    13    6    8 1   
    14    9   10 1   
    15    9   22 1   
    16    9   23 1   
    17   10   11 ar  
    18   10   15 ar  
    19   11   12 ar  
    20   11   24 1   
    21   12   13 ar  
    22   12   25 1   
    23   13   14 ar  
    24   13   16 1   
    25   14   15 ar  
    26   14   26 1   
    27   15   27 1   
    28   16   28 1   
@<TRIPOS>SUBSTRUCTURE
     1 3NF         1 TEMP              0 ****  ****    0 ROOT
