@<TRIPOS>MOLECULE
3NG
   36    31     1     0     0
SMALL
bcc


@<TRIPOS>ATOM
      1 C1          0.0950    0.7410    1.4250 c1        1 3NG     -0.027000
      2 C2          1.4710    0.7510    1.4490 c1        1 3NG     -0.066000
      3 C3          2.1520    0.8170    2.6800 c1        1 3NG     -0.158000
      4 C4          1.4350    0.8720    3.8700 c1        1 3NG     -0.074000
      5 C5          0.0440    0.8620    3.8450 c1        1 3NG     -0.102000
      6 C6         -0.6300    0.7970    2.6300 c1        1 3NG     -0.071000
      7 C7          1.5430    0.6030   -0.9330 c1        1 3NG     -0.048000
      8 C8          2.1970    0.6800    0.2410 c2        1 3NG     -0.043000
      9 N9         -0.5760    0.6620    0.2160 n1        1 3NG     -0.124000
     10 C10         0.1260    0.5930   -0.9540 c1        1 3NG      0.043000
     11 C11         3.6460    0.5540   -2.0970 c1        1 3NG     -0.126750
     12 N12         4.3070    0.6320   -0.9070 n1        1 3NG     -0.143000
     13 C13         3.6070    0.6950    0.2610 c2        1 3NG     -0.065000
     14 C14         2.2570    0.5390   -2.1200 c1        1 3NG     -0.126750
     15 N15        -0.8530    0.6500   -1.9840 n3        1 3NG     -0.221000
     16 C16        -1.7240   -0.4530   -2.2000 c2        1 3NG      0.072000
     17 C17        -3.0510   -0.3770   -1.8040 c2        1 3NG     -0.181000
     18 C18        -3.9090   -1.4390   -2.0450 c1        1 3NG     -0.031000
     19 C19        -3.4400   -2.5770   -2.6830 c1        1 3NG     -0.126750
     20 C20        -2.1140   -2.6540   -3.0780 c1        1 3NG     -0.126750
     21 C21        -1.2560   -1.5910   -2.8370 c1        1 3NG     -0.161000
     22 CL22       -5.5460   -1.3890   -1.4450 cl        1 3NG     -0.040000
     23 C23        -0.7390    0.8760    5.1410 c2        1 3NG      0.358000
     24 O24        -1.1130   -0.2070    5.6620 o         1 3NG     -0.552500
     25 O25        -1.0350    1.9720    5.6850 o         1 3NG     -0.552500
     26 H3          3.1120    0.8680    2.8570 ha        1 3NG      0.116000
     27 H4          2.0260    0.7820    4.6430 ha        1 3NG      0.164000
     28 H6         -1.5850    0.5970    2.6380 ha        1 3NG      0.175000
     29 H11         4.1490    0.5090   -2.9330 ha        1 3NG      0.143750
     30 H13         4.0810    0.7510    1.1110 h4        1 3NG      0.161000
     31 H14         1.7840    0.4830   -2.9730 ha        1 3NG      0.143750
     32 HN15       -0.9260    1.3980   -2.5020 hn        1 3NG      0.201000
     33 H17        -3.3920    0.4430   -1.3980 ha        1 3NG      0.145000
     34 H19        -4.0430   -3.3280   -2.8480 ha        1 3NG      0.143750
     35 H20        -1.7770   -3.4680   -3.4970 ha        1 3NG      0.143750
     36 H21        -0.3230   -1.6450   -3.1150 ha        1 3NG      0.153000
@<TRIPOS>BOND
     1    1    6 1   
     2    1    9 1   
     3    2    3 1   
     4    2    8 1   
     5    3   26 1   
     6    4    5 1   
     7    4   27 1   
     8    5   23 1   
     9    6   28 1   
    10    7    8 1   
    11    7   10 1   
    12    8   13 1   
    13   10   15 1   
    14   11   14 1   
    15   11   29 1   
    16   12   13 1   
    17   13   30 1   
    18   14   31 1   
    19   15   16 1   
    20   15   32 1   
    21   16   17 1   
    22   16   21 1   
    23   17   18 1   
    24   17   33 1   
    25   18   22 1   
    26   19   20 1   
    27   19   34 1   
    28   20   35 1   
    29   21   36 1   
    30   23   24 1   
    31   23   25 1   
@<TRIPOS>SUBSTRUCTURE
     1 3NG         1 TEMP              0 ****  ****    0 ROOT
