@<TRIPOS>MOLECULE
3NG
   37    40     1     0     0
SMALL
bcc


@<TRIPOS>ATOM
      1 C1          0.1280   -0.7270    0.3220 ca        1 3NG      0.347600
      2 C2          1.2920    0.0960    0.1070 ca        1 3NG     -0.095300
      3 C3          1.9950    0.5690    1.2270 ca        1 3NG     -0.162000
      4 C4          1.5750    0.2590    2.5110 ca        1 3NG     -0.024000
      5 C5          0.4360   -0.5390    2.7270 ca        1 3NG     -0.125600
      6 C6         -0.2800   -1.0320    1.6530 ca        1 3NG     -0.116300
      7 C7          0.8970   -0.1130   -2.3290 ca        1 3NG     -0.106300
      8 C8          1.6650    0.3900   -1.2470 ca        1 3NG     -0.102300
      9 N9         -0.6070   -1.2250   -0.7270 nb        1 3NG     -0.594000
     10 C10        -0.2360   -0.9390   -1.9660 ca        1 3NG      0.423200
     11 C11         2.4070    1.0060   -3.8420 ca        1 3NG      0.412200
     12 N12         3.1680    1.4920   -2.8230 nb        1 3NG     -0.646000
     13 C13         2.8040    1.1940   -1.5810 ca        1 3NG      0.438200
     14 C14         1.2810    0.2140   -3.6490 ca        1 3NG     -0.266300
     15 N15        -1.0740   -1.5320   -3.0450 n4        1 3NG     -0.611100
     16 C16        -2.2610   -0.7230   -3.3480 ca        1 3NG     -0.027400
     17 C17        -2.3300   -0.0340   -4.5710 ca        1 3NG     -0.114000
     18 C18        -3.4690    0.7240   -4.8530 ca        1 3NG      0.025400
     19 C19        -4.5220    0.8030   -3.9310 ca        1 3NG     -0.082000
     20 C20        -4.4330    0.1180   -2.7220 ca        1 3NG     -0.100000
     21 C21        -3.3090   -0.6490   -2.4150 ca        1 3NG     -0.083000
     22 CL22       -3.5680    1.5530   -6.3250 cl        1 3NG     -0.043400
     23 C23        -0.0180   -0.8600    4.1630 c         1 3NG      0.916200
     24 O24        -1.0600   -1.5540    4.2770 o         1 3NG     -0.790300
     25 O25         0.6930   -0.3980    5.0890 o         1 3NG     -0.790300
     26 H3          2.8890    1.1960    1.0910 ha        1 3NG      0.135000
     27 H4          2.1170    0.6250    3.4040 ha        1 3NG      0.187000
     28 H6         -1.1680   -1.6600    1.8530 ha        1 3NG      0.187000
     29 H11         2.7450    1.2870   -4.8560 h4        1 3NG      0.033100
     30 H13         3.4430    1.6090   -0.7780 h4        1 3NG      0.046100
     31 H14         0.7130   -0.1210   -4.5250 ha        1 3NG      0.118000
     32 HN15       -0.4900   -1.6240   -3.8830 hn        1 3NG      0.460800
     33 H17        -1.5060   -0.0730   -5.3020 ha        1 3NG      0.158000
     34 H19        -5.4140    1.4090   -4.1600 ha        1 3NG      0.172000
     35 H20        -5.2560    0.1830   -1.9900 ha        1 3NG      0.172000
     36 H21        -3.2540   -1.1730   -1.4440 ha        1 3NG      0.185000
     37 H152       -1.3910   -2.4680   -2.7520 hn        1 3NG      0.460800
@<TRIPOS>BOND
     1    1    2 ar  
     2    1    6 ar  
     3    1    9 ar  
     4    2    3 ar  
     5    2    8 ar  
     6    3    4 ar  
     7    3   26 1   
     8    4    5 ar  
     9    4   27 1   
    10    5    6 ar  
    11    5   23 1   
    12    6   28 1   
    13    7    8 ar  
    14    7   10 ar  
    15    7   14 ar  
    16    8   13 ar  
    17    9   10 ar  
    18   10   15 1   
    19   11   12 ar  
    20   11   14 ar  
    21   11   29 1   
    22   12   13 ar  
    23   13   30 1   
    24   14   31 1   
    25   15   16 1   
    26   15   32 1   
    27   15   37 1   
    28   16   17 ar  
    29   16   21 ar  
    30   17   18 ar  
    31   17   33 1   
    32   18   19 ar  
    33   18   22 1   
    34   19   20 ar  
    35   19   34 1   
    36   20   21 ar  
    37   20   35 1   
    38   21   36 1   
    39   23   24 1   
    40   23   25 1   
@<TRIPOS>SUBSTRUCTURE
     1 3NG         1 TEMP              0 ****  ****    0 ROOT
