@<TRIPOS>MOLECULE
3NG
   36    39     1     0     0
SMALL
bcc


@<TRIPOS>ATOM
      1 C1          0.0580    0.1360    0.1350 ca        1 3NG      0.380600
      2 C2          1.4820    0.0310    0.0650 ca        1 3NG     -0.145300
      3 C3          2.2230   -0.0120    1.2630 ca        1 3NG     -0.153000
      4 C4          1.5880    0.0430    2.4880 ca        1 3NG     -0.082000
      5 C5          0.1850    0.1420    2.5690 ca        1 3NG     -0.116600
      6 C6         -0.5700    0.1890    1.4110 ca        1 3NG     -0.144300
      7 C7          1.2730   -0.0020   -2.3940 ca        1 3NG     -0.127300
      8 C8          2.0860   -0.0330   -1.2360 ca        1 3NG     -0.095300
      9 N9         -0.7380    0.1990   -1.0020 nb        1 3NG     -0.666000
     10 C10        -0.1790    0.1200   -2.1980 ca        1 3NG      0.590200
     11 C11         3.2790   -0.1950   -3.7240 ca        1 3NG      0.355200
     12 N12         4.0830   -0.2120   -2.6280 nb        1 3NG     -0.668000
     13 C13         3.4980   -0.1360   -1.4350 ca        1 3NG      0.402200
     14 C14         1.8920   -0.0940   -3.6580 ca        1 3NG     -0.211300
     15 N15        -0.9680    0.1450   -3.3920 nu        1 3NG     -0.710300
     16 C16        -2.3630   -0.0570   -3.3540 ca        1 3NG      0.160600
     17 C17        -3.2000    0.7240   -4.1860 ca        1 3NG     -0.187000
     18 C18        -4.5630    0.4420   -4.2570 ca        1 3NG      0.042400
     19 C19        -5.1330   -0.5870   -3.5070 ca        1 3NG     -0.158000
     20 C20        -4.3080   -1.3480   -2.6780 ca        1 3NG     -0.100000
     21 C21        -2.9430   -1.1010   -2.5980 ca        1 3NG     -0.123000
     22 Cl22       -5.5530    1.3850   -5.2790 cl        1 3NG     -0.121400
     23 C23        -0.4840    0.1930    3.9420 c         1 3NG      0.909200
     24 O24        -1.7430    0.2530    3.9800 o         1 3NG     -0.818300
     25 O25         0.2700    0.1700    4.9540 o         1 3NG     -0.818300
     26 H3          3.3180   -0.0910    1.2250 ha        1 3NG      0.114000
     27 H4          2.1540    0.0100    3.4350 ha        1 3NG      0.164000
     28 H6         -1.6680    0.2690    1.4980 ha        1 3NG      0.175000
     29 H11         3.8010   -0.2700   -4.6930 h4        1 3NG      0.011100
     30 H13         4.1790   -0.1560   -0.5650 h4        1 3NG      0.026100
     31 H14         1.3040   -0.1030   -4.5850 ha        1 3NG      0.141000
     32 HN15       -0.7020    0.9200   -3.9700 hn        1 3NG      0.401800
     33 H17        -2.7840    1.5520   -4.7790 ha        1 3NG      0.138000
     34 H19        -6.2110   -0.7920   -3.5600 ha        1 3NG      0.140000
     35 H20        -4.7460   -2.1560   -2.0720 ha        1 3NG      0.137000
     36 H21        -2.3200   -1.7200   -1.9330 ha        1 3NG      0.160000
@<TRIPOS>BOND
     1    1    2 ar  
     2    1    6 ar  
     3    1    9 ar  
     4    2    3 ar  
     5    2    8 ar  
     6    3    4 ar  
     7    3   26 1   
     8    4    5 ar  
     9    4   27 1   
    10    5    6 ar  
    11    5   23 1   
    12    6   28 1   
    13    7    8 ar  
    14    7   10 ar  
    15    7   14 ar  
    16    8   13 ar  
    17    9   10 ar  
    18   10   15 1   
    19   11   12 ar  
    20   11   14 ar  
    21   11   29 1   
    22   12   13 ar  
    23   13   30 1   
    24   14   31 1   
    25   15   16 1   
    26   15   32 1   
    27   16   17 ar  
    28   16   21 ar  
    29   17   18 ar  
    30   17   33 1   
    31   18   19 ar  
    32   18   22 1   
    33   19   20 ar  
    34   19   34 1   
    35   20   21 ar  
    36   20   35 1   
    37   21   36 1   
    38   23   24 1   
    39   23   25 1   
@<TRIPOS>SUBSTRUCTURE
     1 3NG         1 TEMP              0 ****  ****    0 ROOT
