@<TRIPOS>MOLECULE
3NG
   36    39     1     0     0
SMALL
bcc


@<TRIPOS>ATOM
      1 C1         -1.5970    0.3160    0.1510 ca        1 3NG      0.380600
      2 C2         -2.4970   -0.7940    0.0940 ca        1 3NG     -0.145300
      3 C3         -3.8850   -0.5510    0.1320 ca        1 3NG     -0.153000
      4 C4         -4.3730    0.7380    0.2180 ca        1 3NG     -0.082000
      5 C5         -3.4960    1.8390    0.2700 ca        1 3NG     -0.116600
      6 C6         -2.1290    1.6330    0.2380 ca        1 3NG     -0.144300
      7 C7         -0.5270   -2.2730   -0.0560 ca        1 3NG     -0.128300
      8 C8         -1.9320   -2.1110   -0.0060 ca        1 3NG     -0.095300
      9 N9         -0.2180    0.1540    0.1340 nb        1 3NG     -0.666000
     10 C10         0.2980   -1.0600    0.0230 ca        1 3NG      0.590200
     11 C11        -0.8780   -4.6550   -0.2360 ca        1 3NG      0.355200
     12 N12        -2.2310   -4.5280   -0.1750 nb        1 3NG     -0.668000
     13 C13        -2.7270   -3.2970   -0.0660 ca        1 3NG      0.402200
     14 C14        -0.0010   -3.5770   -0.1820 ca        1 3NG     -0.211300
     15 N15         1.7130   -1.2640   -0.0340 nh        1 3NG     -0.710300
     16 C16         2.6000   -0.1970   -0.2820 ca        1 3NG      0.160600
     17 C17         3.8200   -0.1280    0.4310 ca        1 3NG     -0.187000
     18 C18         4.7630    0.8450    0.1000 ca        1 3NG      0.042400
     19 C19         4.5240    1.7730   -0.9140 ca        1 3NG     -0.158000
     20 C20         3.3150    1.7120   -1.6070 ca        1 3NG     -0.100000
     21 C21         2.3630    0.7440   -1.3110 ca        1 3NG     -0.123000
     22 CL22        6.2350    0.9000    0.9610 cl        1 3NG     -0.121400
     23 C23        -4.0720    3.2520    0.3580 c         1 3NG      0.909200
     24 O24        -3.2610    4.2160    0.3740 o         1 3NG     -0.818300
     25 O25        -5.3290    3.3620    0.4060 o         1 3NG     -0.818300
     26 H3         -4.5880   -1.3950    0.0900 ha        1 3NG      0.114000
     27 H4         -5.4560    0.9450    0.2480 ha        1 3NG      0.164000
     28 H6         -1.4590    2.5100    0.2820 ha        1 3NG      0.175000
     29 H11        -0.5070   -5.6890   -0.3350 h4        1 3NG      0.011100
     30 H13        -3.8290   -3.2270   -0.0240 h4        1 3NG      0.026100
     31 H14         1.0800   -3.7540   -0.2530 ha        1 3NG      0.141000
     32 HN15        2.0120   -1.8510    0.7230 hn        1 3NG      0.401800
     33 H17         4.0330   -0.8360    1.2460 ha        1 3NG      0.138000
     34 H19         5.2680    2.5430   -1.1580 ha        1 3NG      0.140000
     35 H20         3.1080    2.4450   -2.4020 ha        1 3NG      0.137000
     36 H21         1.4190    0.7230   -1.8770 ha        1 3NG      0.160000
@<TRIPOS>BOND
     1    1    2 ar  
     2    1    6 ar  
     3    1    9 ar  
     4    2    3 ar  
     5    2    8 ar  
     6    3    4 ar  
     7    3   26 1   
     8    4    5 ar  
     9    4   27 1   
    10    5    6 ar  
    11    5   23 1   
    12    6   28 1   
    13    7    8 ar  
    14    7   10 ar  
    15    7   14 ar  
    16    8   13 ar  
    17    9   10 ar  
    18   10   15 1   
    19   11   12 ar  
    20   11   14 ar  
    21   11   29 1   
    22   12   13 ar  
    23   13   30 1   
    24   14   31 1   
    25   15   16 1   
    26   15   32 1   
    27   16   17 ar  
    28   16   21 ar  
    29   17   18 ar  
    30   17   33 1   
    31   18   19 ar  
    32   18   22 1   
    33   19   20 ar  
    34   19   34 1   
    35   20   21 ar  
    36   20   35 1   
    37   21   36 1   
    38   23   24 1   
    39   23   25 1   
@<TRIPOS>SUBSTRUCTURE
     1 3NG         1 TEMP              0 ****  ****    0 ROOT
