@<TRIPOS>MOLECULE
3NG
   36    39     1     0     0
SMALL
bcc


@<TRIPOS>ATOM
      1 C1          0.0590    0.1360    0.1360 ca        1 3NG      0.380600
      2 C2          1.4820    0.0330    0.0650 ca        1 3NG     -0.145300
      3 C3          2.2250   -0.0080    1.2630 ca        1 3NG     -0.153000
      4 C4          1.5900    0.0450    2.4880 ca        1 3NG     -0.082000
      5 C5          0.1870    0.1420    2.5710 ca        1 3NG     -0.116600
      6 C6         -0.5690    0.1880    1.4130 ca        1 3NG     -0.144300
      7 C7          1.2720    0.0000   -2.3930 ca        1 3NG     -0.128300
      8 C8          2.0870   -0.0290   -1.2360 ca        1 3NG     -0.095300
      9 N9         -0.7380    0.1980   -1.0000 nb        1 3NG     -0.666000
     10 C10        -0.1790    0.1200   -2.1970 ca        1 3NG      0.590200
     11 C11         3.2780   -0.1890   -3.7250 ca        1 3NG      0.355200
     12 N12         4.0830   -0.2050   -2.6290 nb        1 3NG     -0.668000
     13 C13         3.4980   -0.1300   -1.4360 ca        1 3NG      0.402200
     14 C14         1.8910   -0.0900   -3.6580 ca        1 3NG     -0.211300
     15 N15        -0.9690    0.1440   -3.3900 nh        1 3NG     -0.710300
     16 C16        -2.3640   -0.0580   -3.3510 ca        1 3NG      0.160600
     17 C17        -3.2020    0.7220   -4.1830 ca        1 3NG     -0.187000
     18 C18        -4.5650    0.4410   -4.2520 ca        1 3NG      0.042400
     19 C19        -5.1340   -0.5880   -3.5020 ca        1 3NG     -0.158000
     20 C20        -4.3090   -1.3480   -2.6730 ca        1 3NG     -0.100000
     21 C21        -2.9440   -1.1020   -2.5950 ca        1 3NG     -0.123000
     22 CL22       -5.5550    1.3840   -5.2740 cl        1 3NG     -0.121400
     23 C23        -0.4810    0.1910    3.9430 c         1 3NG      0.909200
     24 O24        -1.7400    0.2490    3.9820 o         1 3NG     -0.818300
     25 O25         0.2730    0.1700    4.9550 o         1 3NG     -0.818300
     26 H3          3.3200   -0.0860    1.2240 ha        1 3NG      0.114000
     27 H4          2.1560    0.0130    3.4350 ha        1 3NG      0.164000
     28 H6         -1.6670    0.2660    1.5000 ha        1 3NG      0.175000
     29 H11         3.7990   -0.2640   -4.6940 h4        1 3NG      0.011100
     30 H13         4.1800   -0.1500   -0.5660 h4        1 3NG      0.026100
     31 H14         1.3020   -0.1010   -4.5850 ha        1 3NG      0.141000
     32 HN15       -0.7030    0.9180   -3.9690 hn        1 3NG      0.401800
     33 H17        -2.7870    1.5510   -4.7760 ha        1 3NG      0.138000
     34 H19        -6.2130   -0.7930   -3.5540 ha        1 3NG      0.140000
     35 H20        -4.7470   -2.1560   -2.0660 ha        1 3NG      0.137000
     36 H21        -2.3200   -1.7200   -1.9300 ha        1 3NG      0.160000
@<TRIPOS>BOND
     1    1    2 ar  
     2    1    6 ar  
     3    1    9 ar  
     4    2    3 ar  
     5    2    8 ar  
     6    3    4 ar  
     7    3   26 1   
     8    4    5 ar  
     9    4   27 1   
    10    5    6 ar  
    11    5   23 1   
    12    6   28 1   
    13    7    8 ar  
    14    7   10 ar  
    15    7   14 ar  
    16    8   13 ar  
    17    9   10 ar  
    18   10   15 1   
    19   11   12 ar  
    20   11   14 ar  
    21   11   29 1   
    22   12   13 ar  
    23   13   30 1   
    24   14   31 1   
    25   15   16 1   
    26   15   32 1   
    27   16   17 ar  
    28   16   21 ar  
    29   17   18 ar  
    30   17   33 1   
    31   18   19 ar  
    32   18   22 1   
    33   19   20 ar  
    34   19   34 1   
    35   20   21 ar  
    36   20   35 1   
    37   21   36 1   
    38   23   24 1   
    39   23   25 1   
@<TRIPOS>SUBSTRUCTURE
     1 3NG         1 TEMP              0 ****  ****    0 ROOT
