@<TRIPOS>MOLECULE
3NK
   32    33     1     0     0
SMALL
bcc


@<TRIPOS>ATOM
      1 C14         0.7720   -0.5270   -0.4120 c3        1 3NK     -0.205100
      2 C13         1.2380    0.6850    0.3210 c         1 3NK      0.583100
      3 C12         2.1110    0.4450    1.5270 c3        1 3NK     -0.291400
      4 C11         3.4730   -0.1000    1.1990 c         1 3NK      0.596700
      5 O11         3.7460   -0.5780    0.0900 o         1 3NK     -0.540100
      6 C2          4.4810   -0.0340    2.2780 ca        1 3NK     -0.191600
      7 C1          5.8160   -0.1840    1.9570 ca        1 3NK     -0.031000
      8 C9          6.8180   -0.1200    2.9600 ca        1 3NK     -0.087000
      9 C8          8.1950   -0.2640    2.6440 ca        1 3NK     -0.071000
     10 C7          9.1550   -0.2010    3.6230 ca        1 3NK     -0.189000
     11 C6          8.7660    0.0120    4.9730 ca        1 3NK      0.139100
     12 O6          9.6570    0.0890    6.0240 os        1 3NK     -0.324900
     13 C15        11.0360   -0.0480    5.7000 c3        1 3NK      0.112700
     14 C5          7.4290    0.1570    5.3170 ca        1 3NK     -0.169000
     15 C10         6.4370    0.0920    4.3110 ca        1 3NK      0.018000
     16 C4          5.0540    0.2340    4.6200 ca        1 3NK     -0.133000
     17 C3          4.1040    0.1740    3.6330 ca        1 3NK     -0.093000
     18 ONA         0.9200    1.8310   -0.0090 o         1 3NK     -0.526100
     19 H141        0.0630   -0.2490   -1.2280 hc        1 3NK      0.071700
     20 H142        0.2630   -1.2300    0.2910 hc        1 3NK      0.071700
     21 H143        1.6590   -1.0460   -0.8590 hc        1 3NK      0.071700
     22 H121        2.2330    1.4130    2.0860 hc        1 3NK      0.091700
     23 H122        1.5930   -0.2870    2.2040 hc        1 3NK      0.091700
     24 H1          6.1140   -0.3570    0.9080 ha        1 3NK      0.155000
     25 H3          3.0390    0.2820    3.8900 ha        1 3NK      0.133000
     26 H8          8.4820   -0.4280    1.5930 ha        1 3NK      0.140000
     27 H7         10.2180   -0.3140    3.3660 ha        1 3NK      0.142000
     28 H5          7.1410    0.3210    6.3650 ha        1 3NK      0.154000
     29 H151       11.2390   -1.0520    5.2530 h1        1 3NK      0.046700
     30 H152       11.3620    0.7640    5.0060 h1        1 3NK      0.046700
     31 H4          4.7640    0.3920    5.6700 ha        1 3NK      0.140000
     32 H153       11.5450    0.0520    6.6920 h1        1 3NK      0.046700
@<TRIPOS>BOND
     1    1    2 1   
     2    1   19 1   
     3    1   20 1   
     4    1   21 1   
     5    2    3 1   
     6    2   18 2   
     7    3    4 1   
     8    3   22 1   
     9    3   23 1   
    10    4    5 2   
    11    4    6 1   
    12    6    7 ar  
    13    6   17 ar  
    14    7    8 ar  
    15    7   24 1   
    16    8    9 ar  
    17    8   15 ar  
    18    9   10 ar  
    19    9   26 1   
    20   10   11 ar  
    21   10   27 1   
    22   11   12 1   
    23   11   14 ar  
    24   12   13 1   
    25   13   29 1   
    26   13   30 1   
    27   13   32 1   
    28   14   15 ar  
    29   14   28 1   
    30   15   16 ar  
    31   16   17 ar  
    32   16   31 1   
    33   17   25 1   
@<TRIPOS>SUBSTRUCTURE
     1 3NK         1 TEMP              0 ****  ****    0 ROOT
