@<TRIPOS>MOLECULE
3NK
   32    26     1     0     0
SMALL
bcc


@<TRIPOS>ATOM
      1 C14        -4.4280   -1.6390   -4.0230 c2        1 3NK     -0.274000
      2 C13        -3.7940   -0.5470   -3.2980 c1        1 3NK      0.241000
      3 C12        -2.8090   -0.8520   -2.1690 c3        1 3NK     -0.272000
      4 C11        -2.0410    0.4410   -1.7810 c2        1 3NK      0.283000
      5 O11        -2.2300    1.4560   -2.3880 o         1 3NK     -0.297000
      6 C2         -1.0400    0.4240   -0.5840 c2        1 3NK     -0.170000
      7 C1          0.3190    0.3060   -0.8190 c1        1 3NK     -0.036000
      8 C9          1.2250    0.2580    0.2720 c1        1 3NK     -0.089000
      9 C8          2.6160    0.2000    0.0330 c2        1 3NK     -0.072000
     10 C7          3.4820    0.2140    1.0700 c1        1 3NK     -0.190000
     11 C6          3.0150    0.2840    2.3560 c1        1 3NK      0.092000
     12 O6          3.8690   -0.2540    3.2780 o         1 3NK     -0.208000
     13 C15         4.5770    0.7970    3.9300 c2        1 3NK     -0.077000
     14 C5          1.6330    0.3430    2.6070 c1        1 3NK     -0.168000
     15 C10         0.7540    0.3300    1.5690 c1        1 3NK      0.018000
     16 C4         -0.6140    0.4490    1.8090 c2        1 3NK     -0.133000
     17 C3         -1.5180    0.4970    0.7300 c2        1 3NK     -0.093000
     18 ONA        -3.9600    0.5890   -3.6610 o         1 3NK     -0.291000
     19 H141       -3.7310   -2.2500   -4.3760 ha        1 3NK      0.112667
     20 H142       -5.0110   -2.1300   -3.4240 ha        1 3NK      0.112667
     21 H143       -4.9560   -1.2750   -4.7690 ha        1 3NK      0.112667
     22 H121       -3.2550   -1.1560   -1.4600 hc        1 3NK      0.129500
     23 H122       -2.2110   -1.4910   -2.4510 hc        1 3NK      0.129500
     24 H1          0.6520    0.2860   -1.7210 ha        1 3NK      0.150000
     25 H3         -2.5630    0.4840    0.9140 ha        1 3NK      0.156000
     26 H8          2.9720    0.1480   -0.9290 ha        1 3NK      0.138000
     27 H7          4.4720    0.0170    0.9030 DU        1 3NK      0.125000
     28 H5          1.3150    0.3900    3.4940 ha        1 3NK      0.154000
     29 H151        4.0220    1.6720    3.8750 h4        1 3NK      0.073500
     30 H152        5.4630    0.9360    3.4810 h4        1 3NK      0.073500
     31 H4         -0.9390    0.5020    2.7100 ha        1 3NK      0.142000
     32 H153        4.7140    0.5710    4.8220 DU        1 3NK      0.125000
@<TRIPOS>BOND
     1    1   19 1   
     2    1   20 1   
     3    1   21 1   
     4    2    3 1   
     5    2   18 1   
     6    3    4 1   
     7    3   22 1   
     8    3   23 1   
     9    4    5 1   
    10    4    6 1   
    11    6    7 1   
    12    6   17 1   
    13    7   24 1   
    14    8    9 1   
    15    8   15 1   
    16    9   10 1   
    17    9   26 1   
    18   11   14 1   
    19   12   13 1   
    20   13   29 1   
    21   13   30 1   
    22   14   28 1   
    23   15   16 1   
    24   16   17 1   
    25   16   31 1   
    26   17   25 1   
@<TRIPOS>SUBSTRUCTURE
     1 3NK         1 TEMP              0 ****  ****    0 ROOT
