@<TRIPOS>MOLECULE
3NK
   32    33     1     0     0
SMALL
bcc


@<TRIPOS>ATOM
      1 C14         0.7680    0.5250   -0.4070 c3        1 3NK     -0.205100
      2 C13         1.2470   -0.6920    0.3080 c         1 3NK      0.583100
      3 C12         2.1160   -0.4600    1.5190 c3        1 3NK     -0.291400
      4 C11         3.4730    0.1030    1.2000 c         1 3NK      0.596700
      5 O11         3.7410    0.6000    0.0980 o         1 3NK     -0.540100
      6 C2          4.4810    0.0300    2.2780 ca        1 3NK     -0.191600
      7 C1          5.8150    0.1960    1.9600 ca        1 3NK     -0.031000
      8 C9          6.8170    0.1250    2.9620 ca        1 3NK     -0.087000
      9 C8          8.1930    0.2840    2.6490 ca        1 3NK     -0.071000
     10 C7          9.1530    0.2150    3.6280 ca        1 3NK     -0.189000
     11 C6          8.7650   -0.0190    4.9740 ca        1 3NK      0.139100
     12 O6          9.6570   -0.1050    6.0250 os        1 3NK     -0.324900
     13 C15        11.0340    0.0480    5.7020 c3        1 3NK      0.112700
     14 C5          7.4300   -0.1790    5.3160 ca        1 3NK     -0.169000
     15 C10         6.4370   -0.1080    4.3100 ca        1 3NK      0.018000
     16 C4          5.0550   -0.2650    4.6160 ca        1 3NK     -0.133000
     17 C3          4.1050   -0.2000    3.6300 ca        1 3NK     -0.093000
     18 ONA         0.9410   -1.8370   -0.0380 o         1 3NK     -0.526100
     19 H141        0.0640    0.2510   -1.2290 hc        1 3NK      0.071700
     20 H142        1.6510    1.0600   -0.8450 hc        1 3NK      0.071700
     21 H143        0.2500    1.2120    0.3050 hc        1 3NK      0.071700
     22 H121        1.5900    0.2580    2.2050 hc        1 3NK      0.091700
     23 H122        2.2470   -1.4340    2.0650 hc        1 3NK      0.091700
     24 H1          6.1110    0.3860    0.9140 ha        1 3NK      0.155000
     25 H3          3.0410   -0.3200    3.8850 ha        1 3NK      0.133000
     26 H8          8.4780    0.4660    1.6010 ha        1 3NK      0.140000
     27 H7         10.2150    0.3400    3.3730 ha        1 3NK      0.142000
     28 H5          7.1430   -0.3610    6.3610 ha        1 3NK      0.154000
     29 H151       11.3670   -0.7520    4.9980 h1        1 3NK      0.046700
     30 H152       11.2290    1.0590    5.2700 h1        1 3NK      0.046700
     31 H4          4.7670   -0.4400    5.6640 ha        1 3NK      0.140000
     32 H153       11.5440   -0.0620    6.6940 h1        1 3NK      0.046700
@<TRIPOS>BOND
     1    1    2 1   
     2    1   19 1   
     3    1   20 1   
     4    1   21 1   
     5    2    3 1   
     6    2   18 2   
     7    3    4 1   
     8    3   22 1   
     9    3   23 1   
    10    4    5 2   
    11    4    6 1   
    12    6    7 ar  
    13    6   17 ar  
    14    7    8 ar  
    15    7   24 1   
    16    8    9 ar  
    17    8   15 ar  
    18    9   10 ar  
    19    9   26 1   
    20   10   11 ar  
    21   10   27 1   
    22   11   12 1   
    23   11   14 ar  
    24   12   13 1   
    25   13   29 1   
    26   13   30 1   
    27   13   32 1   
    28   14   15 ar  
    29   14   28 1   
    30   15   16 ar  
    31   16   17 ar  
    32   16   31 1   
    33   17   25 1   
@<TRIPOS>SUBSTRUCTURE
     1 3NK         1 TEMP              0 ****  ****    0 ROOT
