@<TRIPOS>MOLECULE
3NK
   32    33     1     0     0
SMALL
bcc


@<TRIPOS>ATOM
      1 C14         5.7620    0.1550   -0.5230 c3        1 3NK     -0.205100
      2 C13         4.9640    0.4890    0.6920 c         1 3NK      0.583100
      3 C12         3.5640    0.9980    0.4550 c3        1 3NK     -0.291400
      4 C11         2.6220   -0.0360   -0.0990 c         1 3NK      0.596700
      5 O11         3.0220   -1.1030   -0.5840 o         1 3NK     -0.540100
      6 C2          1.1830    0.2880   -0.0300 ca        1 3NK     -0.191600
      7 C1          0.2590   -0.7270   -0.1880 ca        1 3NK     -0.031000
      8 C9         -1.1330   -0.4630   -0.1220 ca        1 3NK     -0.087000
      9 C8         -2.0940   -1.4980   -0.2750 ca        1 3NK     -0.071000
     10 C7         -3.4390   -1.2290   -0.2100 ca        1 3NK     -0.189000
     11 C6         -3.8760    0.1050    0.0130 ca        1 3NK      0.139100
     12 O6         -5.2050    0.4710    0.0920 os        1 3NK     -0.324900
     13 C15        -6.1620   -0.5720   -0.0530 c3        1 3NK      0.112700
     14 C5         -2.9650    1.1400    0.1650 ca        1 3NK     -0.169000
     15 C10        -1.5790    0.8670    0.0990 ca        1 3NK      0.018000
     16 C4         -0.6090    1.9000    0.2480 ca        1 3NK     -0.133000
     17 C3          0.7310    1.6190    0.1870 ca        1 3NK     -0.093000
     18 ONA         5.4120    0.3870    1.8380 o         1 3NK     -0.526100
     19 H141        5.7880    1.0280   -1.2180 hc        1 3NK      0.071700
     20 H142        6.8080   -0.1230   -0.2460 hc        1 3NK      0.071700
     21 H143        5.2800   -0.7100   -1.0480 hc        1 3NK      0.071700
     22 H121        3.1470    1.3840    1.4260 hc        1 3NK      0.091700
     23 H122        3.6120    1.8540   -0.2710 hc        1 3NK      0.091700
     24 H1          0.6030   -1.7600   -0.3690 ha        1 3NK      0.155000
     25 H3          1.4670    2.4290    0.3010 ha        1 3NK      0.133000
     26 H8         -1.7390   -2.5260   -0.4460 ha        1 3NK      0.140000
     27 H7         -4.1730   -2.0390   -0.3290 ha        1 3NK      0.142000
     28 H5         -3.3170    2.1670    0.3370 ha        1 3NK      0.154000
     29 H151       -6.0780   -1.0480   -1.0610 h1        1 3NK      0.046700
     30 H152       -6.0420   -1.3340    0.7540 h1        1 3NK      0.046700
     31 H4         -0.9610    2.9290    0.4140 ha        1 3NK      0.140000
     32 H153       -7.1410   -0.0390    0.0500 h1        1 3NK      0.046700
@<TRIPOS>BOND
     1    1    2 1   
     2    1   19 1   
     3    1   20 1   
     4    1   21 1   
     5    2    3 1   
     6    2   18 2   
     7    3    4 1   
     8    3   22 1   
     9    3   23 1   
    10    4    5 2   
    11    4    6 1   
    12    6    7 ar  
    13    6   17 ar  
    14    7    8 ar  
    15    7   24 1   
    16    8    9 ar  
    17    8   15 ar  
    18    9   10 ar  
    19    9   26 1   
    20   10   11 ar  
    21   10   27 1   
    22   11   12 1   
    23   11   14 ar  
    24   12   13 1   
    25   13   29 1   
    26   13   30 1   
    27   13   32 1   
    28   14   15 ar  
    29   14   28 1   
    30   15   16 ar  
    31   16   17 ar  
    32   16   31 1   
    33   17   25 1   
@<TRIPOS>SUBSTRUCTURE
     1 3NK         1 TEMP              0 ****  ****    0 ROOT
