@<TRIPOS>MOLECULE
3NL
   58    59     1     0     0
SMALL
bcc


@<TRIPOS>ATOM
      1 C30         0.8810    0.6590   -0.6480 c2        1 3NL     -0.170000
      2 C27         2.8160    0.5490    0.5400 c2        1 3NL     -0.158000
      3 C26         2.2780    0.8490   -0.7780 c2        1 3NL     -0.062000
      4 C31        -0.6240   -0.0190    1.2190 c2        1 3NL     -0.110000
      5 C23         4.3230    1.4250   -1.9990 c2        1 3NL      0.356000
      6 C13         9.0900    0.5670   -2.0620 c1        1 3NL      0.020000
      7 C16         8.3280   -1.1710   -3.4200 c2        1 3NL     -0.159000
      8 C02        15.4250   -1.8940   -2.0600 c3        1 3NL     -0.041000
      9 C03        16.4300   -1.9800   -1.0220 c1        1 3NL     -0.018000
     10 C04        17.7470   -1.5030   -1.1290 c2        1 3NL     -0.525000
     11 C05        18.6540   -1.6660   -0.1710 c1        1 3NL      0.394000
     12 C06        14.0620   -0.7870   -0.3040 c2        1 3NL     -0.203000
     13 C07        14.1300   -1.2960   -1.5480 c2        1 3NL      0.011000
     14 N08        13.0680   -1.3680   -2.4770 ns        1 3NL     -0.322000
     15 C09        11.7230   -1.1590   -2.1060 c2        1 3NL      0.389000
     16 O10        11.3470   -1.1610   -0.9180 o         1 3NL     -0.334000
     17 C12         9.4980   -0.6010   -2.9280 c2        1 3NL     -0.086000
     18 N14         7.7500    0.6250   -2.1820 n7        1 3NL     -0.173000
     19 N15         7.2000   -0.4620   -2.8880 n3        1 3NL     -0.098000
     20 C17         6.0870   -0.2660   -3.7750 c2        1 3NL      0.000000
     21 C18         5.4280   -1.3140   -4.3070 c2        1 3NL     -0.222000
     22 C19         4.1130    4.2610   -4.0710 c1        1 3NL     -0.151000
     23 C20         4.4430    3.1590   -3.7400 c1        1 3NL     -0.159000
     24 C21         4.8430    1.8690   -3.3410 c2        1 3NL     -0.022000
     25 C22         5.6560    1.1070   -4.0920 c2        1 3NL     -0.069000
     26 O24         5.0920    1.2550   -1.0340 o         1 3NL     -0.354000
     27 N25         2.9580    1.2300   -1.9260 ns        1 3NL     -0.275000
     28 N28         1.8100    0.2100    1.3810 n2        1 3NL     -0.074000
     29 N29         0.6640    0.2760    0.6820 na        1 3NL     -0.046000
     30 C32        -1.7890    0.7360    0.6550 c3        1 3NL     -0.116000
     31 C33        -2.5730   -0.0860   -0.3390 c3        1 3NL     -0.213000
     32 N34        -1.9290   -1.2360    2.8800 n8        1 3NL     -0.342000
     33 C35        -0.7530   -0.9420    2.2230 c2        1 3NL     -0.012000
     34 H301        0.0730    0.7570   -1.3680 h4        1 3NL      0.177000
     35 H271        3.8660    0.5820    0.8450 h4        1 3NL      0.212000
     36 H311        0.1350   -1.4640    2.6390 h4        1 3NL      0.165000
     37 H131        7.1160    1.1430   -1.6040 hn        1 3NL      0.298000
     38 H161        8.1580   -2.0230   -4.0770 h4        1 3NL      0.174000
     39 H041       18.0780   -0.9500   -2.0440 ha        1 3NL      0.199000
     40 H051       13.1440   -0.3530    0.1190 ha        1 3NL      0.149000
     41 H061       14.9280   -0.8230    0.3720 ha        1 3NL      0.149000
     42 H081       13.3270   -1.1490   -3.4160 hn        1 3NL      0.233000
     43 H181        5.7120   -2.3580   -4.1290 ha        1 3NL      0.131500
     44 H191        4.5530   -1.1600   -4.9510 ha        1 3NL      0.131500
     45 H201        3.8200    5.2390   -4.3600 ha        1 3NL      0.232000
     46 H221        6.0510    1.4920   -5.0500 ha        1 3NL      0.155000
     47 H251        2.4030    1.4320   -2.7260 hn        1 3NL      0.238000
     48 H322       -2.4590    1.0520    1.5010 hc        1 3NL      0.095500
     49 H321       -1.4490    1.6860    0.1610 hc        1 3NL      0.095500
     50 H332       -3.4450    0.5010   -0.7180 hc        1 3NL      0.073667
     51 H331       -2.9570   -1.0240    0.1290 hc        1 3NL      0.073667
     52 H341       -1.9320   -0.3710   -1.2080 hc        1 3NL      0.073667
     53 H351       -2.7780   -0.9720    2.4340 hn        1 3NL      0.196000
     54 H352       -1.9570   -2.1240    3.3240 hn        1 3NL      0.196000
     55 N11        10.8070   -0.9790   -3.1910 ns        1 3NL     -0.280000
     56 H031       15.2510   -2.9610   -2.4010 h1        1 3NL      0.169000
     57 Cl1        15.9060   -1.0430   -3.5800 cl        1 3NL     -0.206000
     58 H111       10.9130   -1.6080   -3.9580 hn        1 3NL      0.211000
@<TRIPOS>BOND
     1    1    3 1   
     2    1   29 1   
     3    1   34 1   
     4    2    3 1   
     5    2   28 1   
     6    2   35 1   
     7    3   27 1   
     8    4   29 1   
     9    4   30 1   
    10    4   33 1   
    11    5   24 1   
    12    5   26 1   
    13    5   27 1   
    14    6   17 1   
    15    6   18 1   
    16    7   17 1   
    17    7   19 1   
    18    7   38 1   
    19    8    9 1   
    20    8   13 1   
    21    8   56 1   
    22    8   57 1   
    23    9   10 1   
    24   10   11 1   
    25   10   39 1   
    26   12   13 1   
    27   12   40 1   
    28   12   41 1   
    29   13   14 1   
    30   14   15 1   
    31   14   42 1   
    32   15   16 1   
    33   15   55 1   
    34   17   55 1   
    35   18   19 1   
    36   18   37 1   
    37   19   20 1   
    38   20   21 1   
    39   20   25 1   
    40   21   43 1   
    41   21   44 1   
    42   22   23 1   
    43   22   45 1   
    44   23   24 1   
    45   24   25 1   
    46   25   46 1   
    47   27   47 1   
    48   28   29 1   
    49   30   31 1   
    50   30   48 1   
    51   30   49 1   
    52   31   50 1   
    53   31   51 1   
    54   31   52 1   
    55   32   33 1   
    56   32   53 1   
    57   32   54 1   
    58   33   36 1   
    59   55   58 1   
@<TRIPOS>SUBSTRUCTURE
     1 3NL         1 TEMP              0 ****  ****    0 ROOT
