@<TRIPOS>MOLECULE
3NM
   23    23     1     0     0
SMALL
bcc


@<TRIPOS>ATOM
      1 N           0.1180   -0.0550   -0.1530 nc        1 3NM     -0.674000
      2 P           6.1920    2.2800    1.1620 p5        1 3NM      1.318900
      3 S           0.4280   -0.1020    2.4060 ss        1 3NM     -0.324300
      4 C1          2.4310    0.5030   -0.9760 c3        1 3NM     -0.140400
      5 O1         -2.3270   -1.8600    1.0670 o         1 3NM     -0.838300
      6 C2          1.4680    0.2350    0.1200 cc        1 3NM      0.313600
      7 O2         -2.8710    0.2960    1.1780 o         1 3NM     -0.838300
      8 C3         -0.5490   -0.2630    0.9660 cd        1 3NM      0.422900
      9 O3          5.0090    1.9060    2.3790 os        1 3NM     -0.574200
     10 C4         -2.0220   -0.6330    1.0700 c         1 3NM      0.836100
     11 O4          6.0630    3.7740    1.0160 o         1 3NM     -0.939500
     12 C5          1.8120    0.2430    1.4660 cd        1 3NM     -0.102700
     13 O5          7.4690    1.7940    1.7950 o         1 3NM     -0.939500
     14 C6          3.1510    0.4280    2.0420 c3        1 3NM     -0.055100
     15 O6          5.6750    1.4710   -0.0040 o         1 3NM     -0.939500
     16 C7          3.7120    1.8630    1.9350 c3        1 3NM      0.243400
     17 H1          3.4690    0.6800   -0.5670 hc        1 3NM      0.056033
     18 H1A         2.4610   -0.3580   -1.6880 hc        1 3NM      0.056033
     19 H1B         2.1210    1.4150   -1.5440 hc        1 3NM      0.056033
     20 H6          3.8740   -0.2510    1.5080 hc        1 3NM      0.043200
     21 H6A         3.1470    0.1310    3.1240 hc        1 3NM      0.043200
     22 H7          3.6340    2.2140    0.8680 h1        1 3NM     -0.010800
     23 H7A         3.0640    2.5260    2.5840 h1        1 3NM     -0.010800
@<TRIPOS>BOND
     1    1    6 1   
     2    1    8 2   
     3    2    9 1   
     4    2   11 1   
     5    2   13 1   
     6    2   15 1   
     7    3    8 1   
     8    3   12 1   
     9    4    6 1   
    10    4   17 1   
    11    4   18 1   
    12    4   19 1   
    13    5   10 1   
    14    6   12 2   
    15    7   10 1   
    16    8   10 1   
    17    9   16 1   
    18   12   14 1   
    19   14   16 1   
    20   14   20 1   
    21   14   21 1   
    22   16   22 1   
    23   16   23 1   
@<TRIPOS>SUBSTRUCTURE
     1 3NM         1 TEMP              0 ****  ****    0 ROOT
