@<TRIPOS>MOLECULE
3NM
   23    23     1     0     0
SMALL
bcc


@<TRIPOS>ATOM
      1 N           0.1060   -0.0860   -0.0990 nc        1 3NM     -0.674000
      2 P           6.2060    2.2540    1.0720 p5        1 3NM      1.318900
      3 S           0.4270   -0.0080    2.4570 ss        1 3NM     -0.324300
      4 C1          2.4200    0.4090   -0.9590 c3        1 3NM     -0.140400
      5 O1         -2.3510   -1.8050    1.2190 o         1 3NM     -0.838300
      6 C2          1.4600    0.2050    0.1540 cc        1 3NM      0.313600
      7 O2         -2.8740    0.3580    1.2250 o         1 3NM     -0.838300
      8 C3         -0.5580   -0.2320    1.0310 cd        1 3NM      0.422900
      9 O3          5.0260    1.9530    2.3120 os        1 3NM     -0.574200
     10 C4         -2.0350   -0.5830    1.1590 c         1 3NM      0.836100
     11 O4          6.0910    3.7390    0.8520 o         1 3NM     -0.939500
     12 C5          1.8090    0.2760    1.4950 cd        1 3NM     -0.102700
     13 O5          7.4820    1.7890    1.7240 o         1 3NM     -0.939500
     14 C6          3.1530    0.4770    2.0560 c3        1 3NM     -0.055100
     15 O6          5.6780    1.3920   -0.0490 o         1 3NM     -0.939500
     16 C7          3.7270    1.9000    1.8750 c3        1 3NM      0.243400
     17 H1          3.4610    0.5950   -0.5630 hc        1 3NM      0.056033
     18 H1A         2.4380   -0.4870   -1.6270 hc        1 3NM      0.056033
     19 H1B         2.1160    1.2940   -1.5700 hc        1 3NM      0.056033
     20 H6          3.8660   -0.2340    1.5550 hc        1 3NM      0.043200
     21 H6A         3.1510    0.2350    3.1520 hc        1 3NM      0.043200
     22 H7          3.6470    2.1970    0.7920 h1        1 3NM     -0.010800
     23 H7A         3.0870    2.6010    2.4930 h1        1 3NM     -0.010800
@<TRIPOS>BOND
     1    1    6 1   
     2    1    8 2   
     3    2    9 1   
     4    2   11 1   
     5    2   13 1   
     6    2   15 1   
     7    3    8 1   
     8    3   12 1   
     9    4    6 1   
    10    4   17 1   
    11    4   18 1   
    12    4   19 1   
    13    5   10 1   
    14    6   12 2   
    15    7   10 1   
    16    8   10 1   
    17    9   16 1   
    18   12   14 1   
    19   14   16 1   
    20   14   20 1   
    21   14   21 1   
    22   16   22 1   
    23   16   23 1   
@<TRIPOS>SUBSTRUCTURE
     1 3NM         1 TEMP              0 ****  ****    0 ROOT
