@<TRIPOS>MOLECULE
3NM
   23    23     1     0     0
SMALL
bcc


@<TRIPOS>ATOM
      1 N           2.9040   -1.3570   -0.0780 nc        1 3NM     -0.674000
      2 P          -4.0330   -0.2820   -0.1630 p5        1 3NM      1.316900
      3 S           2.2380    1.1320   -0.1200 ss        1 3NM     -0.305300
      4 C1          0.7020   -2.5160   -0.4360 c3        1 3NM     -0.124400
      5 O1          5.6110    0.3300   -0.8090 o         1 3NM     -0.836300
      6 C2          1.5150   -1.2860   -0.2850 cc        1 3NM      0.298600
      7 O2          5.3310    0.2920    1.4000 o         1 3NM     -0.836300
      8 C3          3.4190   -0.1450    0.0220 cd        1 3NM      0.418900
      9 O3         -2.4080   -0.9010   -0.2160 os        1 3NM     -0.573200
     10 C4          4.8960    0.1750    0.2210 c         1 3NM      0.836100
     11 O4         -3.9940    0.8400   -1.1690 o         1 3NM     -0.939500
     12 C5          0.9830   -0.0040   -0.3430 cd        1 3NM     -0.095700
     13 O5         -4.8410   -1.4910   -0.5550 o         1 3NM     -0.939500
     14 C6         -0.4080    0.3840   -0.6240 c3        1 3NM     -0.060100
     15 O6         -4.1590    0.1590    1.2740 o         1 3NM     -0.939500
     16 C7         -1.4630   -0.1170    0.3950 c3        1 3NM      0.237400
     17 H1          0.8410   -3.1890    0.4460 hc        1 3NM      0.044700
     18 H1A        -0.3850   -2.2420   -0.5160 hc        1 3NM      0.044700
     19 H1B         1.0090   -3.0760   -1.3540 hc        1 3NM      0.044700
     20 H6         -0.4780    1.5020   -0.6850 hc        1 3NM      0.046200
     21 H6A        -0.7000   -0.0220   -1.6320 hc        1 3NM      0.046200
     22 H7         -1.9420    0.7730    0.8930 h1        1 3NM     -0.004300
     23 H7A        -0.9220   -0.7190    1.1860 h1        1 3NM     -0.004300
@<TRIPOS>BOND
     1    1    6 1   
     2    1    8 2   
     3    2    9 1   
     4    2   11 1   
     5    2   13 1   
     6    2   15 1   
     7    3    8 1   
     8    3   12 1   
     9    4    6 1   
    10    4   17 1   
    11    4   18 1   
    12    4   19 1   
    13    5   10 1   
    14    6   12 2   
    15    7   10 1   
    16    8   10 1   
    17    9   16 1   
    18   12   14 1   
    19   14   16 1   
    20   14   20 1   
    21   14   21 1   
    22   16   22 1   
    23   16   23 1   
@<TRIPOS>SUBSTRUCTURE
     1 3NM         1 TEMP              0 ****  ****    0 ROOT
