@<TRIPOS>MOLECULE
3NM
   23    20     1     0     0
SMALL
bcc


@<TRIPOS>ATOM
      1 N          -2.2210   -0.0710   -1.9800 n2        1 3NM     -0.146000
      2 P           2.8560   -0.1450    3.3420 p3        1 3NM      2.509000
      3 S          -1.4020    0.2670    0.2550 ss        1 3NM      0.411000
      4 C1         -0.2900   -0.2200   -3.4620 c3        1 3NM     -0.120000
      5 O1         -4.7220   -0.9660   -0.0170 o         1 3NM     -0.572000
      6 C2         -0.6530   -0.0220   -2.0060 c2        1 3NM     -0.171000
      7 O2         -4.7610    1.2030   -0.2500 o         1 3NM     -0.572000
      8 C3         -2.6570    0.1020   -0.6310 c1        1 3NM     -0.290000
      9 O3          2.5820   -0.1350    1.7860 os        1 3NM     -0.731000
     10 C4         -4.1290    0.1140   -0.2800 c1        1 3NM      0.397000
     11 O4          4.2690   -0.6090    3.6010 o         1 3NM     -1.257500
     12 C5         -0.1830    0.1810   -0.6570 c1        1 3NM     -0.310000
     13 O5          1.8860   -1.0840    4.0180 o         1 3NM     -1.257500
     14 C6          1.2200    0.3370   -0.1150 c2        1 3NM     -0.156000
     15 O6          2.6750    1.2490    3.8930 os        1 3NM     -1.262000
     16 C7          1.2480   -0.0760    1.3390 c3        1 3NM      0.093000
     17 H1          0.6200   -0.5790   -3.5250 hc        1 3NM      0.063667
     18 H1A        -0.9190   -0.8490   -3.8730 hc        1 3NM      0.063667
     19 H1B        -0.3350    0.6410   -3.9300 hc        1 3NM      0.063667
     20 H6          1.8320   -0.2290   -0.6260 ha        1 3NM      0.095500
     21 H6A         1.4980    1.2720   -0.1930 ha        1 3NM      0.095500
     22 H7          0.7530    0.5780    1.8750 h1        1 3NM      0.027000
     23 H7A         0.8320   -0.9580    1.4360 h1        1 3NM      0.027000
@<TRIPOS>BOND
     1    1    6 1   
     2    1    8 1   
     3    2    9 1   
     4    2   11 1   
     5    2   13 1   
     6    3    8 1   
     7    3   12 1   
     8    4    6 1   
     9    4   17 1   
    10    4   18 1   
    11    4   19 1   
    12    5   10 1   
    13    6   12 1   
    14    7   10 1   
    15    9   16 1   
    16   14   16 1   
    17   14   20 1   
    18   14   21 1   
    19   16   22 1   
    20   16   23 1   
@<TRIPOS>SUBSTRUCTURE
     1 3NM         1 TEMP              0 ****  ****    0 ROOT
