@<TRIPOS>MOLECULE
3NP
   12    11     1     0     0
SMALL
bcc


@<TRIPOS>ATOM
      1 O1          2.8850   -0.5770   -0.5300 o         1 3NP     -0.831300
      2 O2          2.0310    1.0230    0.7860 o         1 3NP     -0.831300
      3 O4         -2.7300    0.5660   -0.6700 o         1 3NP     -0.256000
      4 O3         -2.3070   -0.8800    0.7840 o         1 3NP     -0.256000
      5 C1          1.9270    0.0170    0.0290 c         1 3NP      0.921600
      6 C2          0.5050   -0.5480   -0.2320 c3        1 3NP     -0.229400
      7 C3         -0.5120    0.5090    0.1160 c3        1 3NP     -0.033700
      8 N1         -1.9500    0.0210    0.0710 no        1 3NP      0.213300
      9 H21         0.4270   -0.8510   -1.3040 hc        1 3NP      0.050700
     10 H22         0.3760   -1.4580    0.4040 hc        1 3NP      0.050700
     11 H31        -0.3340    0.8700    1.1690 h1        1 3NP      0.100700
     12 H32        -0.4490    1.3750   -0.5970 h1        1 3NP      0.100700
@<TRIPOS>BOND
     1    1    5 1   
     2    2    5 1   
     3    3    8 1   
     4    4    8 1   
     5    5    6 1   
     6    6    7 1   
     7    6    9 1   
     8    6   10 1   
     9    7    8 1   
    10    7   11 1   
    11    7   12 1   
@<TRIPOS>SUBSTRUCTURE
     1 3NP         1 TEMP              0 ****  ****    0 ROOT
