@<TRIPOS>MOLECULE
3NP
   12    11     1     0     0
SMALL
bcc


@<TRIPOS>ATOM
      1 O1          0.0960    0.2800   -0.0450 o         1 3NP     -0.831300
      2 O2          1.9640   -0.4430   -1.0500 o         1 3NP     -0.831300
      3 O4          5.1660    0.8530    2.5640 o         1 3NP     -0.256000
      4 O3          4.2980   -0.9930    3.0350 o         1 3NP     -0.256000
      5 C1          1.3110   -0.0480   -0.0440 c         1 3NP      0.921600
      6 C2          2.0550    0.0390    1.3150 c3        1 3NP     -0.229400
      7 C3          3.5420    0.0600    1.0570 c3        1 3NP     -0.033700
      8 N1          4.3880   -0.0340    2.3140 no        1 3NP      0.213300
      9 H21         1.7220    0.9590    1.8540 hc        1 3NP      0.050700
     10 H22         1.7650   -0.8540    1.9230 hc        1 3NP      0.050700
     11 H31         3.8440    1.0110    0.5410 h1        1 3NP      0.100700
     12 H32         3.8250   -0.8240    0.4190 h1        1 3NP      0.100700
@<TRIPOS>BOND
     1    1    5 1   
     2    2    5 1   
     3    3    8 1   
     4    4    8 1   
     5    5    6 1   
     6    6    7 1   
     7    6    9 1   
     8    6   10 1   
     9    7    8 1   
    10    7   11 1   
    11    7   12 1   
@<TRIPOS>SUBSTRUCTURE
     1 3NP         1 TEMP              0 ****  ****    0 ROOT
