@<TRIPOS>MOLECULE
3NP
   12    11     1     0     0
SMALL
bcc


@<TRIPOS>ATOM
      1 O1         -2.0660    0.5300   -1.7250 o         1 3NP     -0.831300
      2 O2         -0.0870    1.1420   -2.4060 o         1 3NP     -0.831300
      3 O4          0.3210   -1.0430    2.4240 o         1 3NP     -0.256000
      4 O3          2.2550   -0.4770    1.4390 o         1 3NP     -0.256000
      5 C1         -0.8590    0.7880   -1.4770 c         1 3NP      0.921600
      6 C2         -0.3360    0.6720   -0.0620 c3        1 3NP     -0.229400
      7 C3          0.2220   -0.7170    0.1570 c3        1 3NP     -0.033700
      8 N1          0.9190   -0.7580    1.3970 no        1 3NP      0.213300
      9 H21         0.3700    1.3340    0.0800 hc        1 3NP      0.050700
     10 H22        -1.0650    0.8330    0.5700 hc        1 3NP      0.050700
     11 H31        -0.5120   -1.3650    0.1740 h1        1 3NP      0.100700
     12 H32         0.8390   -0.9390   -0.5710 h1        1 3NP      0.100700
@<TRIPOS>BOND
     1    1    5 1   
     2    2    5 1   
     3    3    8 1   
     4    4    8 1   
     5    5    6 1   
     6    6    7 1   
     7    6    9 1   
     8    6   10 1   
     9    7    8 1   
    10    7   11 1   
    11    7   12 1   
@<TRIPOS>SUBSTRUCTURE
     1 3NP         1 TEMP              0 ****  ****    0 ROOT
