@<TRIPOS>MOLECULE
3NS
   59    54     1     0     0
SMALL
bcc


@<TRIPOS>ATOM
      1 C1         -3.4680   -1.9470   -1.0920 c3        1 3NS     -0.045000
      2 C2         -2.7490   -0.6290   -0.7590 c3        1 3NS     -0.045000
      3 N1         -2.0100   -0.7580    0.5140 n         1 3NS     -0.373000
      4 C14        -3.7310   -2.4190   -4.7500 c1        1 3NS     -0.049000
      5 C15        -3.1950   -2.6410   -6.0190 c1        1 3NS     -0.121250
      6 C16        -1.8070   -2.7400   -6.1860 c1        1 3NS     -0.121250
      7 C17        -0.9430   -2.6120   -5.0620 c1        1 3NS     -0.121250
      8 C18        -1.4680   -2.3950   -3.8210 c1        1 3NS     -0.121250
      9 C19        -2.8900   -2.2940   -3.6500 c1        1 3NS     -0.049000
     10 N3         -5.0020   -2.2420   -4.3260 n1        1 3NS     -0.157000
     11 N4         -3.6590   -2.0430   -2.5660 n2        1 3NS     -0.191000
     12 C20        -4.9720   -2.0090   -2.9760 c1        1 3NS      0.031000
     13 C21        -6.4310   -2.3310   -2.9010 c2        1 3NS     -0.173000
     14 C3         -0.8870    0.0940    0.7690 c2        1 3NS      0.300000
     15 O1         -0.8260    1.1600    0.2520 o         1 3NS     -0.408000
     16 C4          0.2300   -0.3570    1.7560 c3        1 3NS     -0.173000
     17 C5          0.9370    0.8520    2.3010 c3        1 3NS     -0.119000
     18 C6          1.1250    0.6920    3.8460 c3        1 3NS     -0.098000
     19 C7          2.2630    0.9800    1.6550 c2        1 3NS      0.298000
     20 O2          2.8520   -0.0180    1.2730 o         1 3NS     -0.428000
     21 C8          0.2860    1.7310    4.5740 c3        1 3NS     -0.216500
     22 C9          0.6880   -0.7000    4.2770 c3        1 3NS     -0.216500
     23 C13         4.6070    3.8430    2.0510 c3        1 3NS     -0.046000
     24 N2          2.8540    2.2880    1.4580 n         1 3NS     -0.337000
     25 O5          4.4770    3.8350    3.4250 oh        1 3NS     -0.365000
     26 C10         4.2600    2.4420    1.4930 c3        1 3NS     -0.011000
     27 C11         4.8190    2.3010    0.0950 c3        1 3NS     -0.243000
     28 C12         6.3390    2.1000    0.1670 c2        1 3NS      0.335000
     29 O3          6.8690    1.0360   -0.3380 o         1 3NS     -0.572000
     30 O4          7.0610    3.0300    0.5330 o         1 3NS     -0.572000
     31 H1         -4.3920   -1.9690   -0.6200 h1        1 3NS      0.107000
     32 H1A        -2.9150   -2.7160   -0.7790 h1        1 3NS      0.107000
     33 H2         -3.3880    0.0700   -0.6820 h1        1 3NS      0.108000
     34 H2A        -2.1110   -0.4130   -1.4860 h1        1 3NS      0.108000
     35 HN1        -2.2870   -1.3710    1.1580 hn        1 3NS      0.262000
     36 H15        -3.8080   -2.7320   -6.8180 ha        1 3NS      0.133750
     37 H16        -1.4210   -2.9000   -7.1020 ha        1 3NS      0.133750
     38 H17         0.0530   -2.6460   -5.1870 ha        1 3NS      0.133750
     39 H18        -0.8580   -2.3050   -3.0270 ha        1 3NS      0.133750
     40 H21        -6.5780   -3.3170   -3.1420 ha        1 3NS      0.110333
     41 H21A       -6.9070   -1.7850   -3.5040 ha        1 3NS      0.110333
     42 H21B       -6.7560   -2.1630   -1.9770 ha        1 3NS      0.110333
     43 H4         -0.1700   -0.8580    2.4950 hc        1 3NS      0.124500
     44 H4A         0.8700   -0.9250    1.2850 hc        1 3NS      0.124500
     45 H5          0.4210    1.6260    2.1220 hc        1 3NS      0.109000
     46 H6          2.0910    0.8250    4.0790 hc        1 3NS      0.090000
     47 H8          0.1080    2.5200    3.9540 hc        1 3NS      0.079667
     48 H8A         0.7880    2.0500    5.3910 hc        1 3NS      0.079667
     49 H8B        -0.6210    1.3070    4.8660 hc        1 3NS      0.079667
     50 H9         -0.3180   -0.7610    4.2400 hc        1 3NS      0.079667
     51 H9A         0.9950   -0.8680    5.2060 hc        1 3NS      0.079667
     52 H9B         1.0900   -1.3890    3.6620 hc        1 3NS      0.079667
     53 H13         5.5370    4.0740    1.8090 h1        1 3NS      0.106500
     54 H13A        3.9460    4.5610    1.6390 h1        1 3NS      0.106500
     55 HN2         2.3270    3.0040    1.3290 hn        1 3NS      0.211000
     56 HO5         4.9910    4.4480    3.7680 ho        1 3NS      0.214000
     57 H10         4.6370    1.7770    2.0500 h1        1 3NS      0.141000
     58 H11         4.6330    3.0630   -0.3870 hc        1 3NS      0.073000
     59 H11A        4.4150    1.5410   -0.3370 hc        1 3NS      0.073000
@<TRIPOS>BOND
     1    1    2 1   
     2    1   11 1   
     3    1   31 1   
     4    1   32 1   
     5    2    3 1   
     6    2   33 1   
     7    2   34 1   
     8    3   14 1   
     9    3   35 1   
    10    4    9 1   
    11    5    6 1   
    12    5   36 1   
    13    6   37 1   
    14    7    8 1   
    15    7   38 1   
    16    8   39 1   
    17   10   12 1   
    18   11   12 1   
    19   13   40 1   
    20   13   41 1   
    21   13   42 1   
    22   14   15 1   
    23   14   16 1   
    24   16   17 1   
    25   16   43 1   
    26   16   44 1   
    27   17   18 1   
    28   17   19 1   
    29   17   45 1   
    30   18   21 1   
    31   18   22 1   
    32   18   46 1   
    33   19   20 1   
    34   19   24 1   
    35   21   47 1   
    36   21   48 1   
    37   21   49 1   
    38   22   50 1   
    39   22   51 1   
    40   22   52 1   
    41   23   25 1   
    42   23   26 1   
    43   23   53 1   
    44   23   54 1   
    45   24   26 1   
    46   24   55 1   
    47   25   56 1   
    48   26   27 1   
    49   26   57 1   
    50   27   28 1   
    51   27   58 1   
    52   27   59 1   
    53   28   29 1   
    54   28   30 1   
@<TRIPOS>SUBSTRUCTURE
     1 3NS         1 TEMP              0 ****  ****    0 ROOT
