@<TRIPOS>MOLECULE
3NS
   59    60     1     0     0
SMALL
bcc


@<TRIPOS>ATOM
      1 C1         -3.5690    0.7540    1.1810 c3        1 3NS      0.014300
      2 C2         -2.5970    1.1910    0.0500 c3        1 3NS      0.080000
      3 N1         -1.2440    1.3130    0.4980 n         1 3NS     -0.588900
      4 C14        -6.8090   -0.1780   -0.2730 ca        1 3NS      0.063400
      5 C15        -7.5980   -1.1060   -0.9680 ca        1 3NS     -0.080000
      6 C16        -7.0220   -2.3120   -1.3370 ca        1 3NS     -0.156000
      7 C17        -5.6830   -2.6190   -1.0340 ca        1 3NS     -0.118000
      8 C18        -4.8670   -1.7340   -0.3470 ca        1 3NS     -0.123000
      9 C19        -5.4300   -0.5100    0.0390 ca        1 3NS     -0.071200
     10 N3         -7.1050    1.1070    0.2210 nc        1 3NS     -0.576100
     11 N4         -4.9200    0.5870    0.7470 na        1 3NS     -0.163300
     12 C20        -5.9690    1.5450    0.8060 cd        1 3NS      0.414800
     13 C21        -5.7930    2.8600    1.4780 c3        1 3NS     -0.113400
     14 C3         -0.4170    0.2100    0.6560 c         1 3NS      0.662100
     15 O1         -0.8590   -0.9320    0.4230 o         1 3NS     -0.610100
     16 C4          0.9940    0.4560    1.1470 c3        1 3NS     -0.140400
     17 C5          2.0310    0.2660    0.0490 c3        1 3NS     -0.127700
     18 C6          1.7940    1.1840   -1.1510 c3        1 3NS     -0.058700
     19 C7          3.4150    0.5020    0.6750 c         1 3NS      0.649100
     20 O2          3.5290    1.2340    1.6880 o         1 3NS     -0.666100
     21 C8          1.9750    2.6470   -0.8060 c3        1 3NS     -0.095100
     22 C9          2.6790    0.8070   -2.3230 c3        1 3NS     -0.095100
     23 C13         6.4830    1.2660    0.7180 c3        1 3NS      0.114400
     24 N2          4.4900   -0.0680    0.0480 n         1 3NS     -0.540900
     25 C10         5.8010   -0.1190    0.6690 c3        1 3NS      0.080700
     26 C11         6.7320   -1.1170   -0.0270 c3        1 3NS     -0.212400
     27 C12         6.0950   -2.5000   -0.2450 c         1 3NS      0.908600
     28 O3          6.5930   -3.4860    0.3610 o         1 3NS     -0.841800
     29 O4          5.1120   -2.5850   -1.0450 o         1 3NS     -0.841800
     30 H1         -3.2070   -0.2330    1.5950 h1        1 3NS      0.070200
     31 H1A        -3.5570    1.5200    2.0070 h1        1 3NS      0.070200
     32 H2         -2.6430    0.4140   -0.7690 h1        1 3NS      0.061200
     33 H2A        -2.9330    2.1800   -0.3700 h1        1 3NS      0.061200
     34 HN1        -0.8970    2.2170    0.7050 hn        1 3NS      0.313500
     35 H16        -7.6240   -3.0530   -1.8850 ha        1 3NS      0.126000
     36 H17        -5.2720   -3.5890   -1.3540 ha        1 3NS      0.133000
     37 H18        -3.8180   -1.9730   -0.1170 ha        1 3NS      0.159000
     38 H21        -4.9250    3.4060    1.0310 hc        1 3NS      0.059033
     39 H21A       -6.7130    3.4840    1.3570 hc        1 3NS      0.059033
     40 H21B       -5.6030    2.7090    2.5690 hc        1 3NS      0.059033
     41 H4          1.1150    1.4760    1.5980 hc        1 3NS      0.083200
     42 H4A         1.1950   -0.2940    1.9610 hc        1 3NS      0.083200
     43 H5          1.9630   -0.8020   -0.3120 hc        1 3NS      0.096700
     44 H6          0.7230    1.0250   -1.4730 hc        1 3NS      0.040700
     45 H8          2.9680    2.8160   -0.3210 hc        1 3NS      0.038867
     46 H8A         1.9150    3.2700   -1.7310 hc        1 3NS      0.038867
     47 H8B         1.1800    2.9860   -0.0990 hc        1 3NS      0.038867
     48 H9          2.7330   -0.3030   -2.4410 hc        1 3NS      0.038867
     49 H9A         2.2660    1.2460   -3.2630 hc        1 3NS      0.038867
     50 H9B         3.7160    1.1980   -2.1840 hc        1 3NS      0.038867
     51 H13         5.8180    2.0060    1.2420 h1        1 3NS      0.044200
     52 H13A        7.4540    1.1710    1.2730 h1        1 3NS      0.044200
     53 HN2         4.3220   -0.7890   -0.6410 hn        1 3NS      0.369500
     54 HO5         6.1550    1.5230   -1.1770 ho        1 3NS      0.405000
     55 H10         5.6700   -0.4410    1.7480 h1        1 3NS      0.055700
     56 H11         7.0400   -0.7100   -1.0230 hc        1 3NS      0.043200
     57 H11A        7.6460   -1.2280    0.6070 hc        1 3NS      0.043200
     58 O5          6.8360    1.7890   -0.5490 oh        1 3NS     -0.619800
     59 H15        -8.6440   -0.8740   -1.2100 ha        1 3NS      0.140000
@<TRIPOS>BOND
     1    1    2 1   
     2    1   11 1   
     3    1   30 1   
     4    1   31 1   
     5    2    3 1   
     6    2   32 1   
     7    2   33 1   
     8    3   14 1   
     9    3   34 1   
    10    4    5 ar  
    11    4    9 ar  
    12    4   10 1   
    13    5    6 ar  
    14    5   59 1   
    15    6    7 ar  
    16    6   35 1   
    17    7    8 ar  
    18    7   36 1   
    19    8    9 ar  
    20    8   37 1   
    21    9   11 1   
    22   10   12 2   
    23   11   12 1   
    24   12   13 1   
    25   13   38 1   
    26   13   39 1   
    27   13   40 1   
    28   14   15 2   
    29   14   16 1   
    30   16   17 1   
    31   16   41 1   
    32   16   42 1   
    33   17   18 1   
    34   17   19 1   
    35   17   43 1   
    36   18   21 1   
    37   18   22 1   
    38   18   44 1   
    39   19   20 2   
    40   19   24 1   
    41   21   45 1   
    42   21   46 1   
    43   21   47 1   
    44   22   48 1   
    45   22   49 1   
    46   22   50 1   
    47   23   25 1   
    48   23   51 1   
    49   23   52 1   
    50   23   58 1   
    51   24   25 1   
    52   24   53 1   
    53   25   26 1   
    54   25   55 1   
    55   26   27 1   
    56   26   56 1   
    57   26   57 1   
    58   27   28 1   
    59   27   29 1   
    60   54   58 1   
@<TRIPOS>SUBSTRUCTURE
     1 3NS         1 TEMP              0 ****  ****    0 ROOT
