@<TRIPOS>MOLECULE
3NT
   17    17     1     0     0
SMALL
bcc


@<TRIPOS>ATOM
      1 C1          1.8250   -0.4730   -0.0090 ca        1 3NT     -0.081300
      2 C2          0.4790   -0.8550   -0.0100 ca        1 3NT     -0.072000
      3 C3         -0.5160    0.1340   -0.0020 ca        1 3NT     -0.171200
      4 C4         -0.1840    1.4980    0.0060 ca        1 3NT     -0.074000
      5 C5          1.1610    1.8610    0.0060 ca        1 3NT     -0.135000
      6 C6          2.1580    0.8870   -0.0020 ca        1 3NT     -0.092000
      7 C7          2.8870   -1.5060   -0.0010 c3        1 3NT     -0.058800
      8 N3         -1.9470   -0.2710   -0.0040 no        1 3NT      0.312200
      9 O1N        -2.7940    0.5830    0.0030 o         1 3NT     -0.209000
     10 O2N        -2.2220   -1.4410   -0.0110 o         1 3NT     -0.209000
     11 H2          0.2030   -1.9230   -0.0180 ha        1 3NT      0.170000
     12 H4         -0.9760    2.2660    0.0110 ha        1 3NT      0.170000
     13 H5          1.4340    2.9270    0.0110 ha        1 3NT      0.148000
     14 H6          3.2170    1.1870   -0.0030 ha        1 3NT      0.144000
     15 H7C1        3.1810   -1.7420    1.0530 hc        1 3NT      0.052367
     16 H7C2        2.5350   -2.4490   -0.4860 hc        1 3NT      0.052367
     17 H7C3        3.7960   -1.1460   -0.5450 hc        1 3NT      0.052367
@<TRIPOS>BOND
     1    1    2 ar  
     2    1    6 ar  
     3    1    7 1   
     4    2    3 ar  
     5    2   11 1   
     6    3    4 ar  
     7    3    8 1   
     8    4    5 ar  
     9    4   12 1   
    10    5    6 ar  
    11    5   13 1   
    12    6   14 1   
    13    7   15 1   
    14    7   16 1   
    15    7   17 1   
    16    8    9 1   
    17    8   10 1   
@<TRIPOS>SUBSTRUCTURE
     1 3NT         1 TEMP              0 ****  ****    0 ROOT
