@<TRIPOS>MOLECULE
3NT
   17    17     1     0     0
SMALL
bcc


@<TRIPOS>ATOM
      1 C1         -0.0060    0.0020   -0.0190 ca        1 3NT     -0.081300
      2 C2          1.3920    0.0310   -0.0190 ca        1 3NT     -0.072000
      3 C3          2.0820    0.0170    1.2030 ca        1 3NT     -0.171200
      4 C4          1.3910   -0.0260    2.4250 ca        1 3NT     -0.074000
      5 C5         -0.0010   -0.0530    2.4080 ca        1 3NT     -0.135000
      6 C6         -0.6960   -0.0390    1.1990 ca        1 3NT     -0.092000
      7 C7         -0.7470    0.0020   -1.3010 c3        1 3NT     -0.058800
      8 N3          3.5680    0.0480    1.2030 no        1 3NT      0.312200
      9 O1N         4.1510    0.0350    2.2550 o         1 3NT     -0.209000
     10 O2N         4.1510    0.0850    0.1520 o         1 3NT     -0.209000
     11 H2          1.9490    0.0660   -0.9720 ha        1 3NT      0.170000
     12 H4          1.9440   -0.0360    3.3790 ha        1 3NT      0.170000
     13 H5         -0.5540   -0.0860    3.3590 ha        1 3NT      0.148000
     14 H6         -1.7970   -0.0590    1.2000 ha        1 3NT      0.144000
     15 H7C1       -0.9320   -1.0520   -1.6330 hc        1 3NT      0.052367
     16 H7C2       -1.7350    0.5130   -1.1910 hc        1 3NT      0.052367
     17 H7C3       -0.1660    0.5230   -2.1020 hc        1 3NT      0.052367
@<TRIPOS>BOND
     1    1    2 ar  
     2    1    6 ar  
     3    1    7 1   
     4    2    3 ar  
     5    2   11 1   
     6    3    4 ar  
     7    3    8 1   
     8    4    5 ar  
     9    4   12 1   
    10    5    6 ar  
    11    5   13 1   
    12    6   14 1   
    13    7   15 1   
    14    7   16 1   
    15    7   17 1   
    16    8    9 1   
    17    8   10 1   
@<TRIPOS>SUBSTRUCTURE
     1 3NT         1 TEMP              0 ****  ****    0 ROOT
