@<TRIPOS>MOLECULE
3NT
   17    17     1     0     0
SMALL
bcc


@<TRIPOS>ATOM
      1 C1         -0.0060    0.0040   -0.0180 ca        1 3NT     -0.081300
      2 C2          1.3920    0.0320   -0.0200 ca        1 3NT     -0.072000
      3 C3          2.0820    0.0150    1.2020 ca        1 3NT     -0.171200
      4 C4          1.3930   -0.0290    2.4240 ca        1 3NT     -0.074000
      5 C5          0.0000   -0.0540    2.4080 ca        1 3NT     -0.135000
      6 C6         -0.6950   -0.0380    1.2000 ca        1 3NT     -0.092000
      7 C7         -0.7490    0.0060   -1.3000 c3        1 3NT     -0.058800
      8 N3          3.5690    0.0440    1.2000 no        1 3NT      0.312200
      9 O1N         4.1530    0.0290    2.2510 o         1 3NT     -0.209000
     10 O2N         4.1510    0.0810    0.1490 o         1 3NT     -0.209000
     11 H2          1.9470    0.0670   -0.9730 ha        1 3NT      0.170000
     12 H4          1.9470   -0.0410    3.3780 ha        1 3NT      0.170000
     13 H5         -0.5510   -0.0880    3.3600 ha        1 3NT      0.148000
     14 H6         -1.7960   -0.0570    1.2020 ha        1 3NT      0.144000
     15 H7C1       -0.9440   -1.0460   -1.6270 hc        1 3NT      0.052367
     16 H7C2       -1.7320    0.5270   -1.1900 hc        1 3NT      0.052367
     17 H7C3       -0.1640    0.5190   -2.1030 hc        1 3NT      0.052367
@<TRIPOS>BOND
     1    1    2 ar  
     2    1    6 ar  
     3    1    7 1   
     4    2    3 ar  
     5    2   11 1   
     6    3    4 ar  
     7    3    8 1   
     8    4    5 ar  
     9    4   12 1   
    10    5    6 ar  
    11    5   13 1   
    12    6   14 1   
    13    7   15 1   
    14    7   16 1   
    15    7   17 1   
    16    8    9 1   
    17    8   10 1   
@<TRIPOS>SUBSTRUCTURE
     1 3NT         1 TEMP              0 ****  ****    0 ROOT
