@<TRIPOS>MOLECULE
3NT
   17    14     1     0     0
SMALL
bcc


@<TRIPOS>ATOM
      1 C1         -0.8180   -0.0330   -0.6820 c1        1 3NT     -0.047100
      2 C2          0.5680   -0.0180   -0.6680 c1        1 3NT     -0.014500
      3 C3          1.2490    0.0290    0.5380 c1        1 3NT     -0.180300
      4 C4          0.5440    0.0610    1.7310 c1        1 3NT     -0.047000
      5 C5         -0.8420    0.0460    1.7180 c1        1 3NT     -0.047000
      6 C6         -1.5230   -0.0010    0.5110 c1        1 3NT     -0.034500
      7 C7         -1.5610   -0.0940   -1.9980 c3        1 3NT     -0.093000
      8 N3          2.6680    0.0460    0.5510 no        1 3NT      0.321300
      9 O1N         3.2780   -0.5560    1.4230 o         1 3NT     -0.209000
     10 O2N         3.3520    0.7330   -0.4100 o         1 3NT     -0.209000
     11 H2          1.0640   -0.0410   -1.5090 ha        1 3NT      0.112500
     12 H4          1.0240    0.0940    2.5800 ha        1 3NT      0.101500
     13 H5         -1.3380    0.0690    2.5580 ha        1 3NT      0.101500
     14 H6         -2.4990   -0.0120    0.5020 ha        1 3NT      0.086500
     15 H7C1       -2.5000    0.1470   -1.8540 hc        1 3NT      0.052367
     16 H7C2       -1.1560    0.5340   -2.6310 hc        1 3NT      0.052367
     17 H7C3       -1.5090   -1.0030   -2.3610 hc        1 3NT      0.052367
@<TRIPOS>BOND
     1    1    6 3   
     2    1    7 1   
     3    2    3 3   
     4    2   11 1   
     5    3    8 1   
     6    4    5 3   
     7    4   12 1   
     8    5   13 1   
     9    6   14 1   
    10    7   15 1   
    11    7   16 1   
    12    7   17 1   
    13    8    9 1   
    14    8   10 1   
@<TRIPOS>SUBSTRUCTURE
     1 3NT         1 TEMP              0 ****  ****    0 ROOT
