@<TRIPOS>MOLECULE
3NU
   46    46     1     0     0
SMALL
bcc


@<TRIPOS>ATOM
      1 C1         -1.3370    1.3450   -0.0150 c3        1 3NU     -0.127500
      2 N1          0.9060   -0.5030    0.3530 n1        1 3NU     -0.720100
      3 C2          1.9650   -0.5340   -0.1910 c1        1 3NU      0.477800
      4 N2         -0.1930   -0.6330    1.0580 ne        1 3NU     -0.175400
      5 C3         -1.2200    0.1690    0.9190 c2        1 3NU      0.392300
      6 N3         -2.1900   -1.4790   -3.2250 n1        1 3NU     -0.861300
      7 C4         -3.1510   -0.4820   -2.8610 cy        1 3NU      0.737900
      8 N4         -2.8490    0.1790   -1.5750 nu        1 3NU     -0.735000
      9 C5         -1.6550    0.9200   -1.4310 c2        1 3NU      0.069800
     10 N5         -4.5860   -1.0080   -2.9440 n7        1 3NU     -0.781200
     11 C6         -0.8690    1.3570   -2.4330 c2        1 3NU     -0.271000
     12 N6         -8.4100    1.1170   -3.7760 n2        1 3NU     -0.596900
     13 C7         -1.4370   -2.3290   -3.5500 c1        1 3NU      0.470800
     14 C8         -2.4310   -0.0540    1.8090 c3        1 3NU     -0.105000
     15 C9         -2.7930   -1.5170    1.9490 c3        1 3NU     -0.091600
     16 C10        -2.1830    0.5720    3.1670 c3        1 3NU     -0.091600
     17 C11        -4.9830    0.0260   -3.9210 cy        1 3NU      0.144500
     18 C12        -5.9860    1.0800   -3.4900 c3        1 3NU     -0.149700
     19 C13        -7.3620    0.4930   -3.3760 c2        1 3NU      0.413200
     20 C14        -2.8950    0.3570   -5.3670 c3        1 3NU     -0.094100
     21 C15        -3.5280    0.5630   -4.0280 cy        1 3NU     -0.072700
     22 H2         -0.3780    1.9330   -0.0150 hc        1 3NU      0.077700
     23 HN5        -2.9860   -0.4470   -0.7990 hn        1 3NU      0.395800
     24 H6         -1.0300    1.1050   -3.4870 ha        1 3NU      0.129000
     25 H7         -0.0040    2.0030   -2.2370 ha        1 3NU      0.129000
     26 H8         -3.3030    0.4760    1.3250 hc        1 3NU      0.058700
     27 H9         -2.8960   -1.9960    0.9450 hc        1 3NU      0.045700
     28 H9A        -2.0140   -2.0720    2.5260 hc        1 3NU      0.045700
     29 H9B        -3.7660   -1.6110    2.4910 hc        1 3NU      0.045700
     30 H10        -3.0990    0.4770    3.7980 hc        1 3NU      0.045700
     31 H10A       -1.3380    0.0620    3.6890 hc        1 3NU      0.045700
     32 H10B       -1.9350    1.6560    3.0590 hc        1 3NU      0.045700
     33 H11        -5.0820   -0.9640   -2.0780 hn        1 3NU      0.363800
     34 H12        -5.3390   -0.4810   -4.8580 h1        1 3NU      0.089700
     35 H12A       -5.7050    1.5110   -2.4900 hc        1 3NU      0.072700
     36 H13        -5.9530    1.9190   -4.2350 hc        1 3NU      0.072700
     37 H13A       -7.3820   -0.5170   -2.9090 h4        1 3NU     -0.031200
     38 H14        -3.0640   -0.6810   -5.7450 hc        1 3NU      0.049700
     39 H14A       -1.7940    0.5410   -5.3260 hc        1 3NU      0.049700
     40 H15        -3.3430    1.0710   -6.1020 hc        1 3NU      0.049700
     41 H15A       -3.4150    1.6180   -3.6860 hc        1 3NU      0.083700
     42 H16       -10.1670    0.4740   -4.6640 h1        1 3NU      0.046033
     43 H16A       -9.7400   -0.4730   -3.1640 h1        1 3NU      0.046033
     44 H16B      -10.3350    1.2460   -3.0230 h1        1 3NU      0.046033
     45 HN1        -2.1420    2.0400    0.3510 hc        1 3NU      0.077700
     46 C16        -9.7100    0.5450   -3.6390 c3        1 3NU      0.089100
@<TRIPOS>BOND
     1    1    5 1   
     2    1    9 1   
     3    1   22 1   
     4    1   45 1   
     5    2    3 3   
     6    2    4 1   
     7    4    5 2   
     8    5   14 1   
     9    6    7 1   
    10    6   13 3   
    11    7    8 1   
    12    7   10 1   
    13    7   21 1   
    14    8    9 1   
    15    8   23 1   
    16    9   11 2   
    17   10   17 1   
    18   10   33 1   
    19   11   24 1   
    20   11   25 1   
    21   12   19 2   
    22   12   46 1   
    23   14   15 1   
    24   14   16 1   
    25   14   26 1   
    26   15   27 1   
    27   15   28 1   
    28   15   29 1   
    29   16   30 1   
    30   16   31 1   
    31   16   32 1   
    32   17   18 1   
    33   17   21 1   
    34   17   34 1   
    35   18   19 1   
    36   18   35 1   
    37   18   36 1   
    38   19   37 1   
    39   20   21 1   
    40   20   38 1   
    41   20   39 1   
    42   20   40 1   
    43   21   41 1   
    44   42   46 1   
    45   43   46 1   
    46   44   46 1   
@<TRIPOS>SUBSTRUCTURE
     1 3NU         1 TEMP              0 ****  ****    0 ROOT
