@<TRIPOS>MOLECULE
3NU
   46    48     1     0     0
SMALL
bcc


@<TRIPOS>ATOM
      1 C1         -3.2200   -0.6630   -0.1350 cc        1 3NU     -0.332800
      2 N1         -5.4540   -0.6510   -0.2920 na        1 3NU     -0.013600
      3 C2         -4.3370   -1.4550   -0.4750 cd        1 3NU     -0.120300
      4 N2         -5.1410    0.5740    0.1370 nd        1 3NU     -0.522800
      5 C3         -3.7810    0.6250    0.2510 cc        1 3NU      0.365600
      6 N3          0.7910   -2.0420   -0.2820 nb        1 3NU     -0.747000
      7 C4          0.4370   -0.7240   -0.5540 ca        1 3NU      0.866900
      8 N4         -0.8620   -0.2270   -0.4940 nb        1 3NU     -0.752000
      9 C5         -1.8410   -1.1090   -0.1890 ca        1 3NU      0.580800
     10 N5          1.4240    0.1720   -1.0070 nh        1 3NU     -0.815900
     11 C6         -1.5620   -2.4740    0.0750 ca        1 3NU     -0.424600
     12 N6          5.5240    0.6760    0.2080 n3        1 3NU     -0.734600
     13 C7         -0.2190   -2.8720    0.0160 ca        1 3NU      0.461200
     14 C8         -3.0270    1.8250    0.7110 c3        1 3NU     -0.089000
     15 C9         -2.7800    2.7670   -0.4540 c3        1 3NU     -0.087600
     16 C10        -3.7460    2.5480    1.8340 c3        1 3NU     -0.087600
     17 C11         2.8230   -0.0500   -0.6860 c3        1 3NU      0.206500
     18 C12         3.7200    0.9000   -1.4980 c3        1 3NU     -0.095400
     19 C13         5.1880    0.6020   -1.2070 c3        1 3NU      0.171300
     20 C14         4.6500   -0.1430    1.0370 c3        1 3NU      0.171300
     21 C15         3.1670    0.1250    0.8020 c3        1 3NU     -0.095400
     22 H2         -4.3990   -2.4840   -0.8280 h4        1 3NU      0.180000
     23 HN5         1.1500    1.1340   -0.9770 hn        1 3NU      0.420800
     24 H6         -2.3600   -3.1780    0.3280 ha        1 3NU      0.149000
     25 H7          0.0750   -3.9180    0.2250 h4        1 3NU      0.023100
     26 H8         -2.0310    1.4710    1.1060 hc        1 3NU      0.068700
     27 H9         -2.1830    3.6440   -0.1070 hc        1 3NU      0.039200
     28 H9A        -2.2140    2.2440   -1.2620 hc        1 3NU      0.039200
     29 H9B        -3.7470    3.1360   -0.8720 hc        1 3NU      0.039200
     30 H10        -3.9770    1.8440    2.6690 hc        1 3NU      0.039200
     31 H10A       -3.0970    3.3680    2.2280 hc        1 3NU      0.039200
     32 H10B       -4.7020    2.9970    1.4740 hc        1 3NU      0.039200
     33 H11         3.0820   -1.1100   -0.9860 h1        1 3NU      0.085700
     34 H12         3.5420    0.7600   -2.5950 hc        1 3NU      0.055200
     35 H12A        3.4890    1.9660   -1.2400 hc        1 3NU      0.055200
     36 H13         5.8190    1.3670   -1.7430 h1        1 3NU      0.033450
     37 H13A        5.4410   -0.4120   -1.6410 h1        1 3NU      0.033450
     38 H14         4.8430   -1.2460    0.8770 h1        1 3NU      0.033450
     39 H14A        4.8910    0.0910    2.1130 h1        1 3NU      0.033450
     40 H15         2.9100    1.1640    1.1350 hc        1 3NU      0.055200
     41 H15A        2.5770   -0.5960    1.4240 hc        1 3NU      0.055200
     42 H16         7.5390    1.1340   -0.1420 h1        1 3NU      0.032033
     43 H16A        7.1340    0.5720    1.5450 h1        1 3NU      0.032033
     44 H16B        7.2350   -0.6350    0.1820 h1        1 3NU      0.032033
     45 HN1        -6.4030   -0.8950   -0.4510 hn        1 3NU      0.323700
     46 C16         6.9230    0.4110    0.4550 c3        1 3NU      0.158100
@<TRIPOS>BOND
     1    1    3 2   
     2    1    5 1   
     3    1    9 1   
     4    2    3 1   
     5    2    4 1   
     6    2   45 1   
     7    3   22 1   
     8    4    5 2   
     9    5   14 1   
    10    6    7 ar  
    11    6   13 ar  
    12    7    8 ar  
    13    7   10 1   
    14    8    9 ar  
    15    9   11 ar  
    16   10   17 1   
    17   10   23 1   
    18   11   13 ar  
    19   11   24 1   
    20   12   19 1   
    21   12   20 1   
    22   12   46 1   
    23   13   25 1   
    24   14   15 1   
    25   14   16 1   
    26   14   26 1   
    27   15   27 1   
    28   15   28 1   
    29   15   29 1   
    30   16   30 1   
    31   16   31 1   
    32   16   32 1   
    33   17   18 1   
    34   17   21 1   
    35   17   33 1   
    36   18   19 1   
    37   18   34 1   
    38   18   35 1   
    39   19   36 1   
    40   19   37 1   
    41   20   21 1   
    42   20   38 1   
    43   20   39 1   
    44   21   40 1   
    45   21   41 1   
    46   42   46 1   
    47   43   46 1   
    48   44   46 1   
@<TRIPOS>SUBSTRUCTURE
     1 3NU         1 TEMP              0 ****  ****    0 ROOT
