@<TRIPOS>MOLECULE
3NU
   46    42     1     0     0
SMALL
bcc


@<TRIPOS>ATOM
      1 C1          0.1460   -0.3480    2.9530 c2        1 3NU     -0.164000
      2 N1          1.5100   -1.0350    4.5360 n2        1 3NU     -0.124500
      3 C2          0.9260   -1.3890    3.3670 c1        1 3NU     -0.073500
      4 N2          1.0910    0.2350    4.8530 n2        1 3NU     -0.124500
      5 C3          0.2540    0.6550    3.8800 c1        1 3NU     -0.073500
      6 N3         -2.1020   -0.4320   -0.4980 n1        1 3NU     -0.227000
      7 C4         -0.7380   -0.4120   -0.5650 c1        1 3NU      0.146000
      8 N4          0.0020   -0.3480    0.5790 n1        1 3NU     -0.227000
      9 C5         -0.6130   -0.3050    1.7780 c1        1 3NU      0.140000
     10 N5         -0.0860   -0.3840   -1.8400 n3        1 3NU     -0.260000
     11 C6         -1.9780   -0.3240    1.8470 c1        1 3NU     -0.286000
     12 N6          0.4820   -0.4990   -5.3300 n3        1 3NU     -0.261000
     13 C7         -2.7180   -0.3880    0.6990 c1        1 3NU     -0.003000
     14 C8         -0.1530    1.9050    4.6570 c2        1 3NU     -0.040000
     15 C9          0.9940    2.8740    4.6810 c3        1 3NU     -0.206000
     16 C10        -0.5200    1.5200    6.0800 c3        1 3NU     -0.206000
     17 C11        -0.1100   -1.5780   -2.7060 c3        1 3NU      0.010000
     18 C12         1.2300   -1.7510   -3.3220 c3        1 3NU     -0.174500
     19 C13         1.5460   -0.6650   -4.3290 c3        1 3NU     -0.071500
     20 C14        -0.8470   -0.3260   -4.7280 c3        1 3NU     -0.071500
     21 C15        -1.1740   -1.4120   -3.7190 c3        1 3NU     -0.174500
     22 C16         0.7800    0.6280   -6.1630 c3        1 3NU     -0.118000
     23 H2          1.0430   -2.2420    2.9010 DU        1 3NU      0.231000
     24 HN5         0.3240    0.3810   -2.1260 hn        1 3NU      0.216000
     25 H6         -2.4250   -0.2920    2.7170 ha        1 3NU      0.158000
     26 H7         -3.6960   -0.4020    0.7470 ha        1 3NU      0.161000
     27 H8         -0.9240    2.3230    4.2230 ha        1 3NU      0.101000
     28 H9          0.9360    3.4680    3.9040 hc        1 3NU      0.079000
     29 H9A         1.8370    2.3810    4.6530 hc        1 3NU      0.079000
     30 H9B         0.9540    3.4050    5.5010 hc        1 3NU      0.079000
     31 H10         0.2120    1.0030    6.4780 hc        1 3NU      0.079000
     32 H10A       -0.6720    2.3360    6.6110 hc        1 3NU      0.079000
     33 H10B       -1.3350    0.9790    6.0720 hc        1 3NU      0.079000
     34 H11        -0.3130   -2.3640   -2.1590 h1        1 3NU      0.125000
     35 H12         1.9090   -1.7340   -2.6130 hc        1 3NU      0.099250
     36 H12A        1.2630   -2.6180   -3.7700 hc        1 3NU      0.099250
     37 H13         1.6660    0.1810   -3.8540 h1        1 3NU      0.070750
     38 H13A        2.3820   -0.8920   -4.7890 h1        1 3NU      0.070750
     39 H14        -1.5220   -0.3410   -5.4400 h1        1 3NU      0.070750
     40 H14A       -0.8790    0.5420   -4.2800 h1        1 3NU      0.070750
     41 H15        -2.0090   -1.1810   -3.2650 hc        1 3NU      0.099250
     42 H15A       -1.2940   -2.2600   -4.1930 hc        1 3NU      0.099250
     43 H16         0.2440    0.5800   -6.9850 h1        1 3NU      0.072000
     44 H16A        0.5660    1.4590   -5.6790 h1        1 3NU      0.072000
     45 H16B        1.7310    0.6220   -6.3930 h1        1 3NU      0.072000
     46 HN1         2.0820   -1.5500    5.0280 DU        1 3NU      0.231000
@<TRIPOS>BOND
     1    1    3 1   
     2    1    5 1   
     3    1    9 1   
     4    2    3 1   
     5    2    4 1   
     6    4    5 1   
     7    6   13 1   
     8    7    8 1   
     9    7   10 1   
    10    9   11 1   
    11   10   17 1   
    12   10   24 1   
    13   11   25 1   
    14   12   19 1   
    15   12   20 1   
    16   12   22 1   
    17   13   26 1   
    18   14   15 1   
    19   14   16 1   
    20   14   27 1   
    21   15   28 1   
    22   15   29 1   
    23   15   30 1   
    24   16   31 1   
    25   16   32 1   
    26   16   33 1   
    27   17   18 1   
    28   17   21 1   
    29   17   34 1   
    30   18   19 1   
    31   18   35 1   
    32   18   36 1   
    33   19   37 1   
    34   19   38 1   
    35   20   21 1   
    36   20   39 1   
    37   20   40 1   
    38   21   41 1   
    39   21   42 1   
    40   22   43 1   
    41   22   44 1   
    42   22   45 1   
@<TRIPOS>SUBSTRUCTURE
     1 3NU         1 TEMP              0 ****  ****    0 ROOT
