@<TRIPOS>MOLECULE
3NU
   47    46     1     0     0
SMALL
bcc


@<TRIPOS>ATOM
      1 C1         -1.4330    1.2840   -1.6800 c3        1 3NU     -0.244700
      2 N1          0.7390    1.4760   -0.9770 nh        1 3NU     -0.310100
      3 C2         -0.0190    1.8180   -2.0310 c1        1 3NU     -0.004100
      4 N2          0.1020    0.8100    0.0510 n2        1 3NU     -0.417400
      5 C3         -1.1630    0.6510   -0.2950 c2        1 3NU      0.338300
      6 N3         -0.1050    1.2520   -4.9500 n1        1 3NU     -0.949400
      7 C4         -1.4740    1.3480   -4.8910 ce        1 3NU      0.856500
      8 N4         -2.3070    0.9700   -3.9750 nf        1 3NU     -0.716300
      9 C5         -1.9080    0.3570   -2.7570 cf        1 3NU      0.117400
     10 N5         -7.1070   -1.8520   -0.1120 n3        1 3NU     -0.896800
     11 C6         -1.9950   -0.9740   -2.5670 c2        1 3NU     -0.238000
     12 N6         -5.3200    0.6750   -3.3640 nh        1 3NU     -0.182100
     13 C7          1.0850    1.2130   -4.9530 c1        1 3NU      0.597800
     14 C8         -2.2440    0.0570    0.5430 c3        1 3NU     -0.080000
     15 C9         -1.7860   -1.2020    1.2530 c3        1 3NU     -0.096600
     16 C10        -2.7380    1.0840    1.5470 c3        1 3NU     -0.096600
     17 C11        -6.4420   -0.8870   -0.9650 c3        1 3NU      0.197700
     18 C12        -6.6460   -1.2390   -2.4520 c3        1 3NU     -0.105400
     19 C13        -5.4890   -0.7770   -3.3260 c3        1 3NU     -0.031700
     20 C14        -6.0930    1.4510   -0.1470 c2        1 3NU     -0.212000
     21 C15        -6.8690    0.5420   -0.7320 c2        1 3NU     -0.257200
     22 H2         -2.1280    2.1550   -1.5480 hc        1 3NU      0.108700
     23 HN5        -1.9200    1.8320   -5.7960 h5        1 3NU      0.038800
     24 H6         -2.2830   -1.6770   -3.3600 ha        1 3NU      0.136500
     25 H7         -1.7410   -1.4360   -1.6030 ha        1 3NU      0.136500
     26 H8         -3.0950   -0.2090   -0.1510 hc        1 3NU      0.034700
     27 H9         -2.6440   -1.6550    1.8060 hc        1 3NU      0.050700
     28 H9A        -1.3960   -1.9490    0.5210 hc        1 3NU      0.050700
     29 H9B        -0.9760   -0.9700    1.9860 hc        1 3NU      0.050700
     30 H10        -3.6050    0.6680    2.1150 hc        1 3NU      0.050700
     31 H10A       -3.0600    2.0190    1.0290 hc        1 3NU      0.050700
     32 H10B       -1.9300    1.3410    2.2740 hc        1 3NU      0.050700
     33 H11        -8.0970   -1.8480   -0.2570 hn        1 3NU      0.370300
     34 H12        -5.3350   -0.9790   -0.7330 h1        1 3NU      0.059700
     35 H12A       -7.6180   -0.8180   -2.8170 hc        1 3NU      0.091700
     36 H13        -6.6980   -2.3580   -2.5740 hc        1 3NU      0.091700
     37 H13A       -5.6440   -1.1560   -4.3780 h1        1 3NU      0.104200
     38 H14        -4.5130   -1.2020   -2.9330 h1        1 3NU      0.104200
     39 H14A       -5.0740    1.2300    0.2120 ha        1 3NU      0.131000
     40 H15        -6.4370    2.4770    0.0510 ha        1 3NU      0.131000
     41 H15A       -7.9020    0.7790   -1.0390 ha        1 3NU      0.140000
     42 H16        -4.8010    0.8360   -5.3890 h4        1 3NU      0.065300
     43 H16A       -5.4740    1.1400   -2.4730 hn        1 3NU      0.334700
     44 H16B       -4.8180    2.4430   -4.3650 h4        1 3NU      0.065300
     45 HN1         1.7130    1.6630   -0.8510 hn        1 3NU      0.496800
     46 H52        -6.9070   -1.6680    0.8510 hn        1 3NU      0.370300
     47 C16        -4.9680    1.3430   -4.4150 c2        1 3NU      0.416100
@<TRIPOS>BOND
     1    1    3 1   
     2    1    5 1   
     3    1    9 1   
     4    1   22 1   
     5    2    3 3   
     6    2    4 1   
     7    2   45 1   
     8    4    5 2   
     9    5   14 1   
    10    6    7 1   
    11    6   13 3   
    12    7    8 2   
    13    7   23 1   
    14    8    9 1   
    15    9   11 2   
    16   10   17 1   
    17   10   33 1   
    18   10   46 1   
    19   11   24 1   
    20   11   25 1   
    21   12   19 1   
    22   12   43 1   
    23   12   47 2   
    24   14   15 1   
    25   14   16 1   
    26   14   26 1   
    27   15   27 1   
    28   15   28 1   
    29   15   29 1   
    30   16   30 1   
    31   16   31 1   
    32   16   32 1   
    33   17   18 1   
    34   17   21 1   
    35   17   34 1   
    36   18   19 1   
    37   18   35 1   
    38   18   36 1   
    39   19   37 1   
    40   19   38 1   
    41   20   21 2   
    42   20   39 1   
    43   20   40 1   
    44   21   41 1   
    45   42   47 1   
    46   44   47 1   
@<TRIPOS>SUBSTRUCTURE
     1 3NU         1 TEMP              0 ****  ****    0 ROOT
