@<TRIPOS>MOLECULE
3NU
   46    45     1     0     0
SMALL
bcc


@<TRIPOS>ATOM
      1 C1         -1.6390    0.9980   -0.0100 c3        1 3NU     -0.234700
      2 N1          0.3240    2.1730    0.0170 nh        1 3NU     -0.330100
      3 C2         -0.8500    2.1680   -0.6410 c1        1 3NU      0.013900
      4 N2          0.4960    1.2050    0.9850 n2        1 3NU     -0.446400
      5 C3         -0.6020    0.4710    1.0180 c2        1 3NU      0.346300
      6 N3         -2.9990   -3.1760   -1.1880 n1        1 3NU     -0.906400
      7 C4         -3.5390   -1.9160   -1.5140 ce        1 3NU      0.902500
      8 N4         -3.1740   -0.8160   -0.6370 nh        1 3NU     -0.724000
      9 C5         -2.0690   -0.0170   -1.0260 c2        1 3NU      0.093800
     10 N5         -4.3490   -1.8310   -2.5220 n2        1 3NU     -0.755100
     11 C6         -1.4820   -0.0630   -2.2390 c2        1 3NU     -0.256000
     12 N6         -8.5250    1.6300   -5.0970 nh        1 3NU     -0.033100
     13 C7         -2.5730   -4.2580   -0.9680 c1        1 3NU      0.508800
     14 C8         -0.8760   -0.6880    1.9130 c3        1 3NU     -0.086000
     15 C9          0.3460   -1.1350    2.6910 c3        1 3NU     -0.093600
     16 C10        -2.0110   -0.3560    2.8650 c3        1 3NU     -0.093600
     17 C11        -5.9020    0.6890   -4.2690 c2        1 3NU     -0.201200
     18 C12        -7.1430    0.1870   -3.6260 c3        1 3NU     -0.057500
     19 C13        -8.3800    0.5140   -4.3760 c2        1 3NU     -0.142800
     20 C14        -3.7450    1.9200   -4.2650 c3        1 3NU     -0.072900
     21 C15        -4.9990    1.4510   -3.6450 c2        1 3NU     -0.174200
     22 H2         -2.5190    1.4350    0.5390 hc        1 3NU      0.123700
     23 HN5        -3.1430   -1.0710    0.3330 hn        1 3NU      0.406800
     24 H6         -1.7490   -0.7920   -3.0130 ha        1 3NU      0.136000
     25 H7         -0.7040    0.6580   -2.5220 ha        1 3NU      0.136000
     26 H8         -1.1940   -1.5440    1.2470 hc        1 3NU      0.060700
     27 H9          0.0930   -2.0380    3.2980 hc        1 3NU      0.045867
     28 H9A         0.6950   -0.3290    3.3810 hc        1 3NU      0.045867
     29 H9B         1.1810   -1.3940    1.9960 hc        1 3NU      0.045867
     30 H10        -1.7130    0.4680    3.5580 hc        1 3NU      0.045867
     31 H10A       -2.9230   -0.0370    2.3060 hc        1 3NU      0.045867
     32 H10B       -2.2630   -1.2570    3.4760 hc        1 3NU      0.045867
     33 H11        -4.7150   -0.9210   -2.7290 hn        1 3NU      0.438400
     34 H12        -5.7550    0.3660   -5.3140 ha        1 3NU      0.128000
     35 H12A       -7.2300    0.5830   -2.5740 hc        1 3NU      0.050200
     36 H13        -7.0750   -0.9360   -3.5500 hc        1 3NU      0.050200
     37 H13A       -9.2280   -0.1790   -4.3120 h4        1 3NU      0.029800
     38 H14        -3.6700    1.6190   -5.3390 hc        1 3NU      0.046367
     39 H14A       -3.6780    3.0350   -4.2050 hc        1 3NU      0.046367
     40 H15        -2.8660    1.4920   -3.7150 hc        1 3NU      0.046367
     41 H15A       -5.1510    1.7720   -2.6000 ha        1 3NU      0.123000
     42 H16       -10.5060    1.3900   -5.7610 h4        1 3NU      0.014800
     43 H16A       -7.7220    2.2380   -5.1380 hn        1 3NU      0.269700
     44 H16B       -9.5860    2.9450   -6.3330 h4        1 3NU      0.014800
     45 HN1         1.0800    2.8080   -0.1150 hn        1 3NU      0.480800
     46 C16        -9.6050    2.0090   -5.7680 c2        1 3NU     -0.132900
@<TRIPOS>BOND
     1    1    3 1   
     2    1    5 1   
     3    1    9 1   
     4    1   22 1   
     5    2    3 3   
     6    2    4 1   
     7    2   45 1   
     8    4    5 2   
     9    5   14 1   
    10    6    7 1   
    11    6   13 3   
    12    7    8 1   
    13    7   10 2   
    14    8    9 1   
    15    8   23 1   
    16    9   11 2   
    17   10   33 1   
    18   11   24 1   
    19   11   25 1   
    20   12   19 2   
    21   12   43 1   
    22   12   46 2   
    23   14   15 1   
    24   14   16 1   
    25   14   26 1   
    26   15   27 1   
    27   15   28 1   
    28   15   29 1   
    29   16   30 1   
    30   16   31 1   
    31   16   32 1   
    32   17   18 1   
    33   17   21 2   
    34   17   34 1   
    35   18   19 1   
    36   18   35 1   
    37   18   36 1   
    38   19   37 1   
    39   20   21 1   
    40   20   38 1   
    41   20   39 1   
    42   20   40 1   
    43   21   41 1   
    44   42   46 1   
    45   44   46 1   
@<TRIPOS>SUBSTRUCTURE
     1 3NU         1 TEMP              0 ****  ****    0 ROOT
