@<TRIPOS>MOLECULE
3NV
   51    54     1     0     0
SMALL
bcc


@<TRIPOS>ATOM
      1 C1          0.8330   -0.9190   -0.6980 c3        1 3NV      0.184800
      2 N1          1.5350    0.0190    0.1630 nh        1 3NV     -0.630000
      3 CL1        -0.1500    7.8800   -7.0940 cl        1 3NV     -0.015400
      4 C2          0.6160   -2.2900   -0.0210 c3        1 3NV      0.159300
      5 N2          0.0270   -2.1800    1.2980 n3        1 3NV     -0.820200
      6 C3          0.7290   -1.2470    2.1550 c3        1 3NV      0.159300
      7 N3          2.0260    2.6820   -2.4040 nb        1 3NV     -0.656000
      8 C4          0.9460    0.1290    1.4910 c3        1 3NV      0.184800
      9 N4          3.3070    4.7490   -2.3410 nh        1 3NV     -0.780600
     10 C5          1.5990    1.5830   -1.7780 ca        1 3NV      0.359200
     11 N5          2.1290    9.2810   -7.4900 na        1 3NV     -0.009600
     12 C6          1.9280    1.2380   -0.4300 ca        1 3NV      0.030300
     13 N6          3.3140    9.5670   -6.9550 nc        1 3NV     -0.504800
     14 C7          2.7590    2.1470    0.2610 ca        1 3NV     -0.135000
     15 N7          1.0880    5.6990   -2.2530 nb        1 3NV     -0.707000
     16 C8          3.2050    3.3030   -0.3710 ca        1 3NV     -0.179300
     17 N8          2.7040    6.3930   -3.9750 nb        1 3NV     -0.731000
     18 C9          2.8250    3.5490   -1.7140 ca        1 3NV      0.553200
     19 C10         2.1670    8.1580   -5.5390 cd        1 3NV     -0.303800
     20 C11         1.3750    8.4250   -6.6780 cc        1 3NV     -0.006900
     21 C12         3.3940    8.9060   -5.7620 cd        1 3NV      0.363600
     22 C13         4.5680    8.9660   -4.8460 c3        1 3NV     -0.090000
     23 C14         5.6680    8.0440   -5.3390 c3        1 3NV     -0.088100
     24 C15         5.0870   10.3830   -4.6940 c3        1 3NV     -0.088100
     25 C16         1.8110    7.3150   -4.4120 ca        1 3NV      0.560800
     26 C17         0.5410    7.4700   -3.8090 ca        1 3NV     -0.393600
     27 C18         0.2400    6.6220   -2.7310 ca        1 3NV      0.452200
     28 C19         2.3190    5.6210   -2.8900 ca        1 3NV      0.850900
     29 H1         -0.1710   -0.5140   -1.0180 h1        1 3NV      0.046950
     30 H1A         1.4590   -1.0900   -1.6180 h1        1 3NV      0.046950
     31 H2          1.6050   -2.8360   -0.0040 h1        1 3NV      0.038450
     32 H2A        -0.0940   -2.8800   -0.6650 h1        1 3NV      0.038450
     33 HN2        -0.0180   -3.0830    1.7320 hn        1 3NV      0.367800
     34 H3          1.7340   -1.6430    2.4860 h1        1 3NV      0.038450
     35 H3A         0.1000   -1.0880    3.0750 h1        1 3NV      0.038450
     36 H4          1.6410    0.7180    2.1500 h1        1 3NV      0.046950
     37 H4A        -0.0430    0.6710    1.4500 h1        1 3NV      0.046950
     38 HN4         4.0560    4.5550   -2.9840 hn        1 3NV      0.423800
     39 H5          0.9500    0.9340   -2.3950 h4        1 3NV      0.024100
     40 H7          3.0690    1.9550    1.2990 ha        1 3NV      0.143000
     41 H8          3.8450    4.0170    0.1680 ha        1 3NV      0.156000
     42 H13         4.2250    8.6060   -3.8330 hc        1 3NV      0.068700
     43 H14         5.2900    6.9960   -5.4140 hc        1 3NV      0.040033
     44 H14A        6.0320    8.3680   -6.3430 hc        1 3NV      0.040033
     45 H14B        6.5250    8.0660   -4.6240 hc        1 3NV      0.040033
     46 H15         5.5120   10.7580   -5.6560 hc        1 3NV      0.040033
     47 H15A        4.2660   11.0690   -4.3770 hc        1 3NV      0.040033
     48 H15B        5.8910   10.4060   -3.9190 hc        1 3NV      0.040033
     49 H17        -0.1730    8.2170   -4.1700 ha        1 3NV      0.157000
     50 H18        -0.7370    6.6800   -2.2160 h4        1 3NV      0.027100
     51 HN5         1.8660    9.6510   -8.3740 hn        1 3NV      0.331700
@<TRIPOS>BOND
     1    1    2 1   
     2    1    4 1   
     3    1   29 1   
     4    1   30 1   
     5    2    8 1   
     6    2   12 1   
     7    3   20 1   
     8    4    5 1   
     9    4   31 1   
    10    4   32 1   
    11    5    6 1   
    12    5   33 1   
    13    6    8 1   
    14    6   34 1   
    15    6   35 1   
    16    7   10 ar  
    17    7   18 ar  
    18    8   36 1   
    19    8   37 1   
    20    9   18 1   
    21    9   28 1   
    22    9   38 1   
    23   10   12 ar  
    24   10   39 1   
    25   11   13 1   
    26   11   20 1   
    27   11   51 1   
    28   12   14 ar  
    29   13   21 2   
    30   14   16 ar  
    31   14   40 1   
    32   15   27 ar  
    33   15   28 ar  
    34   16   18 ar  
    35   16   41 1   
    36   17   25 ar  
    37   17   28 ar  
    38   19   20 2   
    39   19   21 1   
    40   19   25 1   
    41   21   22 1   
    42   22   23 1   
    43   22   24 1   
    44   22   42 1   
    45   23   43 1   
    46   23   44 1   
    47   23   45 1   
    48   24   46 1   
    49   24   47 1   
    50   24   48 1   
    51   25   26 ar  
    52   26   27 ar  
    53   26   49 1   
    54   27   50 1   
@<TRIPOS>SUBSTRUCTURE
     1 3NV         1 TEMP              0 ****  ****    0 ROOT
