@<TRIPOS>MOLECULE
3NV
   52    55     1     0     0
SMALL
bcc


@<TRIPOS>ATOM
      1 C1          1.6440   -0.6410   -1.3470 c3        1 3NV      0.199800
      2 N1          1.5550    0.3130   -0.2560 nh        1 3NV     -0.621000
      3 CL1        -0.8610    7.7980   -5.5540 cl        1 3NV      0.007600
      4 C2          1.2980   -2.0970   -0.9750 c3        1 3NV      0.154800
      5 N2          0.1430   -2.1890   -0.1100 n3        1 3NV     -0.820200
      6 C3          0.3310   -1.4310    1.1060 c3        1 3NV      0.154800
      7 N3          3.2670    3.1650   -1.8550 nb        1 3NV     -0.595000
      8 C4          0.6280    0.0580    0.8340 c3        1 3NV      0.199800
      9 N4          3.6560    5.4550   -1.1620 n4        1 3NV     -0.700400
     10 C5          2.7540    1.9640   -1.6390 ca        1 3NV      0.340200
     11 N5          1.2980    8.3570   -7.0790 na        1 3NV      0.016400
     12 C6          1.9860    1.5990   -0.4640 ca        1 3NV      0.143300
     13 N6          2.6240    8.4660   -7.0550 nc        1 3NV     -0.480800
     14 C7          1.7590    2.6510    0.4720 ca        1 3NV     -0.198000
     15 N7          1.7130    6.8920   -0.8300 nb        1 3NV     -0.685000
     16 C8          2.2910    3.9130    0.2570 ca        1 3NV     -0.115300
     17 N8          2.7560    6.6930   -3.0500 nb        1 3NV     -0.663000
     18 C9          3.0560    4.1300   -0.9100 ca        1 3NV      0.336200
     19 C10         1.8780    7.9060   -4.9530 cd        1 3NV     -0.364800
     20 C11         0.7700    8.0240   -5.8330 cc        1 3NV      0.017100
     21 C12         3.0390    8.1960   -5.7830 cd        1 3NV      0.382600
     22 C13         4.4650    8.2290   -5.3490 c3        1 3NV     -0.088000
     23 C14         5.1620    6.9390   -5.7410 c3        1 3NV     -0.093100
     24 C15         5.1970    9.4260   -5.9270 c3        1 3NV     -0.093100
     25 C16         1.8280    7.5580   -3.5540 ca        1 3NV      0.593800
     26 C17         0.8220    8.1110   -2.7180 ca        1 3NV     -0.317600
     27 C18         0.8120    7.7430   -1.3630 ca        1 3NV      0.456200
     28 C19         2.6440    6.4120   -1.7170 ca        1 3NV      0.715900
     29 H1          2.7060   -0.6500   -1.7280 h1        1 3NV      0.058950
     30 H1A         0.9630   -0.3080   -2.1840 h1        1 3NV      0.058950
     31 H2          1.0650   -2.6420   -1.9330 h1        1 3NV      0.053200
     32 H2A         2.2160   -2.5720   -0.5190 h1        1 3NV      0.053200
     33 HN2        -0.0800   -3.1460    0.0930 hn        1 3NV      0.390800
     34 H3         -0.6230   -1.4790    1.7040 h1        1 3NV      0.053200
     35 H3A         1.1650   -1.8440    1.7480 h1        1 3NV      0.053200
     36 H4         -0.3440    0.5900    0.6210 h1        1 3NV      0.058950
     37 H4A         1.0690    0.4790    1.7830 h1        1 3NV      0.058950
     38 HN4         4.4380    5.3670   -1.8330 hn        1 3NV      0.478800
     39 H5          2.9540    1.2340   -2.4470 h4        1 3NV      0.053100
     40 H7          1.1540    2.4860    1.3770 ha        1 3NV      0.167000
     41 H8          2.1060    4.7190    0.9850 ha        1 3NV      0.169000
     42 H13         4.4780    8.3240   -4.2260 hc        1 3NV      0.046700
     43 H14         4.6410    6.0590   -5.2940 hc        1 3NV      0.047033
     44 H14A        6.2180    6.9580   -5.3780 hc        1 3NV      0.047033
     45 H14B        5.1720    6.8220   -6.8520 hc        1 3NV      0.047033
     46 H15         4.6580   10.3720   -5.6840 hc        1 3NV      0.047033
     47 H15A        5.2860    9.3420   -7.0370 hc        1 3NV      0.047033
     48 H15B        6.2260    9.4790   -5.4940 hc        1 3NV      0.047033
     49 H17         0.0800    8.8160   -3.1200 ha        1 3NV      0.190000
     50 H18         0.0590    8.1430   -0.6550 h4        1 3NV      0.063100
     51 HN5         0.7900    8.5120   -7.9240 hn        1 3NV      0.349700
     52 H42         4.0050    5.8240   -0.2690 hn        1 3NV      0.478800
@<TRIPOS>BOND
     1    1    2 1   
     2    1    4 1   
     3    1   29 1   
     4    1   30 1   
     5    2    8 1   
     6    2   12 1   
     7    3   20 1   
     8    4    5 1   
     9    4   31 1   
    10    4   32 1   
    11    5    6 1   
    12    5   33 1   
    13    6    8 1   
    14    6   34 1   
    15    6   35 1   
    16    7   10 ar  
    17    7   18 ar  
    18    8   36 1   
    19    8   37 1   
    20    9   18 1   
    21    9   28 1   
    22    9   38 1   
    23    9   52 1   
    24   10   12 ar  
    25   10   39 1   
    26   11   13 1   
    27   11   20 1   
    28   11   51 1   
    29   12   14 ar  
    30   13   21 2   
    31   14   16 ar  
    32   14   40 1   
    33   15   27 ar  
    34   15   28 ar  
    35   16   18 ar  
    36   16   41 1   
    37   17   25 ar  
    38   17   28 ar  
    39   19   20 2   
    40   19   21 1   
    41   19   25 1   
    42   21   22 1   
    43   22   23 1   
    44   22   24 1   
    45   22   42 1   
    46   23   43 1   
    47   23   44 1   
    48   23   45 1   
    49   24   46 1   
    50   24   47 1   
    51   24   48 1   
    52   25   26 ar  
    53   26   27 ar  
    54   26   49 1   
    55   27   50 1   
@<TRIPOS>SUBSTRUCTURE
     1 3NV         1 TEMP              0 ****  ****    0 ROOT
