@<TRIPOS>MOLECULE
3NV
   51    54     1     0     0
SMALL
bcc


@<TRIPOS>ATOM
      1 C1          0.8300   -0.9080   -0.6690 c3        1 3NV      0.184800
      2 N1          1.5340    0.0350    0.1870 nh        1 3NV     -0.630000
      3 Cl1        -0.1430    7.8480   -7.1220 cl        1 3NV     -0.015400
      4 C2          0.6140   -2.2750    0.0140 c3        1 3NV      0.159300
      5 N2          0.0260   -2.1590    1.3330 n7        1 3NV     -0.820200
      6 C3          0.7300   -1.2230    2.1850 c3        1 3NV      0.159300
      7 N3          2.0240    2.6850   -2.3920 nb        1 3NV     -0.656000
      8 C4          0.9460    0.1500    1.5150 c3        1 3NV      0.184800
      9 N4          3.3060    4.7520   -2.3400 nu        1 3NV     -0.780600
     10 C5          1.5960    1.5890   -1.7610 ca        1 3NV      0.359200
     11 N5          2.1350    9.2480   -7.5210 na        1 3NV     -0.009600
     12 C6          1.9260    1.2500   -0.4120 ca        1 3NV      0.030300
     13 N6          3.3180    9.5390   -6.9860 nc        1 3NV     -0.504800
     14 C7          2.7590    2.1630    0.2750 ca        1 3NV     -0.135000
     15 N7          1.0850    5.7000   -2.2640 nb        1 3NV     -0.707000
     16 C8          3.2050    3.3150   -0.3630 ca        1 3NV     -0.180300
     17 N8          2.7040    6.3850   -3.9860 nb        1 3NV     -0.731000
     18 C9          2.8240    3.5550   -1.7070 ca        1 3NV      0.553200
     19 C10         2.1700    8.1380   -5.5640 cd        1 3NV     -0.303800
     20 C11         1.3810    8.3980   -6.7060 cc        1 3NV     -0.006900
     21 C12         3.3970    8.8860   -5.7880 cd        1 3NV      0.363600
     22 C13         4.5680    8.9530   -4.8690 c3        1 3NV     -0.090000
     23 C14         5.6690    8.0290   -5.3530 c3        1 3NV     -0.088100
     24 C15         5.0860   10.3720   -4.7260 c3        1 3NV     -0.088100
     25 C16         1.8120    7.3030   -4.4310 ca        1 3NV      0.560800
     26 C17         0.5400    7.4600   -3.8330 ca        1 3NV     -0.393600
     27 C18         0.2370    6.6190   -2.7490 ca        1 3NV      0.452200
     28 C19         2.3180    5.6190   -2.8970 ca        1 3NV      0.850900
     29 H1          1.4550   -1.0830   -1.5890 h1        1 3NV      0.046950
     30 H1A        -0.1740   -0.5030   -0.9900 h1        1 3NV      0.046950
     31 H2          1.6020   -2.8210    0.0320 h1        1 3NV      0.038450
     32 H2A        -0.0970   -2.8680   -0.6270 h1        1 3NV      0.038450
     33 HN2        -0.0190   -3.0600    1.7720 hn        1 3NV      0.367800
     34 H3          1.7350   -1.6180    2.5170 h1        1 3NV      0.038450
     35 H3A         0.1020   -1.0590    3.1050 h1        1 3NV      0.038450
     36 H4         -0.0430    0.6920    1.4730 h1        1 3NV      0.046950
     37 H4A         1.6420    0.7420    2.1710 h1        1 3NV      0.046950
     38 HN4         4.0570    4.5560   -2.9790 hn        1 3NV      0.423800
     39 H5          0.9470    0.9380   -2.3740 h4        1 3NV      0.024100
     40 H7          3.0690    1.9750    1.3130 ha        1 3NV      0.143000
     41 H8          3.8450    4.0320    0.1720 ha        1 3NV      0.156000
     42 H13         4.2230    8.6000   -3.8550 hc        1 3NV      0.068700
     43 H14         6.0360    8.3460   -6.3590 hc        1 3NV      0.040033
     44 H14A        6.5250    8.0560   -4.6360 hc        1 3NV      0.040033
     45 H14B        5.2920    6.9800   -5.4220 hc        1 3NV      0.040033
     46 H15         5.5130   10.7400   -5.6890 hc        1 3NV      0.040033
     47 H15A        5.8880   10.4000   -3.9500 hc        1 3NV      0.040033
     48 H15B        4.2630   11.0590   -4.4160 hc        1 3NV      0.040033
     49 H17        -0.1740    8.2040   -4.2000 ha        1 3NV      0.157000
     50 H18        -0.7410    6.6800   -2.2370 h4        1 3NV      0.027100
     51 HN5         1.8740    9.6120   -8.4090 hn        1 3NV      0.331700
@<TRIPOS>BOND
     1    1    2 1   
     2    1    4 1   
     3    1   29 1   
     4    1   30 1   
     5    2    8 1   
     6    2   12 1   
     7    3   20 1   
     8    4    5 1   
     9    4   31 1   
    10    4   32 1   
    11    5    6 1   
    12    5   33 1   
    13    6    8 1   
    14    6   34 1   
    15    6   35 1   
    16    7   10 ar  
    17    7   18 ar  
    18    8   36 1   
    19    8   37 1   
    20    9   18 1   
    21    9   28 1   
    22    9   38 1   
    23   10   12 ar  
    24   10   39 1   
    25   11   13 1   
    26   11   20 1   
    27   11   51 1   
    28   12   14 ar  
    29   13   21 2   
    30   14   16 ar  
    31   14   40 1   
    32   15   27 ar  
    33   15   28 ar  
    34   16   18 ar  
    35   16   41 1   
    36   17   25 ar  
    37   17   28 ar  
    38   19   20 2   
    39   19   21 1   
    40   19   25 1   
    41   21   22 1   
    42   22   23 1   
    43   22   24 1   
    44   22   42 1   
    45   23   43 1   
    46   23   44 1   
    47   23   45 1   
    48   24   46 1   
    49   24   47 1   
    50   24   48 1   
    51   25   26 ar  
    52   26   27 ar  
    53   26   49 1   
    54   27   50 1   
@<TRIPOS>SUBSTRUCTURE
     1 3NV         1 TEMP              0 ****  ****    0 ROOT
