@<TRIPOS>MOLECULE
3NV
   51    46     1     0     0
SMALL
bcc


@<TRIPOS>ATOM
      1 C1         -1.7380   -3.6700    3.4830 c3        1 3NV     -0.079500
      2 N1         -0.3360   -3.8910    2.8730 n3        1 3NV     -0.238000
      3 CL1         1.5570    1.8650   -6.2810 cl        1 3NV      0.062000
      4 C2         -2.2570   -4.8860    4.2150 c3        1 3NV     -0.088500
      5 N2         -1.3120   -5.6760    4.5240 n3        1 3NV     -0.274000
      6 C3         -0.1570   -5.3610    4.9450 c3        1 3NV     -0.088500
      7 N3          0.0900   -0.5200    1.3060 n1        1 3NV     -0.129000
      8 C4          0.3790   -4.1480    4.2190 c3        1 3NV     -0.079500
      9 N4          1.6000    0.3270   -0.1060 n3        1 3NV     -0.187000
     10 C5         -0.4410   -1.4220    2.1780 c1        1 3NV     -0.098000
     11 N5          0.9710    4.4900   -5.6570 n2        1 3NV     -0.154000
     12 C6          0.1330   -2.6770    2.3130 c1        1 3NV      0.025000
     13 N6          0.5530    5.2250   -4.5770 n2        1 3NV     -0.072000
     14 C7          1.2300   -3.0080    1.5730 c1        1 3NV     -0.162000
     15 N7          0.3260   -0.3890   -1.8730 n1        1 3NV     -0.183000
     16 C8          1.7610   -2.1040    0.7000 c1        1 3NV     -0.103000
     17 N8          1.1400    1.8180   -2.0660 n1        1 3NV     -0.204000
     18 C9          1.1860   -0.8500    0.5660 c1        1 3NV      0.022000
     19 C10         0.6480    3.1150   -3.9760 c2        1 3NV     -0.131000
     20 C11         1.0290    3.1950   -5.2840 c2        1 3NV     -0.062000
     21 C12         0.3560    4.3770   -3.5460 c1        1 3NV     -0.059000
     22 C13        -0.0690    4.7630   -2.1460 c2        1 3NV     -0.035000
     23 C14         0.8320    5.8650   -1.6320 c3        1 3NV     -0.206000
     24 C15        -1.5000    5.2520   -2.1700 c3        1 3NV     -0.206000
     25 C16         0.5050    1.9510   -3.2400 c1        1 3NV      0.126000
     26 C17        -0.2260    0.9130   -3.7410 c1        1 3NV     -0.138500
     27 C18        -0.3100   -0.2580   -3.0470 c1        1 3NV     -0.138500
     28 C19         1.0550    0.6480   -1.3740 c1        1 3NV      0.132000
     29 H1         -1.6940   -2.9200    4.1100 h1        1 3NV      0.085750
     30 H1A        -2.3620   -3.4440    2.7650 h1        1 3NV      0.085750
     31 H2         -2.8950   -5.3590    3.6400 h1        1 3NV      0.097000
     32 H2A        -2.7150   -4.5980    5.0320 h1        1 3NV      0.097000
     33 HN2        -1.6430   -6.3650    5.0270 hn        1 3NV      0.154000
     34 H3         -0.2080   -5.1650    5.9030 h1        1 3NV      0.097000
     35 H3A         0.4520   -6.1150    4.8030 h1        1 3NV      0.097000
     36 H4          0.2650   -3.3620    4.7910 h1        1 3NV      0.085750
     37 H4A         1.3330   -4.2780    4.0490 h1        1 3NV      0.085750
     38 HN4         2.2040    0.8860    0.2860 hn        1 3NV      0.219000
     39 H5         -1.2260   -1.1850    2.7080 ha        1 3NV      0.162000
     40 H7          1.6350   -3.8910    1.6670 ha        1 3NV      0.141000
     41 H8          2.5460   -2.3400    0.1690 ha        1 3NV      0.156000
     42 H13        -0.0000    3.9860   -1.5590 ha        1 3NV      0.108000
     43 H14         0.7690    6.6420   -2.2260 hc        1 3NV      0.079667
     44 H14A        0.5510    6.1200   -0.7280 hc        1 3NV      0.079667
     45 H14B        1.7580    5.5450   -1.6090 hc        1 3NV      0.079667
     46 H15        -1.5220    6.1850   -2.4680 hc        1 3NV      0.079667
     47 H15A       -1.8820    5.1870   -1.2700 hc        1 3NV      0.079667
     48 H15B       -2.0240    4.6990   -2.7880 hc        1 3NV      0.079667
     49 H17        -0.6880    1.0090   -4.5950 ha        1 3NV      0.160000
     50 H18        -0.8330   -1.0010   -3.4040 ha        1 3NV      0.160000
     51 HN5         1.1750    4.8200   -6.4820 DU        1 3NV      0.282000
@<TRIPOS>BOND
     1    1    2 1   
     2    1    4 1   
     3    1   29 1   
     4    1   30 1   
     5    2    8 1   
     6    2   12 1   
     7    3   20 1   
     8    4    5 1   
     9    4   31 1   
    10    4   32 1   
    11    5    6 1   
    12    5   33 1   
    13    6    8 1   
    14    6   34 1   
    15    6   35 1   
    16    7   10 1   
    17    8   36 1   
    18    8   37 1   
    19    9   18 1   
    20    9   28 1   
    21    9   38 1   
    22   10   39 1   
    23   11   13 1   
    24   11   20 1   
    25   12   14 1   
    26   13   21 1   
    27   14   40 1   
    28   15   28 1   
    29   16   18 1   
    30   16   41 1   
    31   17   25 1   
    32   19   20 1   
    33   19   21 1   
    34   19   25 1   
    35   22   23 1   
    36   22   24 1   
    37   22   42 1   
    38   23   43 1   
    39   23   44 1   
    40   23   45 1   
    41   24   46 1   
    42   24   47 1   
    43   24   48 1   
    44   26   27 1   
    45   26   49 1   
    46   27   50 1   
@<TRIPOS>SUBSTRUCTURE
     1 3NV         1 TEMP              0 ****  ****    0 ROOT
