@<TRIPOS>MOLECULE
3NV
   51    54     1     0     0
SMALL
bcc


@<TRIPOS>ATOM
      1 C1          6.1180   -1.1150   -0.9640 c3        1 3NV      0.148300
      2 N1          5.8050    0.1520   -0.3250 nh        1 3NV     -0.628000
      3 CL1        -4.4850   -3.0770    0.6510 cl        1 3NV     -0.015400
      4 C2          7.6350   -1.3090   -1.1860 c3        1 3NV      0.148300
      5 N2          8.4610   -1.0490   -0.0270 n3        1 3NV     -0.796200
      6 C3          8.1300    0.2200    0.5870 c3        1 3NV      0.148300
      7 N3          2.0970   -0.1210   -0.6250 nb        1 3NV     -0.655000
      8 C4          6.6230    0.4480    0.8430 c3        1 3NV      0.148300
      9 N4          0.3260    1.4650   -0.1130 nh        1 3NV     -0.780600
     10 C5          3.3990   -0.4150   -0.6390 ca        1 3NV      0.358200
     11 N5         -6.1570   -1.0660   -0.0350 na        1 3NV     -0.009600
     12 C6          4.4350    0.4690   -0.2050 ca        1 3NV      0.031300
     13 N6         -6.2330    0.2540   -0.1910 nc        1 3NV     -0.504800
     14 C7          4.0160    1.7330    0.2690 ca        1 3NV     -0.136000
     15 N7         -0.0410   -0.0950    1.6940 nb        1 3NV     -0.707000
     16 C8          2.6630    2.0530    0.3000 ca        1 3NV     -0.179300
     17 N8         -1.8590    0.5210    0.1540 nb        1 3NV     -0.730000
     18 C9          1.7160    1.1030   -0.1560 ca        1 3NV      0.552200
     19 C10        -4.1070   -0.3030    0.4970 cd        1 3NV     -0.303800
     20 C11        -4.8860   -1.4750    0.3850 cc        1 3NV     -0.006900
     21 C12        -5.0080    0.7740    0.1180 cd        1 3NV      0.363600
     22 C13        -4.6760    2.2260    0.0730 c3        1 3NV     -0.090000
     23 C14        -4.4100    2.6600   -1.3560 c3        1 3NV     -0.088100
     24 C15        -5.7740    3.0700    0.6920 c3        1 3NV     -0.088100
     25 C16        -2.7140   -0.2200    0.9010 ca        1 3NV      0.561800
     26 C17        -2.2870   -0.9220    2.0510 ca        1 3NV     -0.393600
     27 C18        -0.9280   -0.8200    2.3920 ca        1 3NV      0.451200
     28 C19        -0.5430    0.5760    0.5870 ca        1 3NV      0.851900
     29 H1          5.7260   -1.9870   -0.3610 h1        1 3NV      0.042950
     30 H1A         5.6150   -1.1310   -1.9710 h1        1 3NV      0.042950
     31 H2          7.8010   -2.3680   -1.5280 h1        1 3NV      0.062950
     32 H2A         7.9740   -0.6160   -2.0070 h1        1 3NV      0.062950
     33 HN2         8.3590   -1.7920    0.6420 hn        1 3NV      0.351800
     34 H3          8.6640    0.3040    1.5730 h1        1 3NV      0.062950
     35 H3A         8.5110    1.0340   -0.0920 h1        1 3NV      0.062950
     36 H4          6.4820    1.5300    1.1170 h1        1 3NV      0.042950
     37 H4A         6.3040   -0.1770    1.7270 h1        1 3NV      0.042950
     38 HN4        -0.0200    1.7110   -1.0250 hn        1 3NV      0.424800
     39 H5          3.6300   -1.4250   -1.0250 h4        1 3NV      0.024100
     40 H7          4.7470    2.4810    0.6120 ha        1 3NV      0.144000
     41 H8          2.3350    3.0320    0.6780 ha        1 3NV      0.156000
     42 H13        -3.7340    2.3770    0.6750 hc        1 3NV      0.068700
     43 H14        -5.3220    2.5240   -1.9860 hc        1 3NV      0.040033
     44 H14A       -4.1230    3.7390   -1.3730 hc        1 3NV      0.040033
     45 H14B       -3.5770    2.0600   -1.7940 hc        1 3NV      0.040033
     46 H15        -6.7090    3.0170    0.0850 hc        1 3NV      0.040033
     47 H15A       -6.0010    2.7190    1.7270 hc        1 3NV      0.040033
     48 H15B       -5.4440    4.1360    0.7400 hc        1 3NV      0.040033
     49 H17        -2.9850   -1.5180    2.6470 ha        1 3NV      0.157000
     50 H18        -0.5200   -1.3480    3.2730 h4        1 3NV      0.026100
     51 HN5        -6.9410   -1.6470   -0.2210 hn        1 3NV      0.331700
@<TRIPOS>BOND
     1    1    2 1   
     2    1    4 1   
     3    1   29 1   
     4    1   30 1   
     5    2    8 1   
     6    2   12 1   
     7    3   20 1   
     8    4    5 1   
     9    4   31 1   
    10    4   32 1   
    11    5    6 1   
    12    5   33 1   
    13    6    8 1   
    14    6   34 1   
    15    6   35 1   
    16    7   10 ar  
    17    7   18 ar  
    18    8   36 1   
    19    8   37 1   
    20    9   18 1   
    21    9   28 1   
    22    9   38 1   
    23   10   12 ar  
    24   10   39 1   
    25   11   13 1   
    26   11   20 1   
    27   11   51 1   
    28   12   14 ar  
    29   13   21 2   
    30   14   16 ar  
    31   14   40 1   
    32   15   27 ar  
    33   15   28 ar  
    34   16   18 ar  
    35   16   41 1   
    36   17   25 ar  
    37   17   28 ar  
    38   19   20 2   
    39   19   21 1   
    40   19   25 1   
    41   21   22 1   
    42   22   23 1   
    43   22   24 1   
    44   22   42 1   
    45   23   43 1   
    46   23   44 1   
    47   23   45 1   
    48   24   46 1   
    49   24   47 1   
    50   24   48 1   
    51   25   26 ar  
    52   26   27 ar  
    53   26   49 1   
    54   27   50 1   
@<TRIPOS>SUBSTRUCTURE
     1 3NV         1 TEMP              0 ****  ****    0 ROOT
