@<TRIPOS>MOLECULE
3NW
   71    73     1     0     0
SMALL
bcc


@<TRIPOS>ATOM
      1 C1          0.9920    1.4630    0.9020 ca        1 3NW     -0.318300
      2 C2          2.2440    0.7590    0.7040 ca        1 3NW      0.674800
      3 N3          3.3070    0.9910    1.5610 nb        1 3NW     -0.777000
      4 C4          3.1580    1.9000    2.5520 ca        1 3NW      0.685000
      5 N5          1.9420    2.5740    2.7980 na        1 3NW     -0.362900
      6 C6          0.8720    2.3710    1.9290 cp        1 3NW      0.128700
      7 C7          2.3770   -0.1340   -0.3540 cc        1 3NW     -0.398900
      8 C8          3.5540   -0.9070   -0.6660 cd        1 3NW      0.543200
      9 N9          3.5100   -1.6820   -1.7400 nd        1 3NW     -0.697000
     10 C10         2.2520   -1.5700   -2.3710 cc        1 3NW      0.767300
     11 S11         1.1780   -0.4660   -1.5310 ss        1 3NW     -0.149300
     12 N12         1.8960   -2.2320   -3.4700 nu        1 3NW     -0.734900
     13 C13         2.7730   -3.1480   -4.2160 c3        1 3NW      0.202500
     14 C14         1.9400   -4.1280   -5.0410 c3        1 3NW     -0.122100
     15 C15         3.7430   -2.4030   -5.1300 c3        1 3NW     -0.122100
     16 N16         4.2560    2.2630    3.3650 nu        1 3NW     -0.391900
     17 C17        -2.5180    4.9530    2.2150 ca        1 3NW     -0.071000
     18 C18        -0.3240    3.2170    2.1040 cp        1 3NW     -0.097000
     19 C19        -1.6150    2.6950    2.2980 ca        1 3NW     -0.098300
     20 C20        -2.7030    3.5750    2.3320 ca        1 3NW     -0.127000
     21 C21        -1.2330    5.4710    2.0540 ca        1 3NW     -0.093000
     22 C22        -0.1430    4.6060    1.9950 ca        1 3NW     -0.098000
     23 C23        -1.8440    1.2140    2.4140 c3        1 3NW      0.132300
     24 C24         8.9460    2.2710    4.7560 c3        1 3NW      0.079600
     25 N25         8.0200    1.8780    3.6540 nx        1 3NW     -0.675400
     26 C26         6.6480    2.4230    3.9070 c3        1 3NW      0.083800
     27 C27         5.5450    1.6500    3.1390 c3        1 3NW      0.014300
     28 C28         8.5590    2.3340    2.3420 c3        1 3NW      0.079600
     29 N29        -2.8750    0.8070    3.3520 ns        1 3NW     -0.512900
     30 C30        -2.5460    0.4730    4.6380 c         1 3NW      0.642100
     31 N31        -3.6710    0.1440    5.6180 ny        1 3NW     -0.666800
     32 O32        -1.4100    0.3410    5.1110 o         1 3NW     -0.503100
     33 C33        -4.4230   -1.0950    5.2360 c3        1 3NW      0.115800
     34 C34        -5.4390   -1.4950    6.2850 c3        1 3NW     -0.144100
     35 H1          0.1590    1.2940    0.2020 ha        1 3NW      0.186000
     36 H8          4.4740   -0.8840   -0.0580 h4        1 3NW      0.067100
     37 HN12        0.9890   -2.0650   -3.8620 hn        1 3NW      0.471800
     38 H13         3.3710   -3.7340   -3.4530 h1        1 3NW      0.098700
     39 H14         1.3550   -3.6020   -5.8340 hc        1 3NW      0.068033
     40 H14A        2.6410   -4.8430   -5.5400 hc        1 3NW      0.068033
     41 H14B        1.2410   -4.7150   -4.3990 hc        1 3NW      0.068033
     42 H15         3.2000   -1.8340   -5.9220 hc        1 3NW      0.068033
     43 H15A        4.4030   -3.1580   -5.6270 hc        1 3NW      0.068033
     44 H15B        4.3870   -1.7000   -4.5500 hc        1 3NW      0.068033
     45 HN16        4.0400    2.4590    4.3220 hn        1 3NW      0.288700
     46 H17        -3.3890    5.6310    2.2390 ha        1 3NW      0.177000
     47 H20        -3.7310    3.1930    2.4290 ha        1 3NW      0.138000
     48 H21        -1.0800    6.5600    1.9600 ha        1 3NW      0.179000
     49 H22         0.8650    5.0210    1.8300 ha        1 3NW      0.151000
     50 H23        -2.1790    0.8250    1.4040 h1        1 3NW      0.096200
     51 H23A       -0.8820    0.6950    2.6960 h1        1 3NW      0.096200
     52 H24         8.5850    1.8330    5.7250 hx        1 3NW      0.115533
     53 H24A        9.9750    1.8780    4.5270 hx        1 3NW      0.115533
     54 H24B        8.9830    3.3910    4.8350 hx        1 3NW      0.115533
     55 H26         6.6460    3.5110    3.6050 hx        1 3NW      0.117200
     56 H26A        6.4530    2.3600    5.0170 hx        1 3NW      0.117200
     57 H27         5.5470    0.5700    3.4710 h1        1 3NW      0.083200
     58 H27A        5.7680    1.6790    2.0330 h1        1 3NW      0.083200
     59 H28         7.8520    2.0420    1.5210 hx        1 3NW      0.115533
     60 H28A        8.6870    3.4500    2.3530 hx        1 3NW      0.115533
     61 H28B        9.5590    1.8490    2.1670 hx        1 3NW      0.115533
     62 HN29        1.8630    3.2760    3.5060 hn        1 3NW      0.328700
     63 HN31       -3.2260   -0.0050    6.5380 hn        1 3NW      0.471800
     64 H33        -4.9390   -0.9000    4.2520 hx        1 3NW      0.108200
     65 H33A       -3.6640   -1.9190    5.0950 hx        1 3NW      0.108200
     66 H34        -4.9560   -1.7260    7.2670 hc        1 3NW      0.092700
     67 H34A       -5.9540   -2.4260    5.9280 hc        1 3NW      0.092700
     68 H34B       -6.2170   -0.7070    6.4360 hc        1 3NW      0.092700
     69 H251        7.9630    0.8500    3.6370 hn        1 3NW      0.453800
     70 H292       -3.8200    1.0030    3.1010 hn        1 3NW      0.347500
     71 H312       -4.3220    0.9320    5.7030 hn        1 3NW      0.471800
@<TRIPOS>BOND
     1    1    2 ar  
     2    1    6 ar  
     3    1   35 1   
     4    2    3 ar  
     5    2    7 1   
     6    3    4 ar  
     7    4    5 2   
     8    4   16 1   
     9    5    6 1   
    10    5   62 1   
    11    6   18 1   
    12    7    8 2   
    13    7   11 1   
    14    8    9 1   
    15    8   36 1   
    16    9   10 2   
    17   10   11 1   
    18   10   12 1   
    19   12   13 1   
    20   12   37 1   
    21   13   14 1   
    22   13   15 1   
    23   13   38 1   
    24   14   39 1   
    25   14   40 1   
    26   14   41 1   
    27   15   42 1   
    28   15   43 1   
    29   15   44 1   
    30   16   27 1   
    31   16   45 1   
    32   17   20 ar  
    33   17   21 ar  
    34   17   46 1   
    35   18   19 ar  
    36   18   22 ar  
    37   19   20 ar  
    38   19   23 1   
    39   20   47 1   
    40   21   22 ar  
    41   21   48 1   
    42   22   49 1   
    43   23   29 1   
    44   23   50 1   
    45   23   51 1   
    46   24   25 1   
    47   24   52 1   
    48   24   53 1   
    49   24   54 1   
    50   25   26 1   
    51   25   28 1   
    52   25   69 1   
    53   26   27 1   
    54   26   55 1   
    55   26   56 1   
    56   27   57 1   
    57   27   58 1   
    58   28   59 1   
    59   28   60 1   
    60   28   61 1   
    61   29   30 1   
    62   29   70 1   
    63   30   31 1   
    64   30   32 2   
    65   31   33 1   
    66   31   63 1   
    67   31   71 1   
    68   33   34 1   
    69   33   64 1   
    70   33   65 1   
    71   34   66 1   
    72   34   67 1   
    73   34   68 1   
@<TRIPOS>SUBSTRUCTURE
     1 3NW         1 TEMP              0 ****  ****    0 ROOT
