@<TRIPOS>MOLECULE
3NW
   73    75     1     0     0
SMALL
bcc


@<TRIPOS>ATOM
      1 C1          1.0870    0.2120    0.6800 ca        1 3NW     -0.311600
      2 C2          2.4730    0.2020    0.3640 ca        1 3NW      0.607800
      3 N3          3.4050    0.0140    1.3480 nb        1 3NW     -0.670000
      4 C4          2.9160   -0.1220    2.6170 ca        1 3NW      0.731900
      5 N5          1.6060   -0.1070    3.0250 nb        1 3NW     -0.678000
      6 C6          0.6870    0.0260    2.0260 cp        1 3NW      0.526800
      7 C7          2.9400    0.3660   -1.0000 cc        1 3NW     -0.362900
      8 C8          4.2310    0.8400   -1.3280 cd        1 3NW      0.446200
      9 N9          4.5160    0.8900   -2.6600 nd        1 3NW     -0.568000
     10 C10         3.4410    0.4500   -3.3710 cc        1 3NW      0.451300
     11 S11         2.0990    0.0010   -2.4050 ss        1 3NW      0.157700
     12 N12         3.4830    0.3550   -4.8220 n4        1 3NW     -0.744700
     13 C13         3.6800    1.7020   -5.5430 c3        1 3NW      0.153500
     14 C14         4.1330    1.4340   -6.9700 c3        1 3NW     -0.147600
     15 C15         2.4020    2.5180   -5.5260 c3        1 3NW     -0.147600
     16 N16         3.9480   -0.3090    3.7020 n4        1 3NW     -0.740700
     17 C17        -3.3060   -1.2780    2.8890 ca        1 3NW     -0.057000
     18 C18        -0.7450   -0.2410    2.3190 cp        1 3NW     -0.144500
     19 C19        -1.5780    0.4180    3.2440 ca        1 3NW     -0.154300
     20 C20        -2.8340   -0.1450    3.5460 ca        1 3NW     -0.133000
     21 C21        -2.5140   -1.8820    1.9110 ca        1 3NW     -0.042000
     22 C22        -1.2420   -1.3740    1.6470 ca        1 3NW     -0.100000
     23 C23        -1.2070    1.6610    3.9760 c3        1 3NW      0.207100
     24 C24         7.0350   -3.4140    6.0090 c3        1 3NW      0.074600
     25 N25         6.4420   -3.1000    4.6670 n4        1 3NW     -0.674400
     26 C26         5.6890   -1.8100    4.7320 c3        1 3NW      0.071800
     27 C27         4.6760   -1.6140    3.5760 c3        1 3NW      0.088800
     28 C28         7.5180   -3.0720    3.6340 c3        1 3NW      0.074600
     29 N29        -2.2880    2.7440    3.7900 n4        1 3NW     -0.674800
     30 C30        -2.1950    3.8140    4.8400 c         1 3NW      0.490100
     31 N31        -3.4370    4.4900    5.3120 n4        1 3NW     -0.655800
     32 O32        -1.1000    4.1020    5.2940 o         1 3NW     -0.295100
     33 C33        -3.2230    5.9850    5.5990 c3        1 3NW      0.131800
     34 C34        -3.2610    6.8310    4.3600 c3        1 3NW     -0.168100
     35 H1          0.3310    0.3420   -0.1110 ha        1 3NW      0.200000
     36 H8          5.0080    1.1720   -0.6190 h4        1 3NW      0.091100
     37 HN12        2.6130   -0.0740   -5.1620 hn        1 3NW      0.478300
     38 H13         4.5010    2.2410   -4.9800 hx        1 3NW      0.130700
     39 H14         4.3300    2.4270   -7.4580 hc        1 3NW      0.092367
     40 H14A        3.3490    0.9100   -7.5700 hc        1 3NW      0.092367
     41 H14B        5.0860    0.8490   -7.0090 hc        1 3NW      0.092367
     42 H15         2.0520    2.7230   -4.4870 hc        1 3NW      0.092367
     43 H15A        1.5840    2.0260   -6.1090 hc        1 3NW      0.092367
     44 H15B        2.6190    3.5050   -6.0180 hc        1 3NW      0.092367
     45 HN16        3.4770   -0.2630    4.6200 hn        1 3NW      0.487800
     46 H17        -4.2960   -1.7040    3.1460 ha        1 3NW      0.208000
     47 H20        -3.4570    0.2760    4.3530 ha        1 3NW      0.138000
     48 H21        -2.8830   -2.7730    1.3660 ha        1 3NW      0.208000
     49 H22        -0.6060   -1.8950    0.9100 ha        1 3NW      0.164000
     50 H23        -1.1440    1.4600    5.0860 hx        1 3NW      0.123700
     51 H23A       -0.2360    2.1050    3.6180 hx        1 3NW      0.123700
     52 H24         7.7350   -2.5910    6.3190 hx        1 3NW      0.128200
     53 H24A        6.2160   -3.5340    6.7680 hx        1 3NW      0.128200
     54 H24B        7.6120   -4.3810    5.9290 hx        1 3NW      0.128200
     55 H26         6.4520   -0.9740    4.7290 hx        1 3NW      0.129200
     56 H26A        5.1410   -1.7870    5.7220 hx        1 3NW      0.129200
     57 H27         5.2100   -1.6230    2.5790 hx        1 3NW      0.137700
     58 H27A        3.9040   -2.4400    3.5830 hx        1 3NW      0.137700
     59 H28         8.0130   -4.0860    3.5950 hx        1 3NW      0.128200
     60 H28A        7.0770   -2.8370    2.6310 hx        1 3NW      0.128200
     61 H28B        8.2940   -2.3050    3.9090 hx        1 3NW      0.128200
     62 HN29       -2.1570    3.1860    2.8650 hn        1 3NW      0.489800
     63 HN31       -3.7220    4.0400    6.2040 hn        1 3NW      0.500300
     64 H33        -4.0760    6.2610    6.2990 hx        1 3NW      0.154700
     65 H33A       -2.2430    6.0910    6.1520 hx        1 3NW      0.154700
     66 H34        -2.4030    6.6320    3.6740 hc        1 3NW      0.110033
     67 H34A       -4.2270    6.7470    3.8010 hc        1 3NW      0.110033
     68 H34B       -3.1780    7.9100    4.6950 hc        1 3NW      0.110033
     69 H122        4.2790   -0.2530   -5.0930 hn        1 3NW      0.478300
     70 H162        4.6220    0.4710    3.6360 hn        1 3NW      0.487800
     71 H251        5.7850   -3.8590    4.4300 hn        1 3NW      0.461800
     72 H292       -3.2130    2.2810    3.7900 hn        1 3NW      0.489800
     73 H312       -4.2100    4.4080    4.6330 hn        1 3NW      0.500300
@<TRIPOS>BOND
     1    1    2 ar  
     2    1    6 ar  
     3    1   35 1   
     4    2    3 ar  
     5    2    7 1   
     6    3    4 ar  
     7    4    5 ar  
     8    4   16 1   
     9    5    6 ar  
    10    6   18 1   
    11    7    8 2   
    12    7   11 1   
    13    8    9 1   
    14    8   36 1   
    15    9   10 2   
    16   10   11 1   
    17   10   12 1   
    18   12   13 1   
    19   12   37 1   
    20   12   69 1   
    21   13   14 1   
    22   13   15 1   
    23   13   38 1   
    24   14   39 1   
    25   14   40 1   
    26   14   41 1   
    27   15   42 1   
    28   15   43 1   
    29   15   44 1   
    30   16   27 1   
    31   16   45 1   
    32   16   70 1   
    33   17   20 ar  
    34   17   21 ar  
    35   17   46 1   
    36   18   19 ar  
    37   18   22 ar  
    38   19   20 ar  
    39   19   23 1   
    40   20   47 1   
    41   21   22 ar  
    42   21   48 1   
    43   22   49 1   
    44   23   29 1   
    45   23   50 1   
    46   23   51 1   
    47   24   25 1   
    48   24   52 1   
    49   24   53 1   
    50   24   54 1   
    51   25   26 1   
    52   25   28 1   
    53   25   71 1   
    54   26   27 1   
    55   26   55 1   
    56   26   56 1   
    57   27   57 1   
    58   27   58 1   
    59   28   59 1   
    60   28   60 1   
    61   28   61 1   
    62   29   30 1   
    63   29   62 1   
    64   29   72 1   
    65   30   31 1   
    66   30   32 2   
    67   31   33 1   
    68   31   63 1   
    69   31   73 1   
    70   33   34 1   
    71   33   64 1   
    72   33   65 1   
    73   34   66 1   
    74   34   67 1   
    75   34   68 1   
@<TRIPOS>SUBSTRUCTURE
     1 3NW         1 TEMP              0 ****  ****    0 ROOT
