@<TRIPOS>MOLECULE
3NW
   71    73     1     0     0
SMALL
bcc


@<TRIPOS>ATOM
      1 C1          1.0100    1.4940    0.9160 ca        1 3NW     -0.318300
      2 C2          2.2560    0.7810    0.7110 ca        1 3NW      0.674800
      3 N3          3.3110    0.9720    1.5890 nb        1 3NW     -0.777000
      4 C4          3.1600    1.8490    2.6080 ca        1 3NW      0.685000
      5 N5          1.9490    2.5300    2.8600 na        1 3NW     -0.362900
      6 C6          0.8880    2.3700    1.9700 cp        1 3NW      0.128700
      7 C7          2.3920   -0.0780   -0.3740 cc        1 3NW     -0.398900
      8 C8          3.5630   -0.8550   -0.6960 cd        1 3NW      0.543200
      9 N9          3.5240   -1.5930   -1.7950 nd        1 3NW     -0.697000
     10 C10         2.2760   -1.4450   -2.4380 cc        1 3NW      0.767300
     11 S11         1.2050   -0.3560   -1.5760 ss        1 3NW     -0.149300
     12 N12         1.9270   -2.0660   -3.5640 nh        1 3NW     -0.734900
     13 C13         2.8020   -2.9680   -4.3290 c3        1 3NW      0.202500
     14 C14         1.9690   -3.9100   -5.1960 c3        1 3NW     -0.122100
     15 C15         3.7940   -2.2050   -5.2050 c3        1 3NW     -0.122100
     16 N16         4.2510    2.1720    3.4460 nh        1 3NW     -0.391900
     17 C17        -2.4740    4.9840    2.2970 ca        1 3NW     -0.071000
     18 C18        -0.3000    3.2250    2.1580 cp        1 3NW     -0.097000
     19 C19        -1.6000    2.7130    2.3200 ca        1 3NW     -0.098300
     20 C20        -2.6770    3.6060    2.3680 ca        1 3NW     -0.127000
     21 C21        -1.1800    5.4900    2.1680 ca        1 3NW     -0.093000
     22 C22        -0.1000    4.6140    2.0950 ca        1 3NW     -0.098000
     23 C23        -1.8480    1.2330    2.3860 c3        1 3NW      0.132300
     24 C24         8.9210    2.0750    4.8970 c3        1 3NW      0.079600
     25 N25         8.0050    1.7290    3.7710 n4        1 3NW     -0.675400
     26 C26         6.6370    2.2840    4.0230 c3        1 3NW      0.083800
     27 C27         5.5350    1.5490    3.2170 c3        1 3NW      0.014300
     28 C28         8.5680    2.2200    2.4820 c3        1 3NW      0.079600
     29 N29        -2.8950    0.8100    3.3000 n         1 3NW     -0.512900
     30 C30        -2.5860    0.4320    4.5790 c         1 3NW      0.642100
     31 N31        -3.7260    0.0880    5.5350 n4        1 3NW     -0.666800
     32 O32        -1.4570    0.2720    5.0600 o         1 3NW     -0.503100
     33 C33        -4.4880   -1.1300    5.1070 c3        1 3NW      0.115800
     34 C34        -5.5210   -1.5480    6.1310 c3        1 3NW     -0.144100
     35 H1          0.1840    1.3590    0.2010 ha        1 3NW      0.186000
     36 H8          4.4750   -0.8640   -0.0760 h4        1 3NW      0.067100
     37 HN12        1.0270   -1.8750   -3.9610 hn        1 3NW      0.471800
     38 H13         3.3840   -3.5860   -3.5780 h1        1 3NW      0.098700
     39 H14         1.2550   -4.5090   -4.5820 hc        1 3NW      0.068033
     40 H14A        2.6680   -4.6170   -5.7090 hc        1 3NW      0.068033
     41 H14B        1.4010   -3.3510   -5.9780 hc        1 3NW      0.068033
     42 H15         4.4380   -1.5300   -4.5930 hc        1 3NW      0.068033
     43 H15A        3.2680   -1.6030   -5.9840 hc        1 3NW      0.068033
     44 H15B        4.4510   -2.9510   -5.7180 hc        1 3NW      0.068033
     45 HN16        4.0250    2.3390    4.4070 hn        1 3NW      0.288700
     46 H17        -3.3360    5.6720    2.3310 ha        1 3NW      0.177000
     47 H20        -3.7100    3.2330    2.4400 ha        1 3NW      0.138000
     48 H21        -1.0130    6.5800    2.1100 ha        1 3NW      0.179000
     49 H22         0.9140    5.0220    1.9560 ha        1 3NW      0.151000
     50 H23        -2.1760    0.8790    1.3610 h1        1 3NW      0.096200
     51 H23A       -0.8960    0.6920    2.6630 h1        1 3NW      0.096200
     52 H24         9.9480    1.6760    4.6690 hx        1 3NW      0.115533
     53 H24A        8.5420    1.6100    5.8470 hx        1 3NW      0.115533
     54 H24B        8.9720    3.1910    5.0130 hx        1 3NW      0.115533
     55 H26         6.6520    3.3810    3.7570 hx        1 3NW      0.117200
     56 H26A        6.4260    2.1870    5.1280 hx        1 3NW      0.117200
     57 H27         5.7730    1.6110    2.1150 h1        1 3NW      0.083200
     58 H27A        5.5190    0.4590    3.5140 h1        1 3NW      0.083200
     59 H28         8.7100    3.3340    2.5310 hx        1 3NW      0.115533
     60 H28A        9.5640    1.7280    2.3050 hx        1 3NW      0.115533
     61 H28B        7.8680    1.9640    1.6430 hx        1 3NW      0.115533
     62 HN29       -3.8350    1.0250    3.0440 hn        1 3NW      0.347500
     63 HN31       -3.2930   -0.0940    6.4550 hn        1 3NW      0.471800
     64 H33        -3.7370   -1.9580    4.9490 hx        1 3NW      0.107700
     65 H33A       -4.9890   -0.8990    4.1230 hx        1 3NW      0.107700
     66 H34        -6.2920   -0.7560    6.2960 hc        1 3NW      0.092700
     67 H34A       -5.0530   -1.8150    7.1110 hc        1 3NW      0.092700
     68 H34B       -6.0430   -2.4620    5.7400 hc        1 3NW      0.092700
     69 H251        7.9350    0.7020    3.7200 hn        1 3NW      0.453800
     70 H292        1.8690    3.2110    3.5890 hn        1 3NW      0.328700
     71 H312       -4.3680    0.8810    5.6360 hn        1 3NW      0.471800
@<TRIPOS>BOND
     1    1    2 ar  
     2    1    6 ar  
     3    1   35 1   
     4    2    3 ar  
     5    2    7 1   
     6    3    4 ar  
     7    4    5 2   
     8    4   16 1   
     9    5    6 1   
    10    5   70 1   
    11    6   18 1   
    12    7    8 2   
    13    7   11 1   
    14    8    9 1   
    15    8   36 1   
    16    9   10 2   
    17   10   11 1   
    18   10   12 1   
    19   12   13 1   
    20   12   37 1   
    21   13   14 1   
    22   13   15 1   
    23   13   38 1   
    24   14   39 1   
    25   14   40 1   
    26   14   41 1   
    27   15   42 1   
    28   15   43 1   
    29   15   44 1   
    30   16   27 1   
    31   16   45 1   
    32   17   20 ar  
    33   17   21 ar  
    34   17   46 1   
    35   18   19 ar  
    36   18   22 ar  
    37   19   20 ar  
    38   19   23 1   
    39   20   47 1   
    40   21   22 ar  
    41   21   48 1   
    42   22   49 1   
    43   23   29 1   
    44   23   50 1   
    45   23   51 1   
    46   24   25 1   
    47   24   52 1   
    48   24   53 1   
    49   24   54 1   
    50   25   26 1   
    51   25   28 1   
    52   25   69 1   
    53   26   27 1   
    54   26   55 1   
    55   26   56 1   
    56   27   57 1   
    57   27   58 1   
    58   28   59 1   
    59   28   60 1   
    60   28   61 1   
    61   29   30 1   
    62   29   62 1   
    63   30   31 1   
    64   30   32 2   
    65   31   33 1   
    66   31   63 1   
    67   31   71 1   
    68   33   34 1   
    69   33   64 1   
    70   33   65 1   
    71   34   66 1   
    72   34   67 1   
    73   34   68 1   
@<TRIPOS>SUBSTRUCTURE
     1 3NW         1 TEMP              0 ****  ****    0 ROOT
