@<TRIPOS>MOLECULE
3NW
   68    70     1     0     0
SMALL
bcc


@<TRIPOS>ATOM
      1 C1          0.8800    1.4560    0.2690 ca        1 3NW     -0.426600
      2 C2          1.3800    0.1320    0.2390 ca        1 3NW      0.584800
      3 N3          0.5720   -0.9460    0.3740 nb        1 3NW     -0.749000
      4 C4         -0.7790   -0.6890    0.5630 ca        1 3NW      0.889900
      5 N5         -1.3450    0.5830    0.6420 nb        1 3NW     -0.750000
      6 C6         -0.5060    1.6250    0.4760 cp        1 3NW      0.528800
      7 C7          2.8010   -0.0730    0.0450 cc        1 3NW     -0.297900
      8 C8          3.4580   -1.2980   -0.0410 cd        1 3NW      0.429200
      9 N9          4.8220   -1.2480   -0.2080 nd        1 3NW     -0.711000
     10 C10         5.2260    0.0440   -0.2700 cc        1 3NW      0.655300
     11 S11         3.9150    1.1960   -0.1080 ss        1 3NW     -0.155300
     12 N12         6.5050    0.5050   -0.5530 nh        1 3NW     -0.801900
     13 C13         7.6240   -0.4310   -0.5730 c3        1 3NW      0.194500
     14 C14         8.8380    0.2040   -1.2570 c3        1 3NW     -0.112600
     15 C15         8.0460   -0.9380    0.8060 c3        1 3NW     -0.112600
     16 N16        -1.6570   -1.7710    0.7570 nh        1 3NW     -0.818900
     17 C17        -1.9110    5.6650    0.6010 ca        1 3NW     -0.124000
     18 C18        -1.0450    3.0010    0.5090 cp        1 3NW     -0.129500
     19 C19        -2.2200    3.3760   -0.1590 ca        1 3NW     -0.085300
     20 C20        -2.6390    4.7130   -0.1070 ca        1 3NW     -0.127000
     21 C21        -0.7500    5.2870    1.2770 ca        1 3NW     -0.128000
     22 C22        -0.3210    3.9650    1.2290 ca        1 3NW     -0.116000
     23 C23        -3.0730    2.4120   -0.9410 c3        1 3NW      0.123300
     24 C24        -3.1120   -6.2280   -0.4430 c3        1 3NW      0.158100
     25 N25        -1.9970   -5.4410    0.0350 n3        1 3NW     -0.739600
     26 C26        -2.3960   -4.1100    0.4690 c3        1 3NW      0.159800
     27 C27        -1.2290   -3.0980    0.3700 c3        1 3NW      0.195800
     28 C28        -1.1910   -6.1420    1.0080 c3        1 3NW      0.158100
     29 N29        -4.1230    1.8100   -0.1470 n         1 3NW     -0.516900
     30 C30        -4.2680    0.4060   -0.1550 c         1 3NW      0.743100
     31 N31        -5.0720   -0.1930    0.8440 n         1 3NW     -0.537900
     32 O32        -3.7250   -0.3080   -1.0350 o         1 3NW     -0.648100
     33 C33        -5.6320   -1.4980    0.5920 c3        1 3NW      0.073000
     34 C34        -6.9970   -1.5130   -0.0800 c3        1 3NW     -0.130100
     35 H1          1.5420    2.3170    0.1190 ha        1 3NW      0.152000
     36 H8          2.9740   -2.2840    0.0210 h4        1 3NW      0.062100
     37 HN12        6.7210    1.3660   -0.0920 hn        1 3NW      0.403800
     38 H13         7.2990   -1.3210   -1.1930 h1        1 3NW      0.087700
     39 H14         9.2240    1.0710   -0.6690 hc        1 3NW      0.044200
     40 H14A        9.6450   -0.5640   -1.3310 hc        1 3NW      0.044200
     41 H14B        8.5810    0.5530   -2.2860 hc        1 3NW      0.044200
     42 H15         8.4040   -0.0990    1.4490 hc        1 3NW      0.044200
     43 H15A        7.1970   -1.4500    1.3190 hc        1 3NW      0.044200
     44 H15B        8.8790   -1.6710    0.6860 hc        1 3NW      0.044200
     45 HN16       -2.6140   -1.5590    0.5370 hn        1 3NW      0.439800
     46 H17        -2.2520    6.7100    0.6310 ha        1 3NW      0.135000
     47 H20        -3.5570    5.0120   -0.6370 ha        1 3NW      0.138000
     48 H21        -0.1750    6.0320    1.8460 ha        1 3NW      0.136000
     49 H22         0.5930    3.6650    1.7670 ha        1 3NW      0.141000
     50 H23        -3.5920    2.9820   -1.7690 h1        1 3NW      0.072700
     51 H23A       -2.4380    1.6220   -1.4350 h1        1 3NW      0.072700
     52 H24        -3.6010   -5.6900   -1.2960 h1        1 3NW      0.031867
     53 H24A       -2.7250   -7.2120   -0.8160 h1        1 3NW      0.031867
     54 H24B       -3.8870   -6.4280    0.3480 h1        1 3NW      0.031867
     55 H26        -3.2350   -3.7550   -0.1960 h1        1 3NW      0.036700
     56 H26A       -2.7840   -4.1200    1.5300 h1        1 3NW      0.036700
     57 H27        -0.8220   -3.1110   -0.6820 h1        1 3NW      0.060200
     58 H27A       -0.3980   -3.4070    1.0650 h1        1 3NW      0.060200
     59 H28        -0.8480   -7.1130    0.5620 h1        1 3NW      0.031867
     60 H28A       -0.2890   -5.5220    1.2520 h1        1 3NW      0.031867
     61 H28B       -1.7410   -6.3640    1.9640 h1        1 3NW      0.031867
     62 HN29       -4.2590    2.2520    0.7380 hn        1 3NW      0.291500
     63 HN31       -5.6720    0.4140    1.3580 hn        1 3NW      0.287500
     64 H33        -4.9040   -2.0840   -0.0420 h1        1 3NW      0.062700
     65 H33A       -5.7140   -2.0080    1.5950 h1        1 3NW      0.062700
     66 H34        -7.3390   -2.5710   -0.1820 hc        1 3NW      0.042700
     67 H34A       -7.7520   -0.9540    0.5230 hc        1 3NW      0.042700
     68 H34B       -6.9460   -1.0570   -1.0980 hc        1 3NW      0.042700
@<TRIPOS>BOND
     1    1    2 ar  
     2    1    6 ar  
     3    1   35 1   
     4    2    3 ar  
     5    2    7 1   
     6    3    4 ar  
     7    4    5 ar  
     8    4   16 1   
     9    5    6 ar  
    10    6   18 1   
    11    7    8 2   
    12    7   11 1   
    13    8    9 1   
    14    8   36 1   
    15    9   10 2   
    16   10   11 1   
    17   10   12 1   
    18   12   13 1   
    19   12   37 1   
    20   13   14 1   
    21   13   15 1   
    22   13   38 1   
    23   14   39 1   
    24   14   40 1   
    25   14   41 1   
    26   15   42 1   
    27   15   43 1   
    28   15   44 1   
    29   16   27 1   
    30   16   45 1   
    31   17   20 ar  
    32   17   21 ar  
    33   17   46 1   
    34   18   19 ar  
    35   18   22 ar  
    36   19   20 ar  
    37   19   23 1   
    38   20   47 1   
    39   21   22 ar  
    40   21   48 1   
    41   22   49 1   
    42   23   29 1   
    43   23   50 1   
    44   23   51 1   
    45   24   25 1   
    46   24   52 1   
    47   24   53 1   
    48   24   54 1   
    49   25   26 1   
    50   25   28 1   
    51   26   27 1   
    52   26   55 1   
    53   26   56 1   
    54   27   57 1   
    55   27   58 1   
    56   28   59 1   
    57   28   60 1   
    58   28   61 1   
    59   29   30 1   
    60   29   62 1   
    61   30   31 1   
    62   30   32 2   
    63   31   33 1   
    64   31   63 1   
    65   33   34 1   
    66   33   64 1   
    67   33   65 1   
    68   34   66 1   
    69   34   67 1   
    70   34   68 1   
@<TRIPOS>SUBSTRUCTURE
     1 3NW         1 TEMP              0 ****  ****    0 ROOT
