@<TRIPOS>MOLECULE
3NW
   68    60     1     0     0
SMALL
bcc


@<TRIPOS>ATOM
      1 C1         -0.2710    1.3970   -0.3000 c1        1 3NW     -0.205000
      2 C2          1.0760    1.4930   -0.3430 c1        1 3NW      0.153000
      3 N3          1.7900    1.4530    0.7970 n1        1 3NW     -0.223000
      4 C4          1.1550    1.3140    1.9990 c1        1 3NW      0.161000
      5 N5         -0.1930    1.2170    2.0460 n1        1 3NW     -0.245000
      6 C6         -0.9110    1.2570    0.9090 c1        1 3NW      0.033500
      7 C7          1.7070    1.5450   -1.5300 c1        1 3NW     -0.404000
      8 C8          2.2280    2.7340   -2.1660 c1        1 3NW     -0.032000
      9 N9          3.0320    2.2910   -3.4630 n2        1 3NW     -0.186000
     10 C10         2.9700    0.8380   -3.5690 c1        1 3NW     -0.111000
     11 S11         2.1500    0.3130   -2.3820 ss        1 3NW      0.436000
     12 N12         3.5720    0.0070   -4.6580 n2        1 3NW     -0.248000
     13 C13         4.8160    0.3430   -5.1820 c3        1 3NW     -0.002000
     14 C14         5.7670   -0.8820   -5.0640 c3        1 3NW     -0.231000
     15 C15         4.6640    0.7450   -6.6980 c3        1 3NW     -0.231000
     16 N16         1.9260    1.3070    3.2250 n3        1 3NW     -0.278000
     17 C17        -5.1600    1.4590    1.2550 c1        1 3NW     -0.126500
     18 C18        -2.3710    1.3390    0.9740 c1        1 3NW      0.033500
     19 C19        -3.1400    0.1730    0.8900 c1        1 3NW     -0.088000
     20 C20        -4.5440    0.2410    1.0330 c1        1 3NW     -0.118000
     21 C21        -4.3820    2.6430    1.3410 c1        1 3NW     -0.126500
     22 C22        -2.9980    2.5800    1.2010 c1        1 3NW     -0.205000
     23 C23        -2.4770   -1.1400    0.5870 c3        1 3NW      0.006000
     24 C24         1.1330   -1.8870    6.1830 c3        1 3NW     -0.120500
     25 N25         2.4080   -1.4040    5.6590 n3        1 3NW     -0.272000
     26 C26         2.2680   -0.0490    5.2550 c3        1 3NW     -0.079000
     27 C27         2.5040    0.0710    3.7070 c3        1 3NW     -0.036000
     28 C28         3.4240   -1.4930    6.6890 c3        1 3NW     -0.120500
     29 N29        -3.4820   -2.0860    0.0290 n         1 3NW     -0.339000
     30 C30        -3.7260   -2.1050   -1.3170 c2        1 3NW      0.363000
     31 N31        -5.0320   -2.3680   -1.7900 n         1 3NW     -0.359000
     32 O32        -2.7760   -1.9530   -2.1330 o         1 3NW     -0.410000
     33 C33        -5.4700   -1.8210   -3.0960 c3        1 3NW     -0.035000
     34 C34        -6.2990   -0.6000   -2.8740 c3        1 3NW     -0.246000
     35 H1         -0.7830    1.4260   -1.1170 ha        1 3NW      0.148000
     36 H8          2.1000    3.6940   -1.8380 DU        1 3NW      0.197000
     37 HN12        3.1360   -0.7770   -4.9480 hn        1 3NW      0.202000
     38 H13         5.1940    1.1100   -4.6750 h1        1 3NW      0.127000
     39 H14         6.7340   -0.5980   -5.3130 hc        1 3NW      0.084167
     40 H14A        5.4570   -1.6070   -5.6930 hc        1 3NW      0.084167
     41 H14B        5.7500   -1.2280   -4.1200 hc        1 3NW      0.084167
     42 H15         4.4570    1.6860   -6.7630 hc        1 3NW      0.084167
     43 H15A        3.9160    0.2030   -7.1220 hc        1 3NW      0.084167
     44 H15B        5.4480    0.5750   -7.1350 hc        1 3NW      0.084167
     45 HN16        1.9800    2.0680    3.7380 hn        1 3NW      0.220000
     46 H17        -6.1580    1.5060    1.3560 ha        1 3NW      0.135000
     47 H20        -5.0890   -0.5850    0.9740 ha        1 3NW      0.162000
     48 H21        -4.8450    3.5550    1.5060 ha        1 3NW      0.135000
     49 H22        -2.4500    3.4160    1.2620 ha        1 3NW      0.148000
     50 H23        -1.7480   -0.9960   -0.0820 h1        1 3NW      0.115000
     51 H23A       -2.0780   -1.5320    1.4540 h1        1 3NW      0.115000
     52 H24         0.4110   -1.7820    5.4700 h1        1 3NW      0.072000
     53 H24A        1.2100   -2.7700    6.4080 h1        1 3NW      0.072000
     54 H24B        0.8960   -1.3860    6.9490 h1        1 3NW      0.072000
     55 H26         3.0090    0.5710    5.7850 h1        1 3NW      0.082500
     56 H26A        1.3350    0.2740    5.4770 h1        1 3NW      0.082500
     57 H27         3.4320    0.0670    3.5290 h1        1 3NW      0.103500
     58 H27A        2.0650   -0.7160    3.2330 h1        1 3NW      0.103500
     59 H28         3.1040   -1.1110    7.4780 h1        1 3NW      0.072000
     60 H28A        4.2670   -0.9900    6.3830 h1        1 3NW      0.072000
     61 H28B        3.6430   -2.4130    6.8450 h1        1 3NW      0.072000
     62 HN29       -3.9120   -2.7480    0.6150 hn        1 3NW      0.218000
     63 HN31       -5.6260   -2.7910   -1.2590 hn        1 3NW      0.205000
     64 H33        -6.0170   -2.5170   -3.5900 h1        1 3NW      0.106000
     65 H33A       -4.7210   -1.5940   -3.6050 h1        1 3NW      0.106000
     66 H34        -7.2850   -0.8760   -2.6820 hc        1 3NW      0.080333
     67 H34A       -6.2690   -0.0370   -3.6760 hc        1 3NW      0.080333
     68 H34B       -5.9200   -0.0700   -2.0610 hc        1 3NW      0.080333
@<TRIPOS>BOND
     1    1    6 1   
     2    1   35 1   
     3    2    3 1   
     4    4    5 1   
     5    4   16 1   
     6    7    8 1   
     7    7   11 1   
     8    8    9 1   
     9    9   10 1   
    10   10   11 1   
    11   12   13 1   
    12   12   37 1   
    13   13   14 1   
    14   13   15 1   
    15   13   38 1   
    16   14   39 1   
    17   14   40 1   
    18   14   41 1   
    19   15   42 1   
    20   15   43 1   
    21   15   44 1   
    22   16   27 1   
    23   16   45 1   
    24   17   21 1   
    25   17   46 1   
    26   18   22 1   
    27   19   20 1   
    28   19   23 1   
    29   20   47 1   
    30   21   48 1   
    31   22   49 1   
    32   23   29 1   
    33   23   50 1   
    34   23   51 1   
    35   24   25 1   
    36   24   52 1   
    37   24   53 1   
    38   24   54 1   
    39   25   26 1   
    40   25   28 1   
    41   26   27 1   
    42   26   55 1   
    43   26   56 1   
    44   27   57 1   
    45   27   58 1   
    46   28   59 1   
    47   28   60 1   
    48   28   61 1   
    49   29   30 1   
    50   29   62 1   
    51   30   31 1   
    52   30   32 1   
    53   31   33 1   
    54   31   63 1   
    55   33   34 1   
    56   33   64 1   
    57   33   65 1   
    58   34   66 1   
    59   34   67 1   
    60   34   68 1   
@<TRIPOS>SUBSTRUCTURE
     1 3NW         1 TEMP              0 ****  ****    0 ROOT
