@<TRIPOS>MOLECULE
3NY
   16    13     1     0     0
SMALL
bcc


@<TRIPOS>ATOM
      1 N1          0.4490    0.0010   -2.7080 ne        1 3NY     -0.453400
      2 N2          1.7860    0.2580   -2.7310 ne        1 3NY      0.058000
      3 N3          2.2170    0.3630   -1.4450 nf        1 3NY     -0.103000
      4 C4          1.0250    0.1760    0.7740 c1        1 3NY      0.087500
      5 C5         -0.2120   -0.0490    1.3600 c1        1 3NY     -0.218300
      6 C6         -1.3240   -0.2770    0.5640 cg        1 3NY     -0.076300
      7 C7         -1.2010   -0.2800   -0.8160 ce        1 3NY     -0.168800
      8 O11         0.4910    0.5530    3.4540 o         1 3NY     -0.205500
      9 O21        -1.5780   -0.3030    3.3310 o         1 3NY     -0.205500
     10 C3A         1.1510    0.1730   -0.6270 ch        1 3NY     -0.098000
     11 C7A         0.0540   -0.0520   -1.4110 c1        1 3NY      0.295500
     12 NO1        -0.4020    0.0910    2.7590 no        1 3NY      0.326300
     13 H4          1.8080    0.3360    1.3350 ha        1 3NY      0.135500
     14 H6         -2.1950   -0.4350    0.9770 DU        1 3NY      0.234000
     15 H7         -1.9840   -0.4400   -1.3760 ha        1 3NY      0.159000
     16 HN1        -0.0870   -0.1150   -3.4370 DU        1 3NY      0.234000
@<TRIPOS>BOND
     1    1    2 1   
     2    1   11 2   
     3    2    3 2   
     4    3   10 1   
     5    4   10 3   
     6    4   13 1   
     7    5    6 3   
     8    5   12 1   
     9    6    7 1   
    10    7   11 2   
    11    7   15 1   
    12    8   12 1   
    13    9   12 1   
@<TRIPOS>SUBSTRUCTURE
     1 3NY         1 TEMP              0 ****  ****    0 ROOT
