@<TRIPOS>MOLECULE
3NY
   16    17     1     0     0
SMALL
bcc


@<TRIPOS>ATOM
      1 N1          0.0230   -0.0000    0.0040 na        1 3NY     -0.058100
      2 N2          1.3780   -0.0000   -0.0120 nc        1 3NY     -0.121400
      3 N3          1.8660    0.0000    1.1510 nd        1 3NY     -0.190400
      4 C4          0.7620    0.0000    3.4940 ca        1 3NY      0.030000
      5 C5         -0.5060    0.0000    4.0880 ca        1 3NY     -0.209200
      6 C6         -1.7070   -0.0000    3.3330 ca        1 3NY     -0.043000
      7 C7         -1.6850   -0.0000    1.9480 ca        1 3NY     -0.139000
      8 O11         0.4090   -0.0000    6.2200 o         1 3NY     -0.205500
      9 O21        -1.6900    0.0000    6.0830 o         1 3NY     -0.205500
     10 C3A         0.7980    0.0000    2.1010 ca        1 3NY     -0.010600
     11 C7A        -0.4310   -0.0000    1.3260 ca        1 3NY     -0.033200
     12 NO1        -0.6030    0.0000    5.5720 no        1 3NY      0.317200
     13 H4          1.6880    0.0000    4.0960 ha        1 3NY      0.193000
     14 H6         -2.6760   -0.0000    3.8640 ha        1 3NY      0.178000
     15 H7         -2.6170   -0.0000    1.3660 ha        1 3NY      0.159000
     16 HN1        -0.5140   -0.0000   -0.8310 hn        1 3NY      0.339700
@<TRIPOS>BOND
     1    1    2 1   
     2    1   11 1   
     3    1   16 1   
     4    2    3 2   
     5    3   10 1   
     6    4    5 ar  
     7    4   10 ar  
     8    4   13 1   
     9    5    6 ar  
    10    5   12 1   
    11    6    7 ar  
    12    6   14 1   
    13    7   11 ar  
    14    7   15 1   
    15    8   12 1   
    16    9   12 1   
    17   10   11 ar  
@<TRIPOS>SUBSTRUCTURE
     1 3NY         1 TEMP              0 ****  ****    0 ROOT
