@<TRIPOS>MOLECULE
3NY
   16    17     1     0     0
SMALL
bcc


@<TRIPOS>ATOM
      1 N1         -2.9460    0.6570   -0.0010 na        1 3NY     -0.058100
      2 N2         -3.3190   -0.6460   -0.0010 nc        1 3NY     -0.121400
      3 N3         -2.3270   -1.4240   -0.0010 nd        1 3NY     -0.190400
      4 C4          0.2250   -0.9800   -0.0000 ca        1 3NY      0.030000
      5 C5          1.1330    0.0860    0.0000 ca        1 3NY     -0.209200
      6 C6          0.7220    1.4440    0.0000 ca        1 3NY     -0.043000
      7 C7         -0.6180    1.7900   -0.0000 ca        1 3NY     -0.139000
      8 O11         2.9470   -1.3610    0.0010 o         1 3NY     -0.205500
      9 O21         3.3700    0.7000    0.0010 o         1 3NY     -0.205500
     10 C3A        -1.1280   -0.6460   -0.0000 ca        1 3NY     -0.010600
     11 C7A        -1.5500    0.7450   -0.0000 ca        1 3NY     -0.033200
     12 NO1         2.5900   -0.2140    0.0000 no        1 3NY      0.317200
     13 H4          0.5600   -2.0320   -0.0000 ha        1 3NY      0.193000
     14 H6          1.4920    2.2380    0.0000 ha        1 3NY      0.178000
     15 H7         -0.9330    2.8420   -0.0000 ha        1 3NY      0.159000
     16 HN1        -3.6080    1.3960   -0.0010 hn        1 3NY      0.339700
@<TRIPOS>BOND
     1    1    2 1   
     2    1   11 1   
     3    1   16 1   
     4    2    3 2   
     5    3   10 1   
     6    4    5 ar  
     7    4   10 ar  
     8    4   13 1   
     9    5    6 ar  
    10    5   12 1   
    11    6    7 ar  
    12    6   14 1   
    13    7   11 ar  
    14    7   15 1   
    15    8   12 1   
    16    9   12 1   
    17   10   11 ar  
@<TRIPOS>SUBSTRUCTURE
     1 3NY         1 TEMP              0 ****  ****    0 ROOT
