@<TRIPOS>MOLECULE
3NZ
   59    62     1     0     0
SMALL
bcc


@<TRIPOS>ATOM
      1 O          -0.1210    0.2890   -0.2390 o         1 3NZ     -0.393100
      2 C           0.8370   -0.4730   -0.2350 c         1 3NZ      0.525100
      3 CA          2.0660   -0.3240    0.6630 c3        1 3NZ      0.035500
      4 CB          2.0620   -1.4400    1.7380 c3        1 3NZ     -0.023100
      5 CG          3.0680   -1.1600    2.7890 ca        1 3NZ     -0.280300
      6 CD2         2.6620   -0.8700    4.0990 ca        1 3NZ     -0.075000
      7 CE2         3.5980   -0.6910    5.1100 ca        1 3NZ     -0.180500
      8 CZ          4.9680   -0.8170    4.8170 ca        1 3NZ      0.203100
      9 OM          5.9760   -0.6630    5.7180 os        1 3NZ     -0.292900
     10 CMZ         5.6110   -0.4530    7.0870 c3        1 3NZ      0.101700
     11 CE1         5.3880   -1.1190    3.4970 ca        1 3NZ     -0.180500
     12 CD1         4.4410   -1.2970    2.5070 ca        1 3NZ     -0.075000
     13 N           2.1050    1.0350    1.2940 n4        1 3NZ     -0.836600
     14 N3'         0.8180   -1.6510   -1.1460 n4        1 3NZ     -0.636800
     15 C3'         0.9120   -1.2500   -2.5910 c3        1 3NZ      0.074500
     16 C4'         0.7020   -2.4770   -3.5300 c3        1 3NZ      0.134100
     17 C5'        -0.7780   -2.6870   -3.8540 c3        1 3NZ      0.124400
     18 O5'        -1.4200   -2.7450   -2.5850 oh        1 3NZ     -0.678800
     19 C2'         2.2630   -0.6450   -3.0470 c3        1 3NZ      0.094100
     20 O2'         3.2550   -0.8990   -2.0740 oh        1 3NZ     -0.675800
     21 C1'         2.5820   -1.3950   -4.3950 c3        1 3NZ      0.260800
     22 O4'         1.4010   -2.1700   -4.7300 os        1 3NZ     -0.371600
     23 N9          2.8870   -0.5110   -5.4710 na        1 3NZ     -0.324000
     24 C8          2.5210   -0.6150   -6.8500 cc        1 3NZ      0.435700
     25 N7          3.1910    0.2360   -7.6280 nd        1 3NZ     -0.495100
     26 C5          4.0690    0.9270   -6.7730 ca        1 3NZ     -0.225200
     27 C4          3.9100    0.4610   -5.4100 ca        1 3NZ      0.455800
     28 C6          5.0540    1.9510   -7.0060 ca        1 3NZ      0.788200
     29 N6          5.2620    2.4480   -8.2510 nh        1 3NZ     -0.917500
     30 N1          5.7780    2.4170   -5.9170 nb        1 3NZ     -0.768000
     31 C2          5.5180    1.8860   -4.7060 ca        1 3NZ      0.714900
     32 N3          4.6190    0.9260   -4.3410 nb        1 3NZ     -0.842000
     33 H1          3.0120   -0.4260    0.0310 hx        1 3NZ      0.178700
     34 H2          2.3130   -2.4050    1.2180 hc        1 3NZ      0.088700
     35 H3          1.0370   -1.5350    2.1860 hc        1 3NZ      0.088700
     36 H4          1.5900   -0.8090    4.3470 ha        1 3NZ      0.138000
     37 H5          3.2620   -0.4750    6.1370 ha        1 3NZ      0.180000
     38 H6          5.0040   -1.3100    7.4660 h1        1 3NZ      0.070033
     39 H7          5.0610    0.5120    7.1960 h1        1 3NZ      0.070033
     40 H8          6.6060   -0.4070    7.6030 h1        1 3NZ      0.070033
     41 H9          6.4660   -1.2300    3.2920 ha        1 3NZ      0.180000
     42 H10         4.7670   -1.5720    1.4920 ha        1 3NZ      0.138000
     43 H11         1.1710    1.3140    1.6220 hn        1 3NZ      0.486467
     44 H12         2.7470    0.9840    2.1110 hn        1 3NZ      0.486467
     45 H14        -0.0870   -2.1600   -1.0410 hn        1 3NZ      0.496800
     46 H15         0.0830   -0.4990   -2.7740 hx        1 3NZ      0.147700
     47 H16         1.1460   -3.4120   -3.0860 h1        1 3NZ      0.078700
     48 H17        -1.1880   -1.8300   -4.4510 h1        1 3NZ      0.089200
     49 H18        -0.9100   -3.6450   -4.4240 h1        1 3NZ      0.089200
     50 H19        -2.2980   -3.1290   -2.7200 ho        1 3NZ      0.467000
     51 H20         2.1570    0.4650   -3.1990 h1        1 3NZ      0.114700
     52 H21         4.1180   -0.6800   -2.4700 ho        1 3NZ      0.494000
     53 H22         3.4290   -2.1290   -4.2210 h2        1 3NZ      0.096700
     54 H23         1.7520   -1.3300   -7.1710 h5        1 3NZ      0.096800
     55 H24         5.9520    3.1440   -8.4160 hn        1 3NZ      0.469300
     56 H25         4.7470    2.0790   -9.0160 hn        1 3NZ      0.469300
     57 H26         6.1390    2.2960   -3.8790 h5        1 3NZ      0.056100
     58 HN3         2.4490    1.7350    0.6280 hn        1 3NZ      0.486467
     59 H3'2        1.6000   -2.2820   -0.9270 hn        1 3NZ      0.496800
@<TRIPOS>BOND
     1    1    2 2   
     2    2    3 1   
     3    2   14 1   
     4    3    4 1   
     5    3   13 1   
     6    3   33 1   
     7    4    5 1   
     8    4   34 1   
     9    4   35 1   
    10    5    6 ar  
    11    5   12 ar  
    12    6    7 ar  
    13    6   36 1   
    14    7    8 ar  
    15    7   37 1   
    16    8    9 1   
    17    8   11 ar  
    18    9   10 1   
    19   10   38 1   
    20   10   39 1   
    21   10   40 1   
    22   11   12 ar  
    23   11   41 1   
    24   12   42 1   
    25   13   43 1   
    26   13   44 1   
    27   13   58 1   
    28   14   15 1   
    29   14   45 1   
    30   14   59 1   
    31   15   16 1   
    32   15   19 1   
    33   15   46 1   
    34   16   17 1   
    35   16   22 1   
    36   16   47 1   
    37   17   18 1   
    38   17   48 1   
    39   17   49 1   
    40   18   50 1   
    41   19   20 1   
    42   19   21 1   
    43   19   51 1   
    44   20   52 1   
    45   21   22 1   
    46   21   23 1   
    47   21   53 1   
    48   23   24 1   
    49   23   27 1   
    50   24   25 2   
    51   24   54 1   
    52   25   26 1   
    53   26   27 ar  
    54   26   28 ar  
    55   27   32 ar  
    56   28   29 1   
    57   28   30 ar  
    58   29   55 1   
    59   29   56 1   
    60   30   31 ar  
    61   31   32 ar  
    62   31   57 1   
@<TRIPOS>SUBSTRUCTURE
     1 3NZ         1 TEMP              0 ****  ****    0 ROOT
