@<TRIPOS>MOLECULE
3NZ
   59    62     1     0     0
SMALL
bcc


@<TRIPOS>ATOM
      1 O          -0.1350    0.2540   -0.2490 o         1 3NZ     -0.394100
      2 C           0.8310   -0.4970   -0.2420 c         1 3NZ      0.525100
      3 CA          2.0550   -0.3370    0.6610 c3        1 3NZ      0.035500
      4 CB          2.0560   -1.4530    1.7370 c3        1 3NZ     -0.023100
      5 CG          3.0590   -1.1670    2.7890 ca        1 3NZ     -0.280300
      6 CD2         2.6500   -0.8670    4.0950 ca        1 3NZ     -0.074500
      7 CE2         3.5830   -0.6800    5.1080 ca        1 3NZ     -0.180500
      8 CZ          4.9530   -0.8090    4.8200 ca        1 3NZ      0.203100
      9 OM          5.9590   -0.6500    5.7230 os        1 3NZ     -0.292900
     10 CMZ         5.5900   -0.4300    7.0890 c3        1 3NZ      0.101700
     11 CE1         5.3770   -1.1220    3.5030 ca        1 3NZ     -0.180500
     12 CD1         4.4330   -1.3060    2.5120 ca        1 3NZ     -0.074500
     13 N           2.0780    1.0220    1.2930 nz        1 3NZ     -0.836600
     14 N3'         0.8290   -1.6740   -1.1550 ny        1 3NZ     -0.636800
     15 C3'         0.9240   -1.2700   -2.5980 c3        1 3NZ      0.074500
     16 C4'         0.7320   -2.4970   -3.5410 c3        1 3NZ      0.134100
     17 C5'        -0.7430   -2.7250   -3.8710 c3        1 3NZ      0.124400
     18 O5'        -1.3900   -2.7930   -2.6050 oh        1 3NZ     -0.678800
     19 C2'         2.2700   -0.6480   -3.0480 c3        1 3NZ      0.094100
     20 O2'         3.2610   -0.8920   -2.0710 oh        1 3NZ     -0.675800
     21 C1'         2.6020   -1.3920   -4.3960 c3        1 3NZ      0.260800
     22 O4'         1.4330   -2.1800   -4.7370 os        1 3NZ     -0.371600
     23 N9          2.9020   -0.5020   -5.4690 na        1 3NZ     -0.324000
     24 C8          2.5430   -0.6070   -6.8500 cc        1 3NZ      0.435700
     25 N7          3.2050    0.2530   -7.6230 nd        1 3NZ     -0.495100
     26 C5          4.0720    0.9530   -6.7630 ca        1 3NZ     -0.225200
     27 C4          3.9130    0.4830   -5.4010 ca        1 3NZ      0.455800
     28 C6          5.0450    1.9900   -6.9900 ca        1 3NZ      0.788200
     29 N6          5.2520    2.4920   -8.2330 nv        1 3NZ     -0.917500
     30 N1          5.7580    2.4620   -5.8970 nb        1 3NZ     -0.768000
     31 C2          5.5000    1.9260   -4.6880 ca        1 3NZ      0.714900
     32 N3          4.6120    0.9540   -4.3300 nb        1 3NZ     -0.842000
     33 H1          3.0050   -0.4310    0.0340 hx        1 3NZ      0.178700
     34 H2          1.0310   -1.5540    2.1840 hc        1 3NZ      0.088700
     35 H3          2.3130   -2.4170    1.2180 hc        1 3NZ      0.088700
     36 H4          1.5770   -0.8040    4.3400 ha        1 3NZ      0.138000
     37 H5          3.2440   -0.4570    6.1320 ha        1 3NZ      0.180000
     38 H6          4.9820   -1.2840    7.4710 h1        1 3NZ      0.070033
     39 H7          5.0410    0.5370    7.1890 h1        1 3NZ      0.070033
     40 H8          6.5840   -0.3810    7.6070 h1        1 3NZ      0.070033
     41 H9          6.4550   -1.2340    3.3020 ha        1 3NZ      0.180000
     42 H10         4.7620   -1.5880    1.4990 ha        1 3NZ      0.138000
     43 H11         2.7140    0.9760    2.1160 hn        1 3NZ      0.486467
     44 H12         2.4230    1.7240    0.6300 hn        1 3NZ      0.486467
     45 H14        -0.0710   -2.1930   -1.0550 hn        1 3NZ      0.496800
     46 H15         0.0870   -0.5290   -2.7840 hx        1 3NZ      0.147700
     47 H16         1.1860   -3.4280   -3.0970 h1        1 3NZ      0.078700
     48 H17        -0.8620   -3.6830   -4.4430 h1        1 3NZ      0.089200
     49 H18        -1.1620   -1.8720   -4.4690 h1        1 3NZ      0.089200
     50 H19        -2.2630   -3.1860   -2.7440 ho        1 3NZ      0.467000
     51 H20         2.1510    0.4610   -3.1980 h1        1 3NZ      0.114700
     52 H21         4.1220   -0.6620   -2.4640 ho        1 3NZ      0.494000
     53 H22         3.4580   -2.1160   -4.2200 h2        1 3NZ      0.096700
     54 H23         1.7840   -1.3310   -7.1760 h5        1 3NZ      0.096800
     55 H24         4.7450    2.1190   -9.0010 hn        1 3NZ      0.469300
     56 H25         5.9340    3.1960   -8.3940 hn        1 3NZ      0.469300
     57 H26         6.1130    2.3410   -3.8580 h5        1 3NZ      0.056100
     58 HN3         1.1400    1.2940    1.6130 hn        1 3NZ      0.486467
     59 H3'2        1.6170   -2.2970   -0.9340 hn        1 3NZ      0.496800
@<TRIPOS>BOND
     1    1    2 2   
     2    2    3 1   
     3    2   14 1   
     4    3    4 1   
     5    3   13 1   
     6    3   33 1   
     7    4    5 1   
     8    4   34 1   
     9    4   35 1   
    10    5    6 ar  
    11    5   12 ar  
    12    6    7 ar  
    13    6   36 1   
    14    7    8 ar  
    15    7   37 1   
    16    8    9 1   
    17    8   11 ar  
    18    9   10 1   
    19   10   38 1   
    20   10   39 1   
    21   10   40 1   
    22   11   12 ar  
    23   11   41 1   
    24   12   42 1   
    25   13   43 1   
    26   13   44 1   
    27   13   58 1   
    28   14   15 1   
    29   14   45 1   
    30   14   59 1   
    31   15   16 1   
    32   15   19 1   
    33   15   46 1   
    34   16   17 1   
    35   16   22 1   
    36   16   47 1   
    37   17   18 1   
    38   17   48 1   
    39   17   49 1   
    40   18   50 1   
    41   19   20 1   
    42   19   21 1   
    43   19   51 1   
    44   20   52 1   
    45   21   22 1   
    46   21   23 1   
    47   21   53 1   
    48   23   24 1   
    49   23   27 1   
    50   24   25 2   
    51   24   54 1   
    52   25   26 1   
    53   26   27 ar  
    54   26   28 ar  
    55   27   32 ar  
    56   28   29 1   
    57   28   30 ar  
    58   29   55 1   
    59   29   56 1   
    60   30   31 ar  
    61   31   32 ar  
    62   31   57 1   
@<TRIPOS>SUBSTRUCTURE
     1 3NZ         1 TEMP              0 ****  ****    0 ROOT
