@<TRIPOS>MOLECULE
3NZ
   60    63     1     0     0
SMALL
bcc


@<TRIPOS>ATOM
      1 O           2.2020    1.1190   -0.6410 o         1 3NZ     -0.392100
      2 C           2.8210    0.1500   -0.2260 c         1 3NZ      0.522100
      3 CA          3.3390   -0.0090    1.2070 c3        1 3NZ      0.038500
      4 CB          2.6820   -1.2480    1.8800 c3        1 3NZ     -0.018100
      5 CG          2.9080   -1.2290    3.3420 ca        1 3NZ     -0.303300
      6 CD2         1.8380   -1.0130    4.2250 ca        1 3NZ     -0.070500
      7 CE2         2.0220   -1.0940    5.5980 ca        1 3NZ     -0.181500
      8 CZ          3.2930   -1.4150    6.1120 ca        1 3NZ      0.217100
      9 OM          3.5960   -1.5260    7.4300 os        1 3NZ     -0.284900
     10 CMZ         2.5250   -1.3930    8.3750 c3        1 3NZ      0.099700
     11 CE1         4.3790   -1.6440    5.2270 ca        1 3NZ     -0.181500
     12 CD1         4.1740   -1.5610    3.8650 ca        1 3NZ     -0.070500
     13 N           3.0930    1.2300    2.0120 n4        1 3NZ     -0.837600
     14 N3'         3.0920   -0.9990   -1.1410 n4        1 3NZ     -0.642800
     15 C3'         2.4810   -0.8720   -2.5050 c3        1 3NZ      0.085500
     16 C4'         2.2710   -2.2740   -3.1540 c3        1 3NZ      0.125100
     17 C5'         0.9320   -2.8940   -2.7500 c3        1 3NZ      0.125400
     18 O5'         0.9550   -2.9130   -1.3280 oh        1 3NZ     -0.680800
     19 C2'         3.3070   -0.0890   -3.5640 c3        1 3NZ      0.104100
     20 O2'         4.6470   -0.0200   -3.1310 oh        1 3NZ     -0.633800
     21 C1'         3.2040   -0.9810   -4.8590 c3        1 3NZ      0.233800
     22 O4'         2.2760   -2.0490   -4.5620 os        1 3NZ     -0.377600
     23 N9          2.7330   -0.2920   -6.0330 na        1 3NZ     -0.298000
     24 C8          1.6420   -0.6580   -6.8750 cc        1 3NZ      0.526700
     25 N7          1.6490   -0.0460   -8.0660 nd        1 3NZ     -0.541100
     26 C5          2.8090    0.7440   -8.0720 ca        1 3NZ     -0.124200
     27 C4          3.5290    0.5920   -6.7930 ca        1 3NZ      0.449800
     28 C6          3.4110    1.6050   -9.0100 ca        1 3NZ      0.555200
     29 N6          2.7750    1.7970  -10.3260 n4        1 3NZ     -0.821300
     30 N1          4.5720    2.2510   -8.7330 nb        1 3NZ     -0.652000
     31 C2          5.1350    2.0320   -7.5110 ca        1 3NZ      0.699900
     32 N3          4.6840    1.2350   -6.5030 nb        1 3NZ     -0.671000
     33 H1          4.4650   -0.1690    1.1880 hx        1 3NZ      0.153700
     34 H2          1.5840   -1.2670    1.6460 hc        1 3NZ      0.087200
     35 H3          3.1620   -2.1620    1.4350 hc        1 3NZ      0.087200
     36 H4          0.8300   -0.8040    3.8330 ha        1 3NZ      0.135500
     37 H5          1.1690   -0.9320    6.2780 ha        1 3NZ      0.185000
     38 H6          3.0420   -1.5670    9.3560 h1        1 3NZ      0.074700
     39 H7          1.7460   -2.1710    8.1910 h1        1 3NZ      0.074700
     40 H8          2.0950   -0.3650    8.3270 h1        1 3NZ      0.074700
     41 H9          5.3640   -1.9080    5.6500 ha        1 3NZ      0.185000
     42 H10         5.0100   -1.7810    3.1810 ha        1 3NZ      0.135500
     43 H11         3.1640    0.9660    3.0220 hn        1 3NZ      0.490800
     44 H12         2.1520    1.6040    1.8360 hn        1 3NZ      0.490800
     45 H14         2.6990   -1.8630   -0.7080 hn        1 3NZ      0.501300
     46 H15         1.4760   -0.3660   -2.3800 hx        1 3NZ      0.147700
     47 H16         3.1200   -2.9740   -2.9080 h1        1 3NZ      0.092700
     48 H17         0.8450   -3.9270   -3.1800 h1        1 3NZ      0.092700
     49 H18         0.0700   -2.2650   -3.0980 h1        1 3NZ      0.092700
     50 H19         0.3870   -3.6410   -1.0360 ho        1 3NZ      0.473000
     51 H20         2.8810    0.9400   -3.7120 h1        1 3NZ      0.111700
     52 H21         5.1530    0.4860   -3.7880 ho        1 3NZ      0.483000
     53 H22         4.2180   -1.4460   -5.0720 h2        1 3NZ      0.121700
     54 H23         0.8800   -1.3810   -6.5320 h5        1 3NZ      0.122800
     55 H24         1.7580    1.8960  -10.1970 hn        1 3NZ      0.491800
     56 H25         2.9630    0.9690  -10.9100 hn        1 3NZ      0.491800
     57 H26         6.0930    2.5790   -7.3250 h5        1 3NZ      0.115100
     58 HN3         3.7860    1.9550    1.7960 hn        1 3NZ      0.490800
     59 H3'2        4.1160   -1.1050   -1.2500 hn        1 3NZ      0.501300
     60 H63         3.1470    2.6350  -10.8010 hn        1 3NZ      0.491800
@<TRIPOS>BOND
     1    1    2 2   
     2    2    3 1   
     3    2   14 1   
     4    3    4 1   
     5    3   13 1   
     6    3   33 1   
     7    4    5 1   
     8    4   34 1   
     9    4   35 1   
    10    5    6 ar  
    11    5   12 ar  
    12    6    7 ar  
    13    6   36 1   
    14    7    8 ar  
    15    7   37 1   
    16    8    9 1   
    17    8   11 ar  
    18    9   10 1   
    19   10   38 1   
    20   10   39 1   
    21   10   40 1   
    22   11   12 ar  
    23   11   41 1   
    24   12   42 1   
    25   13   43 1   
    26   13   44 1   
    27   13   58 1   
    28   14   15 1   
    29   14   45 1   
    30   14   59 1   
    31   15   16 1   
    32   15   19 1   
    33   15   46 1   
    34   16   17 1   
    35   16   22 1   
    36   16   47 1   
    37   17   18 1   
    38   17   48 1   
    39   17   49 1   
    40   18   50 1   
    41   19   20 1   
    42   19   21 1   
    43   19   51 1   
    44   20   52 1   
    45   21   22 1   
    46   21   23 1   
    47   21   53 1   
    48   23   24 1   
    49   23   27 1   
    50   24   25 2   
    51   24   54 1   
    52   25   26 1   
    53   26   27 ar  
    54   26   28 ar  
    55   27   32 ar  
    56   28   29 1   
    57   28   30 ar  
    58   29   55 1   
    59   29   56 1   
    60   29   60 1   
    61   30   31 ar  
    62   31   32 ar  
    63   31   57 1   
@<TRIPOS>SUBSTRUCTURE
     1 3NZ         1 TEMP              0 ****  ****    0 ROOT
