@<TRIPOS>MOLECULE
3O0
   36    38     1     0     0
SMALL
bcc


@<TRIPOS>ATOM
      1 CLA        -7.7280   -0.6210    0.2050 cl        1 3O0     -0.088400
      2 CAC         5.7210    0.7830    1.1340 ca        1 3O0     -0.147000
      3 CAD         4.6190    1.5950    0.8740 ca        1 3O0     -0.044000
      4 CAE         3.5620    1.1230    0.0830 ca        1 3O0     -0.158600
      5 CAF         2.4060    2.0290   -0.1700 c         1 3O0      0.644300
      6 CAG         1.0940    1.4490   -0.1440 cc        1 3O0     -0.429000
      7 CAH        -0.1240    2.1670   -0.3420 cd        1 3O0      0.740200
      8 NAI        -1.2940    1.3890   -0.2040 nd        1 3O0     -0.762000
      9 CAJ        -3.9100   -0.0610   -0.7640 ca        1 3O0     -0.133000
     10 CAK        -5.3000   -0.0010   -0.7590 ca        1 3O0     -0.107000
     11 CAL        -6.0310   -0.6960    0.2080 ca        1 3O0      0.005400
     12 CAM         5.7940   -0.5010    0.6000 ca        1 3O0     -0.054000
     13 CAN         4.7400   -0.9640   -0.2050 ca        1 3O0     -0.183200
     14 CAO         3.6210   -0.1580   -0.4700 ca        1 3O0     -0.051000
     15 OAP         2.6170    3.2430   -0.3580 o         1 3O0     -0.589100
     16 SAQ         0.7660   -0.1820    0.1680 ss        1 3O0     -0.139300
     17 CAR        -0.9510    0.1120    0.0680 cc        1 3O0      0.713300
     18 NAS        -1.8230   -0.9550    0.1970 nh        1 3O0     -0.703300
     19 CAT        -3.2290   -0.8150    0.2140 ca        1 3O0      0.130600
     20 CAU        -3.9810   -1.5130    1.1860 ca        1 3O0     -0.133000
     21 CAV        -5.3700   -1.4560    1.1780 ca        1 3O0     -0.107000
     22 OAW         5.7830   -3.0040   -0.5700 o         1 3O0     -0.207500
     23 NAX         4.8110   -2.3300   -0.7870 no        1 3O0      0.314200
     24 OAY         3.8940   -2.7280   -1.4540 o         1 3O0     -0.207500
     25 HNAA        0.6520    4.0120   -0.6900 hn        1 3O0      0.461300
     26 HNAB       -1.0680    3.9460   -0.7220 hn        1 3O0      0.461300
     27 HAC         6.5450    1.1580    1.7610 ha        1 3O0      0.152000
     28 HAD         4.5690    2.6200    1.2780 ha        1 3O0      0.163000
     29 HAJ        -3.3540    0.4870   -1.5410 ha        1 3O0      0.149500
     30 HAK        -5.8200    0.5940   -1.5260 ha        1 3O0      0.151500
     31 HAM         6.6670   -1.1460    0.8010 ha        1 3O0      0.172000
     32 HAO         2.8110   -0.5330   -1.1250 ha        1 3O0      0.183000
     33 HNAS       -1.4680   -1.7150    0.7410 hn        1 3O0      0.440800
     34 HAU        -3.4780   -2.1150    1.9590 ha        1 3O0      0.149500
     35 HAV        -5.9440   -2.0060    1.9400 ha        1 3O0      0.151500
     36 NAA        -0.1940    3.4900   -0.6440 nh        1 3O0     -0.936500
@<TRIPOS>BOND
     1    1   11 1   
     2    2    3 ar  
     3    2   12 ar  
     4    2   27 1   
     5    3    4 ar  
     6    3   28 1   
     7    4    5 1   
     8    4   14 ar  
     9    5    6 1   
    10    5   15 2   
    11    6    7 2   
    12    6   16 1   
    13    7    8 1   
    14    7   36 1   
    15    8   17 2   
    16    9   10 ar  
    17    9   19 ar  
    18    9   29 1   
    19   10   11 ar  
    20   10   30 1   
    21   11   21 ar  
    22   12   13 ar  
    23   12   31 1   
    24   13   14 ar  
    25   13   23 1   
    26   14   32 1   
    27   16   17 1   
    28   17   18 1   
    29   18   19 1   
    30   18   33 1   
    31   19   20 ar  
    32   20   21 ar  
    33   20   34 1   
    34   21   35 1   
    35   22   23 1   
    36   23   24 1   
    37   25   36 1   
    38   26   36 1   
@<TRIPOS>SUBSTRUCTURE
     1 3O0         1 TEMP              0 ****  ****    0 ROOT
