@<TRIPOS>MOLECULE
3O0
   36    45     1     0     0
SMALL
bcc


@<TRIPOS>ATOM
      1 ClA         0.0000    0.0000    0.0000 cl        1 3O0      0.103000
      2 CAC        13.3190   -1.2620   -1.9670 c3        1 3O0     -0.160000
      3 CAD        12.2620   -1.7800   -1.2480 c2        1 3O0      0.075000
      4 CAE        11.1690   -0.9700   -0.9370 c1        1 3O0     -0.372000
      5 CAF         9.8630   -1.9000    0.6840 c1        1 3O0      0.549000
      6 CAG         8.5980   -1.5010    0.2110 c2        1 3O0     -0.531000
      7 CAH         7.3800   -1.7860    0.8010 c2        1 3O0      0.192000
      8 NAI         6.3530   -1.2910    0.1500 n2        1 3O0     -0.151000
      9 CAJ         3.9920    0.0000    0.0000 c3        1 3O0     -0.479000
     10 CAK         2.6750    0.0000    0.4130 c2        1 3O0     -0.250000
     11 CAL         1.6550    0.0010   -0.5230 c2        1 3O0     -0.065000
     12 CAM        13.2970    0.0580   -2.3810 c2        1 3O0      0.075000
     13 CAN        12.2140    0.8650   -2.0810 c3        1 3O0      0.192000
     14 CAO        11.1530    0.3600   -1.3570 c3        1 3O0      0.163000
     15 OAP         9.9460   -2.6620    1.6330 o         1 3O0     -0.229000
     16 SAQ         8.2840   -0.5420   -1.2320 ss        1 3O0      0.446000
     17 CAR         6.6040   -0.6140   -0.9340 c3        1 3O0     -0.263000
     18 NAS         5.6280    0.0000   -1.7770 n7        1 3O0     -0.140000
     19 CAT         4.2950    0.0010   -1.3550 c3        1 3O0     -0.106000
     20 CAU         3.2690    0.0020   -2.2930 c3        1 3O0     -0.449000
     21 CAV         1.9520    0.0010   -1.8750 c2        1 3O0     -0.226000
     22 OAW        13.1390    2.7270   -3.1560 o         1 3O0     -0.721200
     23 NAX        12.1990    2.2770   -2.5260 no        1 3O0      1.409700
     24 OAY        11.2450    2.9880   -2.2630 o         1 3O0     -0.589500
     25 HNAA        7.1700   -3.0010    2.8420 hn        1 3O0      0.139000
     26 HNAB        6.4960   -2.9420    2.4670 hn        1 3O0      0.139000
     27 HAC        12.5190   -1.5150   -1.2820 hc        1 3O0     -0.004000
     28 HAD        13.2290   -1.8370   -1.7330 DU        1 3O0      0.104000
     29 HAJ         5.0140   -0.3520    0.0730 hc        1 3O0      0.300000
     30 HAK         3.7460   -0.0000    0.5760 DU        1 3O0      0.373000
     31 HAM        12.3130    0.1020   -1.9290 DU        1 3O0      0.001000
     32 HAO        12.1080    0.3930   -1.8680 DU        1 3O0     -0.536000
     33 HNAS        6.5950    0.0860   -1.5340 DU        1 3O0      0.298000
     34 HAU         4.3290    0.1680   -2.4430 DU        1 3O0      0.407000
     35 HAV         2.7360    0.0020   -2.6230 DU        1 3O0      0.346000
     36 NAA         7.2550   -2.5250    1.9660 n8        1 3O0     -0.043000
@<TRIPOS>BOND
     1    1   11 1   
     2    2    3 1   
     3    2   12 1   
     4    2   27 1   
     5    2   28 1   
     6    3    4 1   
     7    3   28 1   
     8    4   14 1   
     9    5    6 1   
    10    5   15 1   
    11    6    7 1   
    12    6   16 1   
    13    7    8 1   
    14    7   36 1   
    15    8   17 1   
    16    9   10 1   
    17    9   19 1   
    18    9   29 1   
    19    9   30 1   
    20   10   11 1   
    21   10   30 1   
    22   11   21 1   
    23   12   13 1   
    24   12   31 1   
    25   13   14 1   
    26   13   23 1   
    27   13   31 1   
    28   14   31 1   
    29   14   32 1   
    30   16   17 1   
    31   17   18 1   
    32   17   33 1   
    33   18   19 1   
    34   18   33 1   
    35   19   20 1   
    36   19   34 1   
    37   20   21 1   
    38   20   34 1   
    39   20   35 1   
    40   21   35 1   
    41   22   23 2   
    42   23   24 1   
    43   25   36 1   
    44   26   36 1   
    45   31   32 1   
@<TRIPOS>SUBSTRUCTURE
     1 3O0         1 TEMP              0 ****  ****    0 ROOT
