@<TRIPOS>MOLECULE
3O0
   36    36     1     0     0
SMALL
bcc


@<TRIPOS>ATOM
      1 CLA         1.9460    1.6120   -2.9500 cl        1 3O0     -0.095400
      2 CAC        11.4690    0.7840   -5.3830 c1        1 3O0     -0.064500
      3 CAD        11.9280   -2.3960   -1.3100 c1        1 3O0     -0.283500
      4 CAE        11.1080   -2.0290   -0.5100 cg        1 3O0      0.045000
      5 CAF         9.1690   -3.3220    3.0060 c1        1 3O0      0.655600
      6 CAG         8.4610   -2.5080    2.2670 ce        1 3O0     -0.495000
      7 CAH         7.0140   -2.4780    2.1130 ce        1 3O0      0.888500
      8 NAI         6.4130   -1.6290    1.2310 nf        1 3O0     -0.761300
      9 CAJ         4.5800    0.3120   -0.2650 ca        1 3O0     -0.127000
     10 CAK         3.3910    0.6840   -0.8860 ca        1 3O0     -0.115500
     11 CAL         3.4030    1.1600   -2.1980 ca        1 3O0      0.007400
     12 CAM        11.4600    0.7820   -4.1870 c1        1 3O0     -0.184100
     13 CAN        11.4820    0.7560   -2.7570 c3        1 3O0      0.012400
     14 CAO        10.1900   -1.6040    0.3820 cg        1 3O0     -1.055000
     15 OAP         9.9070   -3.9980    3.6450 o         1 3O0     -0.378500
     16 SAQ         9.2470   -1.2260    1.2810 sx        1 3O0      1.088300
     17 CAR         7.3200   -0.8530    0.5590 cf        1 3O0      0.059600
     18 NAS         7.0450    0.0490   -0.3790 nh        1 3O0     -0.515400
     19 CAT         5.8020    0.4030   -0.9590 ca        1 3O0      0.096600
     20 CAU         5.8000    0.8980   -2.2850 ca        1 3O0     -0.127000
     21 CAV         4.6100    1.2710   -2.8960 ca        1 3O0     -0.115500
     22 OAW        10.4610    2.2990   -1.3160 o         1 3O0     -0.222500
     23 NAX        10.2710    1.4310   -2.1220 no        1 3O0      0.239300
     24 OAY         9.1620    1.0590   -2.4030 o         1 3O0     -0.222500
     25 HNAA        6.6740   -3.9600    3.4830 hn        1 3O0      0.446300
     26 HNAB        5.2570   -3.3310    2.7730 hn        1 3O0      0.446300
     27 HAC        12.6530   -2.7470   -1.9930 ha        1 3O0      0.157500
     28 HAD        11.4830    0.7820   -6.4450 ha        1 3O0      0.175500
     29 HAJ         4.5400   -0.0480    0.7750 ha        1 3O0      0.162000
     30 HAK         2.4420    0.6040   -0.3330 ha        1 3O0      0.149000
     31 HAM        11.4680   -0.3120   -2.3670 h1        1 3O0      0.131700
     32 HAO        12.3890    1.2960   -2.3560 h1        1 3O0      0.131700
     33 HNAS        7.8430    0.4770   -0.8150 hn        1 3O0      0.476800
     34 HAU         6.7480    0.9960   -2.8430 ha        1 3O0      0.162000
     35 HAV         4.6220    1.6520   -3.9290 ha        1 3O0      0.149000
     36 NAA         6.2430   -3.3130    2.8730 nh        1 3O0     -0.917800
@<TRIPOS>BOND
     1    1   11 1   
     2    2   12 3   
     3    2   28 1   
     4    3    4 3   
     5    3   27 1   
     6    4   14 1   
     7    5    6 2   
     8    5   15 2   
     9    6    7 1   
    10    6   16 1   
    11    7    8 2   
    12    7   36 1   
    13    8   17 1   
    14    9   10 ar  
    15    9   19 ar  
    16    9   29 1   
    17   10   11 ar  
    18   10   30 1   
    19   11   21 ar  
    20   12   13 1   
    21   13   23 1   
    22   13   31 1   
    23   13   32 1   
    24   14   16 3   
    25   16   17 2   
    26   17   18 1   
    27   18   19 1   
    28   18   33 1   
    29   19   20 ar  
    30   20   21 ar  
    31   20   34 1   
    32   21   35 1   
    33   22   23 1   
    34   23   24 1   
    35   25   36 1   
    36   26   36 1   
@<TRIPOS>SUBSTRUCTURE
     1 3O0         1 TEMP              0 ****  ****    0 ROOT
