@<TRIPOS>MOLECULE
3O0
   36    31     1     0     0
SMALL
bcc


@<TRIPOS>ATOM
      1 CLA         2.5580   -4.5280    4.4980 cl        1 3O0     -0.001000
      2 NAA         0.6560    4.2950    0.5940 n3        1 3O0     -0.338000
      3 CAC        -2.2360    0.1770   -4.1390 c1        1 3O0     -0.113250
      4 CAD        -1.9350    1.1400   -3.1870 c1        1 3O0     -0.044000
      5 CAE        -0.6490    1.2310   -2.6770 c1        1 3O0     -0.137000
      6 CAF        -0.2990    2.3380   -1.7050 c2        1 3O0      0.365000
      7 CAG        -0.2110    2.0420   -0.2220 c2        1 3O0     -0.629000
      8 CAH         0.1730    2.9780    0.8070 c2        1 3O0      0.220000
      9 NAI        -0.0190    2.2840    2.2030 n2        1 3O0     -0.248000
     10 CAJ         0.8000   -0.9390    4.4130 c1        1 3O0     -0.113250
     11 CAK         1.5720   -2.0270    4.7920 c1        1 3O0     -0.113250
     12 CAL         1.4760   -3.2200    4.0960 c1        1 3O0     -0.074000
     13 CAM        -1.2520   -0.6930   -4.5790 c1        1 3O0     -0.113250
     14 CAN         0.0340   -0.6020   -4.0690 c1        1 3O0     -0.139000
     15 CAO         0.3350    0.3600   -3.1170 c1        1 3O0     -0.052000
     16 OAP        -0.0330    3.4480   -2.1200 o         1 3O0     -0.351000
     17 SAQ        -0.6500    0.7510    0.4620 ss        1 3O0      0.491000
     18 CAR        -0.5080    0.9600    1.9850 c1        1 3O0     -0.074000
     19 NAS        -0.9090    0.0440    2.9930 n2        1 3O0     -0.217000
     20 CAT        -0.0670   -1.0460    3.3360 c1        1 3O0      0.039000
     21 CAU        -0.1620   -2.2410    2.6400 c1        1 3O0     -0.143000
     22 CAV         0.6090   -3.3280    3.0190 c1        1 3O0     -0.092000
     23 OAW         2.1440   -1.4840   -3.9910 o         1 3O0     -0.489700
     24 NAX         1.0360   -1.5050   -4.5060 no        1 3O0      0.699700
     25 OAY         0.7570   -2.4100   -5.4890 o         1 3O0     -0.358000
     26 HNAA        0.8960    4.8140    1.3070 hn        1 3O0      0.256000
     27 HNAB        0.7560    4.6120   -0.2570 hn        1 3O0      0.256000
     28 HAC        -3.1410    0.1130   -4.4980 ha        1 3O0      0.155000
     29 HAD        -2.6280    1.7530   -2.8770 ha        1 3O0      0.163000
     30 HAJ         0.8670   -0.0990    4.9030 ha        1 3O0      0.155000
     31 HAK         2.1830   -1.9510    5.5510 ha        1 3O0      0.155000
     32 HAM        -1.4640   -1.3710   -5.2490 ha        1 3O0      0.155000
     33 HAO         1.2400    0.4250   -2.7580 ha        1 3O0      0.182000
     34 HNAS       -1.7020    0.1630    3.4280 hn        1 3O0      0.240000
     35 HAU        -0.7730   -2.3160    1.8820 ha        1 3O0      0.151000
     36 HAV         0.5420   -4.1680    2.5290 ha        1 3O0      0.158000
@<TRIPOS>BOND
     1    1   12 1   
     2    2    8 1   
     3    2   26 1   
     4    2   27 1   
     5    3   13 1   
     6    3   28 1   
     7    4    5 1   
     8    4   29 1   
     9    5    6 1   
    10    6    7 1   
    11    6   16 1   
    12    7    8 1   
    13    7   17 1   
    14    8    9 1   
    15    9   18 1   
    16   10   11 1   
    17   10   30 1   
    18   11   31 1   
    19   12   22 1   
    20   13   32 1   
    21   14   15 1   
    22   14   24 1   
    23   15   33 1   
    24   17   18 1   
    25   19   20 1   
    26   19   34 1   
    27   20   21 1   
    28   21   35 1   
    29   22   36 1   
    30   23   24 2   
    31   24   25 1   
@<TRIPOS>SUBSTRUCTURE
     1 3O0         1 TEMP              0 ****  ****    0 ROOT
