@<TRIPOS>MOLECULE
3O1
   49    49     1     0     0
SMALL
bcc


@<TRIPOS>ATOM
      1 CAA        -0.1320    0.3880    0.8370 c3        1 3O1     -0.133433
      2 CAV         1.2300    0.0170    0.2990 c3        1 3O1      0.209800
      3 CAB         2.2020   -0.3960    1.3800 c3        1 3O1     -0.133433
      4 CAC         1.1530   -0.9960   -0.8300 c3        1 3O1     -0.133433
      5 OAR         1.8000    1.2090   -0.4330 os        1 3O1     -0.423900
      6 CAS         2.0380    2.3320    0.2360 c         1 3O1      0.637100
      7 OAE         1.8390    2.6170    1.4070 o         1 3O1     -0.425000
      8 NAP         2.6640    3.3490   -0.7020 ny        1 3O1     -0.654800
      9 CAN         2.0050    4.6820   -0.5690 c3        1 3O1      0.106800
     10 CAL         2.7330    5.7840   -1.3320 c3        1 3O1     -0.104400
     11 CAM         2.0010    7.0920   -1.1100 c3        1 3O1     -0.090400
     12 CAO         2.7180    8.2290   -1.8230 c3        1 3O1      0.126400
     13 OAQ         1.9740    9.4090   -1.4570 os        1 3O1     -0.298900
     14 CAT         2.4530   10.6120   -1.8730 ca        1 3O1      0.259100
     15 CAH         3.5680   10.7950   -2.7150 ca        1 3O1     -0.207000
     16 CAJ         3.9620   12.0770   -3.0480 ca        1 3O1      0.051000
     17 CAU         3.2780   13.2190   -2.5690 ca        1 3O1     -0.599500
     18 SAW         3.8250   14.6920   -2.8440 sy        1 3O1      1.497200
     19 OAF         3.3450   15.6620   -1.9920 o         1 3O1     -0.563300
     20 OAG         5.0870   14.7450   -3.3960 o         1 3O1     -0.563300
     21 NAD         2.7790   15.1040   -4.4050 nz        1 3O1     -0.788500
     22 CAK         2.1510   13.0020   -1.7340 ca        1 3O1      0.051000
     23 CAI         1.7340   11.7360   -1.3900 ca        1 3O1     -0.207000
     24 H1         -0.0500    1.1550    1.6460 hc        1 3O1      0.076478
     25 H2         -0.7870    0.7790    0.0220 hc        1 3O1      0.076478
     26 H3         -0.6110   -0.5270    1.2680 hc        1 3O1      0.076478
     27 H4          3.2200   -0.5680    0.9540 hc        1 3O1      0.076478
     28 H5          1.8460   -1.3520    1.8400 hc        1 3O1      0.076478
     29 H6          2.2630    0.3790    2.1830 hc        1 3O1      0.076478
     30 H7          0.4830   -0.6300   -1.6450 hc        1 3O1      0.076478
     31 H8          0.7370   -1.9480   -0.4160 hc        1 3O1      0.076478
     32 H9          2.1660   -1.1960   -1.2530 hc        1 3O1      0.076478
     33 H10         3.6580    3.4280   -0.4570 hn        1 3O1      0.467800
     34 H11         1.9650    4.9340    0.5340 hx        1 3O1      0.122200
     35 H12         0.9470    4.5780   -0.9480 hx        1 3O1      0.122200
     36 H13         2.7640    5.5480   -2.4290 hc        1 3O1      0.070700
     37 H14         0.9480    7.0220   -1.4920 hc        1 3O1      0.083200
     38 H15         2.6850    8.1060   -2.9370 h1        1 3O1      0.063200
     39 H16         3.7770    8.3330   -1.4720 h1        1 3O1      0.063200
     40 H17         4.1310    9.9310   -3.1010 ha        1 3O1      0.180000
     41 H18         4.8540   12.2170   -3.6920 ha        1 3O1      0.175000
     42 H19         2.2100   15.9340   -4.2380 hn        1 3O1      0.457133
     43 H20         2.1560   14.3490   -4.6740 hn        1 3O1      0.457133
     44 H21         1.6090   13.8780   -1.3250 ha        1 3O1      0.175000
     45 H22         0.8610   11.5770   -0.7350 ha        1 3O1      0.180000
     46 H23         3.7920    5.8770   -0.9700 hc        1 3O1      0.070700
     47 H24         1.9440    7.3260   -0.0130 hc        1 3O1      0.083200
     48 HAP2        2.5910    3.0070   -1.6680 hn        1 3O1      0.467800
     49 HAD3        3.3890   15.3050   -5.1960 hn        1 3O1      0.457133
@<TRIPOS>BOND
     1    1    2 1   
     2    1   24 1   
     3    1   25 1   
     4    1   26 1   
     5    2    3 1   
     6    2    4 1   
     7    2    5 1   
     8    3   27 1   
     9    3   28 1   
    10    3   29 1   
    11    4   30 1   
    12    4   31 1   
    13    4   32 1   
    14    5    6 1   
    15    6    7 2   
    16    6    8 1   
    17    8    9 1   
    18    8   33 1   
    19    8   48 1   
    20    9   10 1   
    21    9   34 1   
    22    9   35 1   
    23   10   11 1   
    24   10   36 1   
    25   10   46 1   
    26   11   12 1   
    27   11   37 1   
    28   11   47 1   
    29   12   13 1   
    30   12   38 1   
    31   12   39 1   
    32   13   14 1   
    33   14   15 ar  
    34   14   23 ar  
    35   15   16 ar  
    36   15   40 1   
    37   16   17 ar  
    38   16   41 1   
    39   17   18 1   
    40   17   22 ar  
    41   18   19 2   
    42   18   20 2   
    43   18   21 1   
    44   21   42 1   
    45   21   43 1   
    46   21   49 1   
    47   22   23 ar  
    48   22   44 1   
    49   23   45 1   
@<TRIPOS>SUBSTRUCTURE
     1 3O1         1 TEMP              0 ****  ****    0 ROOT
