@<TRIPOS>MOLECULE
3O1
   49    49     1     0     0
SMALL
bcc


@<TRIPOS>ATOM
      1 CAA        -0.1420    0.3870    0.8200 c3        1 3O1     -0.133433
      2 CAV         1.2290    0.0180    0.3030 c3        1 3O1      0.209800
      3 CAB         2.1860   -0.3890    1.3990 c3        1 3O1     -0.133433
      4 CAC         1.1710   -0.9970   -0.8250 c3        1 3O1     -0.133433
      5 OAR         1.8060    1.2100   -0.4240 os        1 3O1     -0.423900
      6 CAS         2.0310    2.3350    0.2460 c         1 3O1      0.637100
      7 OAE         1.8130    2.6230    1.4130 o         1 3O1     -0.425000
      8 NAP         2.6680    3.3520   -0.6850 n4        1 3O1     -0.654800
      9 CAN         2.0010    4.6830   -0.5670 c3        1 3O1      0.106800
     10 CAL         2.7380    5.7850   -1.3210 c3        1 3O1     -0.104400
     11 CAM         1.9970    7.0910   -1.1150 c3        1 3O1     -0.090400
     12 CAO         2.7210    8.2290   -1.8200 c3        1 3O1      0.126400
     13 OAQ         1.9660    9.4070   -1.4710 os        1 3O1     -0.298900
     14 CAT         2.4470   10.6110   -1.8830 ca        1 3O1      0.259100
     15 CAH         3.5770   10.7950   -2.7050 ca        1 3O1     -0.207000
     16 CAJ         3.9710   12.0780   -3.0360 ca        1 3O1      0.051000
     17 CAU         3.2740   13.2190   -2.5730 ca        1 3O1     -0.599500
     18 SAW         3.8190   14.6930   -2.8430 sy        1 3O1      1.497200
     19 OAF         3.3200   15.6640   -2.0040 o         1 3O1     -0.563300
     20 OAG         5.0910   14.7490   -3.3720 o         1 3O1     -0.563300
     21 NAD         2.8000   15.0950   -4.4240 n4        1 3O1     -0.788500
     22 CAK         2.1330   13.0000   -1.7570 ca        1 3O1      0.051000
     23 CAI         1.7150   11.7330   -1.4170 ca        1 3O1     -0.207000
     24 H1         -0.6250   -0.5290    1.2460 hc        1 3O1      0.076478
     25 H2         -0.7860    0.7740   -0.0060 hc        1 3O1      0.076478
     26 H3         -0.0740    1.1560    1.6280 hc        1 3O1      0.076478
     27 H4          1.8250   -1.3450    1.8560 hc        1 3O1      0.076478
     28 H5          3.2100   -0.5590    0.9880 hc        1 3O1      0.076478
     29 H6          2.2330    0.3880    2.2000 hc        1 3O1      0.076478
     30 H7          2.1910   -1.1950   -1.2330 hc        1 3O1      0.076478
     31 H8          0.5120   -0.6360   -1.6510 hc        1 3O1      0.076478
     32 H9          0.7520   -1.9500   -0.4150 hc        1 3O1      0.076478
     33 H10         3.6580    3.4360   -0.4250 hn        1 3O1      0.467800
     34 H11         0.9500    4.5740   -0.9630 hx        1 3O1      0.121700
     35 H12         1.9430    4.9380    0.5340 hx        1 3O1      0.121700
     36 H13         2.7870    5.5460   -2.4170 hc        1 3O1      0.070700
     37 H14         0.9510    7.0160   -1.5150 hc        1 3O1      0.083200
     38 H15         2.7090    8.1020   -2.9340 h1        1 3O1      0.063200
     39 H16         3.7740    8.3390   -1.4510 h1        1 3O1      0.063200
     40 H17         4.1510    9.9330   -3.0790 ha        1 3O1      0.180000
     41 H18         4.8740   12.2200   -3.6640 ha        1 3O1      0.175000
     42 H19         2.1860   14.3370   -4.7020 hn        1 3O1      0.457133
     43 H20         2.2250   15.9230   -4.2700 hn        1 3O1      0.457133
     44 H21         1.5810   13.8750   -1.3610 ha        1 3O1      0.175000
     45 H22         0.8310   11.5720   -0.7760 ha        1 3O1      0.180000
     46 H23         3.7900    5.8830   -0.9420 hc        1 3O1      0.070700
     47 H24         1.9210    7.3280   -0.0200 hc        1 3O1      0.083200
     48 HAP2        2.6120    3.0070   -1.6510 hn        1 3O1      0.467800
     49 HAD3        3.4240   15.2960   -5.2050 hn        1 3O1      0.457133
@<TRIPOS>BOND
     1    1    2 1   
     2    1   24 1   
     3    1   25 1   
     4    1   26 1   
     5    2    3 1   
     6    2    4 1   
     7    2    5 1   
     8    3   27 1   
     9    3   28 1   
    10    3   29 1   
    11    4   30 1   
    12    4   31 1   
    13    4   32 1   
    14    5    6 1   
    15    6    7 2   
    16    6    8 1   
    17    8    9 1   
    18    8   33 1   
    19    8   48 1   
    20    9   10 1   
    21    9   34 1   
    22    9   35 1   
    23   10   11 1   
    24   10   36 1   
    25   10   46 1   
    26   11   12 1   
    27   11   37 1   
    28   11   47 1   
    29   12   13 1   
    30   12   38 1   
    31   12   39 1   
    32   13   14 1   
    33   14   15 ar  
    34   14   23 ar  
    35   15   16 ar  
    36   15   40 1   
    37   16   17 ar  
    38   16   41 1   
    39   17   18 1   
    40   17   22 ar  
    41   18   19 2   
    42   18   20 2   
    43   18   21 1   
    44   21   42 1   
    45   21   43 1   
    46   21   49 1   
    47   22   23 ar  
    48   22   44 1   
    49   23   45 1   
@<TRIPOS>SUBSTRUCTURE
     1 3O1         1 TEMP              0 ****  ****    0 ROOT
