@<TRIPOS>MOLECULE
3O2
   74    77     1     0     0
SMALL
bcc


@<TRIPOS>ATOM
      1 C1          6.4110   -0.8150   -0.1470 c3        1 3O2     -0.291200
      2 F1        -11.4880   -0.7100    2.7450 f         1 3O2     -0.212300
      3 N1          8.5920    1.1090    0.4190 n3        1 3O2     -0.734600
      4 O1         11.0070    2.5450    1.9260 os        1 3O2     -0.419600
      5 S1          5.4180   -2.1210    0.5350 sy        1 3O2      1.368300
      6 C2          7.2120    1.5560    0.3080 c3        1 3O2      0.177800
      7 F2        -12.1570   -1.3580    0.7410 f         1 3O2     -0.212300
      8 O2          5.6060   -3.2280   -0.3160 o         1 3O2     -0.647800
      9 C3          8.8430   -0.1240   -0.3110 c3        1 3O2      0.177800
     10 F3        -13.3910    0.0500    1.9180 f         1 3O2     -0.212300
     11 N3         -4.3930    0.6920   -1.8160 na        1 3O2      0.195900
     12 O3          5.7540   -2.2690    1.8870 o         1 3O2     -0.647800
     13 C4          7.8680   -1.2360    0.0640 c3        1 3O2     -0.056900
     14 N4         -4.7180    1.9380   -2.2650 nc        1 3O2     -0.140800
     15 O4         -0.0460   -0.1250    0.1620 os        1 3O2     -0.316900
     16 C5          6.1890    0.4730    0.6420 c3        1 3O2     -0.056900
     17 N5         -5.9010    2.1970   -1.9100 nd        1 3O2     -0.364000
     18 C6          6.1150   -0.5790   -1.6190 c         1 3O2      0.618100
     19 N6         -5.3960    0.1240   -1.1170 nc        1 3O2     -0.486800
     20 O6          5.8960   -1.5290   -3.7230 oh        1 3O2     -0.435100
     21 C7          9.5460    2.1590    0.0980 c3        1 3O2      0.172800
     22 O7        -11.5490    0.8330    1.0580 os        1 3O2     -0.365900
     23 C8          9.8490    3.0800    1.2880 c3        1 3O2      0.129400
     24 C9         11.3060    3.1930    3.1490 c3        1 3O2      0.116700
     25 C10         3.8770   -1.5390    0.3770 ca        1 3O2     -0.450500
     26 C11         1.2320   -0.6250    0.1600 ca        1 3O2      0.204100
     27 C12         3.1050   -1.8230   -0.7590 ca        1 3O2      0.029500
     28 C13         3.2830   -0.7910    1.4110 ca        1 3O2      0.029500
     29 C14         1.9810   -0.3330    1.3200 ca        1 3O2     -0.208000
     30 C15         1.7960   -1.3770   -0.8820 ca        1 3O2     -0.208000
     31 C16        -0.8300   -0.3770   -1.0150 c3        1 3O2      0.126400
     32 C17        -2.1660    0.2990   -0.7550 c3        1 3O2     -0.112400
     33 C18        -3.0680    0.0800   -1.9660 c3        1 3O2      0.071300
     34 C19        -6.3890    1.0640   -1.1650 cd        1 3O2      0.546500
     35 C20        -7.7200    0.9710   -0.5860 ca        1 3O2     -0.137500
     36 C21       -10.2640    0.7890    0.5260 ca        1 3O2      0.136100
     37 C22        -8.1090   -0.1890    0.0980 ca        1 3O2     -0.066000
     38 C23        -8.6200    2.0420   -0.7100 ca        1 3O2     -0.066000
     39 C24        -9.8940    1.9580   -0.1590 ca        1 3O2     -0.164500
     40 C25        -9.3810   -0.2860    0.6580 ca        1 3O2     -0.164500
     41 C26       -12.1230   -0.3190    1.6120 c3        1 3O2      0.825700
     42 H2          7.0750    2.4070    1.0340 h1        1 3O2      0.043200
     43 H2A         6.9810    1.9470   -0.7290 h1        1 3O2      0.043200
     44 HN2         6.4550   -2.5340   -2.1940 hn        1 3O2      0.332500
     45 H3          8.7950    0.0320   -1.4300 h1        1 3O2      0.043200
     46 H3A         9.8850   -0.4690   -0.0530 h1        1 3O2      0.043200
     47 H4          8.0030   -1.4940    1.1510 hc        1 3O2      0.071450
     48 H4A         8.1150   -2.1480   -0.5400 hc        1 3O2      0.071450
     49 H5          5.1700    0.8830    0.4110 hc        1 3O2      0.071450
     50 H5A         6.2450    0.2280    1.7380 hc        1 3O2      0.071450
     51 HO6         6.2700   -0.7580   -4.1950 ho        1 3O2      0.433000
     52 H7         10.5210    1.6910   -0.2240 h1        1 3O2      0.047700
     53 H7A         9.1800    2.8080   -0.7510 h1        1 3O2      0.047700
     54 H8          8.9990    3.1420    2.0170 h1        1 3O2      0.031200
     55 H8A        10.0870    4.1120    0.9130 h1        1 3O2      0.031200
     56 H9         12.2300    2.6830    3.5180 h1        1 3O2      0.031700
     57 H9A        11.5000    4.2820    2.9820 h1        1 3O2      0.031700
     58 H9B        10.4700    3.0650    3.8800 h1        1 3O2      0.031700
     59 H12         3.5500   -2.4240   -1.5750 ha        1 3O2      0.159000
     60 H13         3.8750   -0.5770    2.3210 ha        1 3O2      0.159000
     61 H14         1.5200    0.2500    2.1300 ha        1 3O2      0.156500
     62 H15         1.2230   -1.6150   -1.7890 ha        1 3O2      0.156500
     63 H16        -0.3150    0.0650   -1.9080 h1        1 3O2      0.050200
     64 H16A       -0.9520   -1.4840   -1.1510 h1        1 3O2      0.050200
     65 H17        -2.6300   -0.1320    0.1710 hc        1 3O2      0.080700
     66 H17A       -2.0020    1.3930   -0.5720 hc        1 3O2      0.080700
     67 H18        -3.2170   -1.0240   -2.1360 h1        1 3O2      0.080700
     68 H18A       -2.5900    0.5260   -2.8850 h1        1 3O2      0.080700
     69 H22        -7.4150   -1.0390    0.2030 ha        1 3O2      0.160000
     70 H23        -8.3290    2.9600   -1.2460 ha        1 3O2      0.160000
     71 H24       -10.6080    2.7900   -0.2480 ha        1 3O2      0.158000
     72 H25        -9.6800   -1.2000    1.1930 ha        1 3O2      0.158000
     73 N2          6.5290   -1.5810   -2.5500 n         1 3O2     -0.356400
     74 O5          5.6220    0.4780   -2.0450 o         1 3O2     -0.557100
@<TRIPOS>BOND
     1    1    5 1   
     2    1   13 1   
     3    1   16 1   
     4    1   18 1   
     5    2   41 1   
     6    3    6 1   
     7    3    9 1   
     8    3   21 1   
     9    4   23 1   
    10    4   24 1   
    11    5    8 2   
    12    5   12 2   
    13    5   25 1   
    14    6   16 1   
    15    6   42 1   
    16    6   43 1   
    17    7   41 1   
    18    9   13 1   
    19    9   45 1   
    20    9   46 1   
    21   10   41 1   
    22   11   14 1   
    23   11   19 1   
    24   11   33 1   
    25   13   47 1   
    26   13   48 1   
    27   14   17 2   
    28   15   26 1   
    29   15   31 1   
    30   16   49 1   
    31   16   50 1   
    32   17   34 1   
    33   18   73 1   
    34   18   74 2   
    35   19   34 2   
    36   20   51 1   
    37   20   73 1   
    38   21   23 1   
    39   21   52 1   
    40   21   53 1   
    41   22   36 1   
    42   22   41 1   
    43   23   54 1   
    44   23   55 1   
    45   24   56 1   
    46   24   57 1   
    47   24   58 1   
    48   25   27 ar  
    49   25   28 ar  
    50   26   29 ar  
    51   26   30 ar  
    52   27   30 ar  
    53   27   59 1   
    54   28   29 ar  
    55   28   60 1   
    56   29   61 1   
    57   30   62 1   
    58   31   32 1   
    59   31   63 1   
    60   31   64 1   
    61   32   33 1   
    62   32   65 1   
    63   32   66 1   
    64   33   67 1   
    65   33   68 1   
    66   34   35 1   
    67   35   37 ar  
    68   35   38 ar  
    69   36   39 ar  
    70   36   40 ar  
    71   37   40 ar  
    72   37   69 1   
    73   38   39 ar  
    74   38   70 1   
    75   39   71 1   
    76   40   72 1   
    77   44   73 1   
@<TRIPOS>SUBSTRUCTURE
     1 3O2         1 TEMP              0 ****  ****    0 ROOT
