@<TRIPOS>MOLECULE
3O2
   74    72     1     0     0
SMALL
bcc


@<TRIPOS>ATOM
      1 C1          1.3540   -2.9510    3.8350 c3        1 3O2     -0.696000
      2 F1         -7.7810    3.5400  -10.4100 f         1 3O2     -0.141000
      3 N1          3.1370   -3.9700    5.9750 n3        1 3O2     -0.244000
      4 O1          5.5120   -6.7750    5.9230 os        1 3O2     -0.277000
      5 S1          0.6850   -3.0260    2.1190 s4        1 3O2      2.045800
      6 C2          1.7120   -4.2500    6.0160 c3        1 3O2     -0.066000
      7 F2         -7.0010    5.2280  -11.5700 f         1 3O2     -0.141000
      8 N2         -0.8580   -1.8290    4.7560 n         1 3O2     -0.196000
      9 O2          1.4220   -3.9370    1.3260 o         1 3O2     -0.536400
     10 C3          3.4750   -2.7590    5.2440 c3        1 3O2     -0.066000
     11 F3         -5.6230    4.0130  -10.3820 f         1 3O2     -0.141000
     12 N3         -1.5030    4.6680   -4.0800 nc        1 3O2     -0.067000
     13 O3         -0.6060   -3.6160    2.0910 o         1 3O2     -0.536400
     14 C4          2.8540   -2.7140    3.8340 c3        1 3O2     -0.171000
     15 N4         -2.0760    5.7380   -3.5040 nc        1 3O2     -0.067000
     16 O4          0.6260    2.4170   -0.4500 os        1 3O2     -0.199000
     17 C5          1.0590   -4.2360    4.6170 c3        1 3O2     -0.171000
     18 N5         -3.1090    6.1070   -4.2580 nc        1 3O2     -0.077500
     19 O5          1.1630   -0.6440    4.6270 o         1 3O2     -0.315000
     20 C6          0.5700   -1.7100    4.4240 c2        1 3O2      0.262000
     21 N6         -2.2000    4.3760   -5.2080 nc        1 3O2     -0.077500
     22 O6         -1.4970   -0.8080    5.4700 oh        1 3O2     -0.239000
     23 C7          3.8510   -5.1120    5.3950 c3        1 3O2     -0.109000
     24 O7         -7.0720    5.4280   -9.3050 os        1 3O2     -0.249000
     25 C8          4.9740   -5.5400    6.3460 c3        1 3O2     -0.024000
     26 C9          6.7340   -6.6580    5.2430 c3        1 3O2     -0.075000
     27 C10         0.6650   -1.3940    1.3830 c1        1 3O2     -0.895000
     28 C11         0.6220    1.0820    0.0720 c2        1 3O2      0.160000
     29 C12         1.8520   -0.8410    0.8670 c2        1 3O2      0.034000
     30 C13        -0.5440   -0.7050    1.2420 c1        1 3O2      0.025000
     31 C14        -0.5690    0.5340    0.5870 c1        1 3O2     -0.178000
     32 C15         1.8230    0.3950    0.2140 c2        1 3O2     -0.238000
     33 C16         0.4980    2.4790   -1.8640 c3        1 3O2     -0.023000
     34 C17        -0.0180    3.8820   -2.2780 c3        1 3O2     -0.191000
     35 C18        -0.2690    3.9110   -3.8020 c2        1 3O2      0.012000
     36 C19        -3.1810    5.2520   -5.3210 c2        1 3O2     -0.086000
     37 C20        -4.1330    5.2820   -6.3330 c1        1 3O2     -0.031000
     38 C21        -6.0560    5.3480   -8.3270 c2        1 3O2      0.092000
     39 C22        -5.1990    4.3960   -6.3070 c1        1 3O2     -0.066000
     40 C23        -4.0270    6.2040   -7.3570 c1        1 3O2     -0.066000
     41 C24        -4.9890    6.2390   -8.3570 c1        1 3O2     -0.142000
     42 C25        -6.1580    4.4340   -7.3080 c2        1 3O2     -0.187000
     43 C26        -6.8650    4.5400  -10.4420 c3        1 3O2      0.540000
     44 H2          1.2800   -3.5870    6.5690 h1        1 3O2      0.104000
     45 H2A         1.5740   -5.1520    6.4270 h1        1 3O2      0.104000
     46 HN2        -1.3380   -2.6070    4.5110 hn        1 3O2      0.245000
     47 H3          3.1550   -1.9850    5.7530 h1        1 3O2      0.104000
     48 H3A         4.4580   -2.6990    5.1600 h1        1 3O2      0.104000
     49 H4          3.0360   -1.8330    3.4350 hc        1 3O2      0.108250
     50 H4A         3.2710   -3.3900    3.2930 hc        1 3O2      0.108250
     51 H5          1.3980   -5.0070    4.1000 hc        1 3O2      0.108250
     52 H5A         0.0740   -4.3290    4.7220 hc        1 3O2      0.108250
     53 HO6        -2.3240   -1.0790    5.7100 ho        1 3O2      0.233000
     54 H7          3.2330   -5.8510    5.2710 h1        1 3O2      0.080500
     55 H7A         4.2290   -4.8580    4.5370 h1        1 3O2      0.080500
     56 H8          4.6100   -5.6340    7.2660 h1        1 3O2      0.093500
     57 H8A         5.6810   -4.8580    6.3420 h1        1 3O2      0.093500
     58 H9          6.8890   -7.4620    4.7060 h1        1 3O2      0.071667
     59 H9A         6.7060   -5.8740    4.6560 h1        1 3O2      0.071667
     60 H9B         7.4550   -6.5540    5.8860 h1        1 3O2      0.071667
     61 H12         2.7000   -1.3220    0.9640 ha        1 3O2      0.155000
     62 H13        -1.3900   -1.0960    1.6070 ha        1 3O2      0.162000
     63 H14        -1.4080    1.0140    0.4870 ha        1 3O2      0.166000
     64 H15         2.6800    0.7920   -0.1580 ha        1 3O2      0.148000
     65 H16         1.3970    2.3120   -2.2920 h1        1 3O2      0.088500
     66 H16A       -0.1410    1.7930   -2.1650 h1        1 3O2      0.088500
     67 H17        -0.8730    4.0790   -1.7970 hc        1 3O2      0.120500
     68 H17A        0.6590    4.5660   -2.0410 hc        1 3O2      0.120500
     69 H18        -0.3630    3.0030   -4.1320 ha        1 3O2      0.119000
     70 H18A        0.4670    4.3330   -4.2380 ha        1 3O2      0.119000
     71 H22        -5.2730    3.7600   -5.6010 ha        1 3O2      0.156000
     72 H23        -3.2860    6.8220   -7.3780 ha        1 3O2      0.164000
     73 H24        -4.9210    6.8620   -9.0520 ha        1 3O2      0.162000
     74 H25        -6.8930    3.8220   -7.2890 ha        1 3O2      0.154000
@<TRIPOS>BOND
     1    1    5 1   
     2    1   14 1   
     3    1   17 1   
     4    1   20 1   
     5    2   43 1   
     6    3    6 1   
     7    3   10 1   
     8    3   23 1   
     9    4   25 1   
    10    4   26 1   
    11    5    9 1   
    12    5   13 1   
    13    6   17 1   
    14    6   44 1   
    15    6   45 1   
    16    7   43 1   
    17    8   20 1   
    18    8   22 1   
    19    8   46 1   
    20   10   14 1   
    21   10   47 1   
    22   10   48 1   
    23   11   43 1   
    24   12   15 1   
    25   12   21 1   
    26   14   49 1   
    27   14   50 1   
    28   15   18 1   
    29   16   28 1   
    30   16   33 1   
    31   17   51 1   
    32   17   52 1   
    33   18   36 1   
    34   19   20 1   
    35   21   36 1   
    36   22   53 1   
    37   23   25 1   
    38   23   54 1   
    39   23   55 1   
    40   24   38 1   
    41   24   43 1   
    42   25   56 1   
    43   25   57 1   
    44   26   58 1   
    45   26   59 1   
    46   26   60 1   
    47   27   29 1   
    48   27   30 1   
    49   28   31 1   
    50   28   32 1   
    51   29   32 1   
    52   29   61 1   
    53   30   62 1   
    54   31   63 1   
    55   32   64 1   
    56   33   34 1   
    57   33   65 1   
    58   33   66 1   
    59   34   35 1   
    60   34   67 1   
    61   34   68 1   
    62   35   69 1   
    63   35   70 1   
    64   36   37 1   
    65   37   40 1   
    66   38   41 1   
    67   38   42 1   
    68   39   42 1   
    69   39   71 1   
    70   40   72 1   
    71   41   73 1   
    72   42   74 1   
@<TRIPOS>SUBSTRUCTURE
     1 3O2         1 TEMP              0 ****  ****    0 ROOT
