@<TRIPOS>MOLECULE
3O2
   75    73     1     0     0
SMALL
bcc


@<TRIPOS>ATOM
      1 C1          0.4130   -0.2080    0.5890 c2        1 3O2     -0.276000
      2 F1        -17.6680    2.7320   -1.3420 f         1 3O2     -0.133667
      3 N1          2.0590   -2.6820    0.8420 n3        1 3O2     -0.285000
      4 O1          0.3190   -4.5530    4.6450 os        1 3O2     -0.165000
      5 S1         -1.0100    2.7530   -1.9000 s6        1 3O2      2.951000
      6 C2          1.0450   -3.4540    0.2600 c2        1 3O2     -0.073000
      7 F2        -16.9470    4.7470   -0.7810 f         1 3O2     -0.133667
      8 O2         -0.8380    3.6890   -0.9140 o         1 3O2     -0.892500
      9 C3          1.7240   -1.8610    1.9660 c3        1 3O2     -0.099000
     10 F3        -18.4100    3.6970    0.5070 f         1 3O2     -0.133667
     11 N3         -9.1810    2.1030   -2.8410 na        1 3O2     -0.152000
     12 O3         -0.0540    2.5150   -2.8400 o         1 3O2     -0.892500
     13 C4          0.9420   -0.6080    1.7600 c2        1 3O2     -0.019000
     14 N4         -8.7010    2.5180   -1.5770 n2        1 3O2      0.085000
     15 O4         -4.4460    1.0420   -5.1650 oh        1 3O2     -0.230000
     16 C5          0.9840   -3.8060   -1.0340 c2        1 3O2     -0.295000
     17 N5         -9.6610    2.7930   -0.8490 n2        1 3O2     -0.071000
     18 C6         -0.3700    1.0050    0.3880 c2        1 3O2      0.460000
     19 N6        -10.5690    2.1400   -2.8500 n2        1 3O2     -0.076000
     20 O6         -1.6670    2.7570    1.2130 oh        1 3O2     -0.217000
     21 C7         -0.8110   -2.6060    5.2300 c3        1 3O2     -0.292000
     22 O7        -16.3640    2.9560    0.5210 os        1 3O2     -0.269000
     23 C8          0.1060   -3.3020    4.2990 c1        1 3O2     -0.074000
     24 C9          1.2150   -5.3010    3.7940 c3        1 3O2     -0.078000
     25 C10        -3.6000    2.8410   -1.5210 ca        1 3O2     -0.004000
     26 C11        -4.1080    1.6350   -3.9740 ca        1 3O2      0.061000
     27 C12        -2.5150    2.4670   -2.3350 ca        1 3O2     -0.949000
     28 C13        -4.9140    2.6250   -1.9260 ca        1 3O2     -0.132000
     29 C14        -5.1890    2.0250   -3.1500 ca        1 3O2     -0.031000
     30 C15        -2.7920    1.8480   -3.5760 ca        1 3O2     -0.093000
     31 C16        -7.7380    1.5500   -6.1960 c3        1 3O2     -0.198000
     32 C17        -8.8020    1.2840   -5.1560 c3        1 3O2     -0.216000
     33 C18        -8.3360    1.7470   -3.8340 c1        1 3O2      0.004000
     34 C19       -10.9080    2.5680   -1.6250 c2        1 3O2     -0.029000
     35 C20       -12.2110    2.8100   -1.0480 c2        1 3O2     -0.158000
     36 C21       -15.0780    2.6880    0.0580 c2        1 3O2      0.194000
     37 C22       -13.3560    2.6350   -1.7370 c2        1 3O2     -0.016000
     38 C23       -14.4690    2.2690    2.4460 c1        1 3O2      0.313000
     39 C24       -14.2890    2.1370    1.1420 c2        1 3O2     -0.485000
     40 C25       -14.6770    2.8780   -1.2190 c2        1 3O2     -0.247000
     41 C26       -17.3390    3.5400   -0.3050 c3        1 3O2      0.544000
     42 H2          0.2150   -4.5020   -1.3890 ha        1 3O2      0.127000
     43 H2A         0.3050   -3.8360    0.9910 h4        1 3O2      0.139000
     44 HN2        -0.8790    0.1150    4.3220 ha        1 3O2      0.002500
     45 H3          1.1270   -2.4890    2.7320 h1        1 3O2      0.169500
     46 H3A        -0.7160    0.7720    4.3630 ha        1 3O2      0.002500
     47 H4          2.6950   -1.5700    2.4710 h1        1 3O2      0.169500
     48 H4A         0.8230   -0.0250    2.6930 ha        1 3O2      0.133000
     49 H5          1.6940   -3.4620   -1.7960 ha        1 3O2      0.127000
     50 H5A         0.5480   -0.7880   -0.3460 ha        1 3O2      0.197000
     51 HO6        -1.1770    3.6140    1.1430 ho        1 3O2      0.278000
     52 H7          2.6710   -2.2410    0.1850 hn        1 3O2      0.191000
     53 H7A        -0.2560   -1.7380    5.6710 hc        1 3O2      0.107667
     54 H8         -1.2080   -3.2390    6.0620 hc        1 3O2      0.107667
     55 H8A        -1.6720   -2.2090    4.6350 hc        1 3O2      0.107667
     56 H9          0.6690   -6.2480    3.5620 h1        1 3O2      0.105333
     57 H9A         1.4650   -4.7350    2.8650 h1        1 3O2      0.105333
     58 H9B         2.1270   -5.5020    4.4050 h1        1 3O2      0.105333
     59 H12        -3.3970    3.3180   -0.5430 ha        1 3O2      0.158000
     60 H13        -5.7510    2.9320   -1.2740 ha        1 3O2      0.177000
     61 H14        -6.2420    1.8520   -3.4880 ha        1 3O2      0.236000
     62 H15        -1.9540    1.5420   -4.2280 ha        1 3O2      0.165000
     63 H16        -3.6320    0.8390   -5.6530 ho        1 3O2      0.231000
     64 H16A       -6.7440    1.1670   -5.8560 hc        1 3O2      0.086333
     65 H17        -7.6460    2.6450   -6.3910 hc        1 3O2      0.086333
     66 H17A       -8.0120    1.0420   -7.1520 hc        1 3O2      0.086333
     67 H18        -9.7770    1.7320   -5.4930 hc        1 3O2      0.122000
     68 H18A       -8.9710    0.1710   -5.0630 hc        1 3O2      0.122000
     69 H22       -13.3370    2.3130   -2.7970 ha        1 3O2      0.151000
     70 H23       -12.2050    3.1800   -0.0070 ha        1 3O2      0.165000
     71 H24       -13.4330    1.5050    0.8090 ha        1 3O2      0.214000
     72 H25       -15.4020    3.2400   -1.9720 ha        1 3O2      0.163000
     73 N2         -0.7660    1.8120    1.4260 n3        1 3O2     -0.188000
     74 O5         -0.6340    1.3310   -0.8460 os        1 3O2     -0.631000
     75 H221       -0.8120    1.4260    2.3620 hn        1 3O2      0.284000
@<TRIPOS>BOND
     1    1   13 1   
     2    1   18 1   
     3    1   50 1   
     4    2   41 1   
     5    3    6 1   
     6    3    9 1   
     7    3   52 1   
     8    4   23 1   
     9    4   24 1   
    10    5    8 1   
    11    5   12 1   
    12    5   27 1   
    13    5   74 1   
    14    6   16 1   
    15    6   43 1   
    16    7   41 1   
    17    9   13 1   
    18    9   45 1   
    19    9   47 1   
    20   10   41 1   
    21   11   14 1   
    22   11   19 1   
    23   11   33 1   
    24   13   48 1   
    25   14   17 1   
    26   15   26 1   
    27   15   63 1   
    28   16   42 1   
    29   16   49 1   
    30   17   34 1   
    31   18   73 1   
    32   18   74 1   
    33   19   34 1   
    34   20   51 1   
    35   20   73 1   
    36   21   23 1   
    37   21   53 1   
    38   21   54 1   
    39   21   55 1   
    40   22   36 1   
    41   22   41 1   
    42   24   56 1   
    43   24   57 1   
    44   24   58 1   
    45   25   27 1   
    46   25   28 1   
    47   25   59 1   
    48   26   29 1   
    49   26   30 1   
    50   27   30 1   
    51   28   29 1   
    52   28   60 1   
    53   29   61 1   
    54   30   62 1   
    55   31   32 1   
    56   31   64 1   
    57   31   65 1   
    58   31   66 1   
    59   32   33 1   
    60   32   67 1   
    61   32   68 1   
    62   34   35 1   
    63   35   37 1   
    64   35   70 1   
    65   36   39 1   
    66   36   40 1   
    67   37   40 1   
    68   37   69 1   
    69   38   39 1   
    70   39   71 1   
    71   40   72 1   
    72   44   46 1   
    73   73   75 1   
@<TRIPOS>SUBSTRUCTURE
     1 3O2         1 TEMP              0 ****  ****    0 ROOT
