@<TRIPOS>MOLECULE
3O2
   75    72     1     0     0
SMALL
bcc


@<TRIPOS>ATOM
      1 C1         -3.6490    0.6780    0.4800 c3        1 3O2     -0.804000
      2 F1        -16.9030    3.1250   -2.3810 f         1 3O2     -0.138000
      3 N1          1.5200    0.5470    1.2090 n2        1 3O2     -0.344000
      4 O1          1.2990   -1.8470    2.9930 os        1 3O2     -0.105000
      5 S1         -2.0930   -0.0130    0.1010 s6        1 3O2      2.796000
      6 C2         -2.4050   -2.5950    5.2370 c1        1 3O2     -0.232000
      7 F2        -16.3040    5.2430   -2.5560 f         1 3O2     -0.138000
      8 O2         -1.1280    0.8860   -0.3400 o         1 3O2     -0.942500
      9 C3          2.6710    0.7700    0.7160 c2        1 3O2     -0.064000
     10 F3        -17.8220    4.6450   -1.0580 f         1 3O2     -0.138000
     11 N3         -8.4280    1.8890   -2.1080 na        1 3O2     -0.150000
     12 O3         -1.6920   -0.7480    1.2530 o         1 3O2     -0.942500
     13 C4         -3.2730    1.7250    1.4070 c1        1 3O2     -0.045000
     14 N4         -8.3700    2.0010   -0.6960 n2        1 3O2      0.092000
     15 O4          0.0360   -4.5560    0.0560 o         1 3O2     -0.319000
     16 C5         -2.3410   -2.1670    4.1220 c1        1 3O2     -0.232000
     17 N5         -9.4740    2.3530   -0.2730 n2        1 3O2     -0.060000
     18 C6         -4.6510    1.0950   -0.6110 c3        1 3O2      0.078000
     19 N6         -9.7050    2.2100   -2.5520 n2        1 3O2     -0.063000
     20 O6         -4.4600    2.8000   -2.1910 oh        1 3O2     -0.221000
     21 C7          1.1950    0.0800    4.3510 c3        1 3O2     -0.279000
     22 O7        -15.7490    4.0910   -0.6550 os        1 3O2     -0.206000
     23 C8          0.6280   -0.7750    3.2970 c2        1 3O2      0.300000
     24 C9          0.7820   -2.7490    1.9700 c3        1 3O2     -0.084000
     25 C10        -2.5060   -1.2040   -1.1350 c3        1 3O2     -0.596000
     26 C11        -0.4260   -4.4590   -1.0860 c2        1 3O2      0.224000
     27 C12        -2.1490   -0.7400   -2.4380 c1        1 3O2     -0.205000
     28 C13        -1.8710   -2.5010   -0.7720 c2        1 3O2     -0.099000
     29 C14        -1.0810   -3.2300   -1.5670 c2        1 3O2     -0.222000
     30 C15        -1.8630   -0.3680   -3.5380 c1        1 3O2     -0.119000
     31 C16        -6.0060    1.0910   -4.8320 c3        1 3O2     -0.201000
     32 C17        -7.3880    1.3970   -4.3030 c3        1 3O2     -0.217000
     33 C18        -7.3530    1.5220   -2.8330 c1        1 3O2     -0.036000
     34 C19       -10.3890    2.5060   -1.4380 c2        1 3O2     -0.023000
     35 C20       -11.7730    2.9120   -1.2830 c2        1 3O2     -0.081000
     36 C21       -14.4530    3.7000   -0.9440 c2        1 3O2      0.016000
     37 C22       -12.5930    3.0560   -2.3600 c2        1 3O2     -0.063000
     38 C23       -12.2740    3.1690    0.0910 c3        1 3O2     -0.202000
     39 C24       -13.6580    3.5740    0.2570 c1        1 3O2      0.008000
     40 C25       -13.9630    3.4590   -2.1960 c2        1 3O2     -0.139000
     41 C26       -16.6850    4.2710   -1.6880 c3        1 3O2      0.529000
     42 H2         -2.4670   -2.9770    6.2270 ha        1 3O2      0.231500
     43 H2A        -6.1790    0.2010   -1.4330 ho        1 3O2      0.251000
     44 HN2        -5.3440    1.8810   -0.1820 h2        1 3O2      0.127000
     45 H3          0.7410    0.9870    0.7590 hn        1 3O2      0.184000
     46 H3A        -3.9390    2.5720    1.5960 ha        1 3O2      0.106000
     47 H4          2.8980    1.4040   -0.1650 h4        1 3O2      0.120500
     48 H4A         3.5560    0.2990    1.1880 h4        1 3O2      0.120500
     49 H5         -4.2180   -0.0740    1.1290 h1        1 3O2      0.238000
     50 H5A        -2.3150   -1.7960    3.1240 ha        1 3O2      0.231500
     51 HO6        -5.3700    2.6540   -2.5400 ho        1 3O2      0.188000
     52 H7         -0.3550   -0.5440    2.8170 h4        1 3O2      0.234000
     53 H7A         1.3090    1.1230    3.9480 hc        1 3O2      0.158333
     54 H8          2.1880   -0.2820    4.7190 hc        1 3O2      0.158333
     55 H8A         0.4720    0.1190    5.2110 hc        1 3O2      0.158333
     56 H9          1.4820   -2.6470    1.1050 h1        1 3O2      0.143000
     57 H9A        -0.2680   -2.4900    1.6870 h1        1 3O2      0.143000
     58 H9B         0.8540   -3.7640    2.4370 h1        1 3O2      0.143000
     59 H12        -3.6320   -1.3870   -1.1400 h1        1 3O2      0.205000
     60 H13        -2.0990   -2.8460    0.2560 ha        1 3O2      0.153000
     61 H14        -0.8680   -2.9510   -2.6130 ha        1 3O2      0.163000
     62 H15        -0.3520   -5.2900   -1.8230 h4        1 3O2      0.123000
     63 H16        -6.0490    0.9470   -5.9390 hc        1 3O2      0.084667
     64 H16A       -1.5980   -0.0120   -4.5050 ha        1 3O2      0.242000
     65 H17        -5.6020    0.1600   -4.3650 hc        1 3O2      0.084667
     66 H17A       -5.3020    1.9310   -4.6110 hc        1 3O2      0.084667
     67 H18        -8.0980    0.5710   -4.5970 hc        1 3O2      0.132000
     68 H18A       -7.7800    2.3360   -4.7890 hc        1 3O2      0.132000
     69 H22       -12.2460    2.8730   -3.3910 ha        1 3O2      0.161000
     70 H23       -12.1360    2.2480    0.7400 hc        1 3O2      0.189500
     71 H24       -11.6500    3.9750    0.5940 hc        1 3O2      0.189500
     72 H25       -14.5790    3.5590   -3.1060 ha        1 3O2      0.166000
     73 N2         -3.9330    1.6600   -1.7800 n3        1 3O2     -0.167000
     74 O5         -5.3920   -0.0780   -0.9330 oh        1 3O2     -0.374000
     75 H221       -3.9350    0.9630   -2.5280 hn        1 3O2      0.161000
@<TRIPOS>BOND
     1    1    5 1   
     2    1   13 1   
     3    1   18 1   
     4    1   49 1   
     5    2   41 1   
     6    3    9 1   
     7    3   45 1   
     8    4   23 1   
     9    4   24 1   
    10    5    8 1   
    11    5   12 1   
    12    5   25 1   
    13    6   16 1   
    14    6   42 1   
    15    7   41 1   
    16    9   47 1   
    17    9   48 1   
    18   10   41 1   
    19   11   14 1   
    20   11   19 1   
    21   11   33 1   
    22   13   46 1   
    23   14   17 1   
    24   15   26 1   
    25   16   50 1   
    26   17   34 1   
    27   18   44 1   
    28   18   73 1   
    29   18   74 1   
    30   19   34 1   
    31   20   51 1   
    32   20   73 1   
    33   21   23 1   
    34   21   53 1   
    35   21   54 1   
    36   21   55 1   
    37   22   36 1   
    38   22   41 1   
    39   23   52 1   
    40   24   56 1   
    41   24   57 1   
    42   24   58 1   
    43   25   27 1   
    44   25   28 1   
    45   25   59 1   
    46   26   29 1   
    47   26   62 1   
    48   27   30 1   
    49   28   29 1   
    50   28   60 1   
    51   29   61 1   
    52   30   64 1   
    53   31   32 1   
    54   31   63 1   
    55   31   65 1   
    56   31   66 1   
    57   32   33 1   
    58   32   67 1   
    59   32   68 1   
    60   34   35 1   
    61   35   37 1   
    62   35   38 1   
    63   36   39 1   
    64   36   40 1   
    65   37   40 1   
    66   37   69 1   
    67   38   39 1   
    68   38   70 1   
    69   38   71 1   
    70   40   72 1   
    71   43   74 1   
    72   73   75 1   
@<TRIPOS>SUBSTRUCTURE
     1 3O2         1 TEMP              0 ****  ****    0 ROOT
