@<TRIPOS>MOLECULE
3O2
   75    73     1     0     0
SMALL
bcc


@<TRIPOS>ATOM
      1 C1         -0.8390    0.4350    0.4650 c3        1 3O2     -0.781000
      2 F1        -17.3250    3.0060   -2.7280 f         1 3O2     -0.139333
      3 N1          1.1580   -0.6250   -1.4560 n8        1 3O2     -0.385000
      4 O1          1.3840   -1.2500    3.7690 os        1 3O2     -0.138000
      5 S1         -2.1150    0.8320   -0.7570 s6        1 3O2      2.727000
      6 C2         -2.1660   -1.7820    4.6280 c1        1 3O2     -0.221000
      7 F2        -16.5980    5.0670   -3.0360 f         1 3O2     -0.139333
      8 O2         -2.6230    2.0580   -0.2910 o         1 3O2     -0.909500
      9 C3          1.3520    0.6780   -0.8690 c3        1 3O2     -0.127000
     10 F3        -18.0350    4.6350   -1.4090 f         1 3O2     -0.139333
     11 N3         -8.9530    1.1970   -3.0240 na        1 3O2     -0.158000
     12 O3         -1.4650    0.8210   -1.9920 o         1 3O2     -0.909500
     13 C4          0.4090    1.1140    0.1430 c1        1 3O2     -0.094000
     14 N4         -8.7860    1.3370   -1.6290 n2        1 3O2      0.108000
     15 O4         -2.5720   -4.7870   -2.1870 oh        1 3O2     -0.190000
     16 C5         -3.3060   -1.6930    4.9790 c1        1 3O2     -0.221000
     17 N5         -9.8320    1.7770   -1.1380 n2        1 3O2     -0.076000
     18 C6         -1.1750    0.8130    1.9190 c3        1 3O2     -0.040000
     19 N6        -10.2320    1.5960   -3.3870 n2        1 3O2     -0.064000
     20 O6         -1.2020    2.7480    3.3370 oh        1 3O2     -0.229000
     21 C7          1.0300    0.7650    4.8870 c3        1 3O2     -0.290000
     22 O7        -15.9810    3.9530   -1.1320 os        1 3O2     -0.208000
     23 C8          0.6740   -0.1490    3.7880 c1        1 3O2     -0.061000
     24 C9          1.0800   -2.2130    2.7330 c3        1 3O2     -0.086000
     25 C10        -3.2470   -0.4690   -0.5510 c3        1 3O2     -0.528000
     26 C11        -1.9060   -3.6570   -2.2390 c1        1 3O2      0.024000
     27 C12        -4.3520   -0.1760   -1.4120 c1        1 3O2     -0.302000
     28 C13        -2.6440   -1.8080   -0.7760 c2        1 3O2     -0.204000
     29 C14        -2.6580   -2.4480   -1.9530 c2        1 3O2     -0.143000
     30 C15        -5.3150    0.0330   -2.0950 c1        1 3O2     -0.059000
     31 C16        -6.9090   -0.0700   -5.8800 c3        1 3O2     -0.195000
     32 C17        -8.1250    0.5930   -5.2790 c3        1 3O2     -0.223000
     33 C18        -7.9580    0.7330   -3.8180 c1        1 3O2      0.022000
     34 C19       -10.8120    1.9660   -2.2350 c2        1 3O2     -0.039000
     35 C20       -12.1520    2.4730   -2.0000 c2        1 3O2     -0.066000
     36 C21       -14.7380    3.4590   -1.4980 c2        1 3O2      0.007000
     37 C22       -13.0390    2.6330   -3.0190 c2        1 3O2     -0.076000
     38 C23       -12.5290    2.8130   -0.6040 c3        1 3O2     -0.201000
     39 C24       -13.8650    3.3230   -0.3560 c1        1 3O2     -0.001000
     40 C25       -14.3620    3.1360   -2.7720 c2        1 3O2     -0.129000
     41 C26       -16.9760    4.1580   -2.1020 c3        1 3O2      0.529000
     42 H2         -2.4940   -0.0140    3.0710 ho        1 3O2      0.251000
     43 H2A        -1.1510   -1.8910    4.3350 ha        1 3O2      0.224000
     44 HN2        -0.1400    2.6160    1.7220 hn        1 3O2      0.292000
     45 H3          1.9790   -0.9280   -1.9400 hn        1 3O2      0.172500
     46 H3A        -0.3630    0.3300    2.7100 hx        1 3O2      0.283000
     47 H4          1.3390    1.5350   -1.6290 h1        1 3O2      0.153000
     48 H4A         2.3770    0.7230   -0.3810 h1        1 3O2      0.153000
     49 H5         -0.7210   -0.6890    0.4600 h1        1 3O2      0.189000
     50 H5A        -4.3190   -1.6240    5.2950 ha        1 3O2      0.224000
     51 HO6        -2.0690    2.4340    3.6790 ho        1 3O2      0.257000
     52 H7          0.3780   -0.6310   -2.0860 hn        1 3O2      0.172500
     53 H7A         0.8980    1.8190    4.5330 hc        1 3O2      0.129667
     54 H8          0.3160    0.5880    5.7350 hc        1 3O2      0.129667
     55 H8A         2.0700    0.6280    5.2780 hc        1 3O2      0.129667
     56 H9          0.7810   -3.1450    3.2750 h1        1 3O2      0.113333
     57 H9A         0.2670   -1.8510    2.0620 h1        1 3O2      0.113333
     58 H9B         2.0370   -2.3590    2.1750 h1        1 3O2      0.113333
     59 H12        -3.6420   -0.4560    0.5170 h1        1 3O2      0.192000
     60 H13        -2.2200   -2.2820    0.1240 ha        1 3O2      0.130000
     61 H14        -3.1170   -1.9900   -2.8540 ha        1 3O2      0.173000
     62 H15        -6.1750    0.2510   -2.7100 ha        1 3O2      0.286000
     63 H16        -1.9590   -5.5040   -2.4460 ho        1 3O2      0.270000
     64 H16A       -7.0260   -0.1400   -6.9890 hc        1 3O2      0.083667
     65 H17        -5.9870    0.5180   -5.6540 hc        1 3O2      0.083667
     66 H17A       -6.7790   -1.1010   -5.4700 hc        1 3O2      0.083667
     67 H18        -9.0460   -0.0030   -5.5360 hc        1 3O2      0.125500
     68 H18A       -8.2680    1.6120   -5.7410 hc        1 3O2      0.125500
     69 H22       -12.7840    2.3870   -4.0630 ha        1 3O2      0.161000
     70 H23       -12.4090    1.9060    0.0670 hc        1 3O2      0.189000
     71 H24       -11.8130    3.5860   -0.1810 hc        1 3O2      0.189000
     72 H25       -15.0380    3.2450   -3.6370 ha        1 3O2      0.164000
     73 N2         -1.0950    2.3420    2.0550 ny        1 3O2      0.047000
     74 O5         -2.4970    0.4470    2.2150 oh        1 3O2     -0.340000
     75 H221       -1.8190    2.8060    1.4640 hn        1 3O2      0.292000
@<TRIPOS>BOND
     1    1    5 1   
     2    1   13 1   
     3    1   18 1   
     4    1   49 1   
     5    2   41 1   
     6    3    9 1   
     7    3   45 1   
     8    3   52 1   
     9    4   23 1   
    10    4   24 1   
    11    5    8 1   
    12    5   12 1   
    13    5   25 1   
    14    6   16 1   
    15    6   43 1   
    16    7   41 1   
    17    9   13 1   
    18    9   47 1   
    19    9   48 1   
    20   10   41 1   
    21   11   14 1   
    22   11   19 1   
    23   11   33 1   
    24   14   17 1   
    25   15   26 1   
    26   15   63 1   
    27   16   50 1   
    28   17   34 1   
    29   18   46 1   
    30   18   73 1   
    31   18   74 1   
    32   19   34 1   
    33   20   51 1   
    34   20   73 1   
    35   21   23 1   
    36   21   53 1   
    37   21   54 1   
    38   21   55 1   
    39   22   36 1   
    40   22   41 1   
    41   24   56 1   
    42   24   57 1   
    43   24   58 1   
    44   25   27 1   
    45   25   28 1   
    46   25   59 1   
    47   26   29 1   
    48   27   30 1   
    49   28   29 1   
    50   28   60 1   
    51   29   61 1   
    52   30   62 1   
    53   31   32 1   
    54   31   64 1   
    55   31   65 1   
    56   31   66 1   
    57   32   33 1   
    58   32   67 1   
    59   32   68 1   
    60   34   35 1   
    61   35   37 1   
    62   35   38 1   
    63   36   39 1   
    64   36   40 1   
    65   37   40 1   
    66   37   69 1   
    67   38   39 1   
    68   38   70 1   
    69   38   71 1   
    70   40   72 1   
    71   42   74 1   
    72   44   73 1   
    73   73   75 1   
@<TRIPOS>SUBSTRUCTURE
     1 3O2         1 TEMP              0 ****  ****    0 ROOT
