@<TRIPOS>MOLECULE
3O3
   30    29     1     0     0
SMALL
bcc


@<TRIPOS>ATOM
      1 N2         -3.4580    0.9640   -1.7660 n3        1 3O3     -0.909800
      2 N3          0.1910   -0.2500    0.3450 n3        1 3O3     -0.806200
      3 O3         -5.1960    1.5790    0.3750 o         1 3O3     -0.866300
      4 C4         -3.5230    0.0890   -0.6030 c3        1 3O3      0.039500
      5 OXT        -5.3500   -0.5890    0.8490 o         1 3O3     -0.866300
      6 C5         -4.7790    0.3840    0.2780 c         1 3O3      0.906600
      7 C6         -2.2810    0.1110    0.3010 c3        1 3O3     -0.090400
      8 C7         -1.0450   -0.4770   -0.3890 c3        1 3O3      0.162800
      9 O7          4.9660    2.2360   -0.8930 o         1 3O3     -0.889800
     10 C8          1.3630   -0.8470   -0.2990 c3        1 3O3      0.051500
     11 O8          4.6750    1.8230    1.2620 o         1 3O3     -0.889800
     12 C9          2.6820   -0.2230    0.1920 c3        1 3O3     -0.035400
     13 C10         2.8770    1.2060   -0.2580 c3        1 3O3     -0.169400
     14 C11         1.4700   -2.3920   -0.1150 c         1 3O3      0.886600
     15 C12         4.2630    1.7720    0.0620 c         1 3O3      0.900600
     16 HN2        -4.0200    1.7800   -1.5870 hn        1 3O3      0.329800
     17 HNXT       -2.5140    1.2780   -1.9020 hn        1 3O3      0.329800
     18 HN3         0.1060   -0.6500    1.2650 hn        1 3O3      0.353800
     19 H4         -3.6360   -0.9610   -1.0040 h1        1 3O3      0.044700
     20 H6         -2.0790    1.1620    0.6320 hc        1 3O3      0.041700
     21 H6A        -2.5160   -0.4920    1.2160 hc        1 3O3      0.041700
     22 H7         -0.9160    0.0040   -1.4000 h1        1 3O3      0.016700
     23 H7A        -1.2380   -1.5750   -0.5750 h1        1 3O3      0.016700
     24 H8          1.2880   -0.6500   -1.4090 h1        1 3O3      0.033700
     25 H9          2.7420   -0.2750    1.3100 hc        1 3O3      0.036700
     26 H9A         3.5120   -0.8580   -0.2180 hc        1 3O3      0.036700
     27 H10         2.7120    1.2770   -1.3640 hc        1 3O3      0.020700
     28 H10A        2.1180    1.8610    0.2410 hc        1 3O3      0.020700
     29 O5          1.9000   -3.0820   -1.0890 o         1 3O3     -0.872800
     30 O6          1.1230   -2.9120    0.9870 o         1 3O3     -0.872800
@<TRIPOS>BOND
     1    1    4 1   
     2    1   16 1   
     3    1   17 1   
     4    2    8 1   
     5    2   10 1   
     6    2   18 1   
     7    3    6 1   
     8    4    6 1   
     9    4    7 1   
    10    4   19 1   
    11    5    6 1   
    12    7    8 1   
    13    7   20 1   
    14    7   21 1   
    15    8   22 1   
    16    8   23 1   
    17    9   15 1   
    18   10   12 1   
    19   10   14 1   
    20   10   24 1   
    21   11   15 1   
    22   12   13 1   
    23   12   25 1   
    24   12   26 1   
    25   13   15 1   
    26   13   27 1   
    27   13   28 1   
    28   14   29 1   
    29   14   30 1   
@<TRIPOS>SUBSTRUCTURE
     1 3O3         1 TEMP              0 ****  ****    0 ROOT
