@<TRIPOS>MOLECULE
3O3
   30    29     1     0     0
SMALL
bcc


@<TRIPOS>ATOM
      1 N2         -3.1940   -2.1890    2.3110 n3        1 3O3     -0.908800
      2 N3         -0.3970    0.2250   -0.4640 n3        1 3O3     -0.818200
      3 O3         -2.8160    0.0230    4.0820 o         1 3O3     -0.866800
      4 C4         -1.9620   -1.4860    2.4180 c3        1 3O3      0.041500
      5 OXT        -0.9360   -0.9850    4.5330 o         1 3O3     -0.866800
      6 C5         -1.9010   -0.7770    3.7520 c         1 3O3      0.912600
      7 O5          0.2060    3.0190   -0.8960 o         1 3O3     -0.872300
      8 C6         -1.8620   -0.4710    1.3030 c3        1 3O3     -0.097400
      9 O6          1.7780    2.5780    0.5500 o         1 3O3     -0.872300
     10 C7         -0.4310   -0.3930    0.8180 c3        1 3O3      0.166800
     11 O7          3.5430   -0.4460   -4.2410 o         1 3O3     -0.889300
     12 C8          0.9090    0.7280   -0.7130 c3        1 3O3      0.058500
     13 O8          2.8310    1.5640   -4.6960 o         1 3O3     -0.889300
     14 C9          1.2360    0.5770   -2.1820 c3        1 3O3     -0.080400
     15 C10         2.7060    0.8560   -2.4020 c3        1 3O3     -0.166400
     16 C11         0.9670    2.1900   -0.3310 c         1 3O3      0.928600
     17 C12         3.0460    0.6460   -3.8620 c         1 3O3      0.900600
     18 HN2        -3.0350   -3.0370    2.0040 hn        1 3O3      0.331800
     19 HNXT       -3.7450   -1.7510    1.7260 hn        1 3O3      0.331800
     20 HN3        -0.6140   -0.3900   -1.1050 hn        1 3O3      0.354800
     21 H4         -1.2190   -2.1180    2.3510 h1        1 3O3      0.042700
     22 H6         -2.4420   -0.7410    0.5630 hc        1 3O3      0.040700
     23 H6A        -2.1420    0.4060    1.6340 hc        1 3O3      0.040700
     24 H7          0.0990    0.1360    1.4500 h1        1 3O3      0.010200
     25 H7A        -0.0580   -1.2970    0.7550 h1        1 3O3      0.010200
     26 H8          1.5580    0.2260   -0.1820 h1        1 3O3      0.035700
     27 H9          0.7020    1.2110   -2.7010 hc        1 3O3      0.034200
     28 H9A         1.0300   -0.3350   -2.4690 hc        1 3O3      0.034200
     29 H10         3.2400    0.2480   -1.8530 hc        1 3O3      0.026700
     30 H10A        2.9040    1.7810   -2.1520 hc        1 3O3      0.026700
@<TRIPOS>BOND
     1    1    4 1   
     2    1   18 1   
     3    1   19 1   
     4    2   10 1   
     5    2   12 1   
     6    2   20 1   
     7    3    6 1   
     8    4    6 1   
     9    4    8 1   
    10    4   21 1   
    11    5    6 1   
    12    7   16 1   
    13    8   10 1   
    14    8   22 1   
    15    8   23 1   
    16    9   16 1   
    17   10   24 1   
    18   10   25 1   
    19   11   17 1   
    20   12   14 1   
    21   12   16 1   
    22   12   26 1   
    23   13   17 1   
    24   14   15 1   
    25   14   27 1   
    26   14   28 1   
    27   15   17 1   
    28   15   29 1   
    29   15   30 1   
@<TRIPOS>SUBSTRUCTURE
     1 3O3         1 TEMP              0 ****  ****    0 ROOT
