@<TRIPOS>MOLECULE
3O4
   52    55     1     0     0
SMALL
bcc


@<TRIPOS>ATOM
      1 O23         0.4150    0.3920   -0.5960 o         1 3O4     -0.582100
      2 C22         1.6000    0.5140   -0.2390 c         1 3O4      0.666100
      3 N24         1.9990    0.5110    1.0930 n         1 3O4     -0.475100
      4 C25         1.1930    0.3790    2.2320 ca        1 3O4      0.087600
      5 C26         1.8220    0.3800    3.5040 ca        1 3O4     -0.182000
      6 C19         2.7070    0.6770   -1.2570 c3        1 3O4     -0.179100
      7 C17        -0.9500    0.1250    3.3520 ca        1 3O4     -0.068500
      8 C16        -0.3220    0.1160    4.6020 cp        1 3O4     -0.191500
      9 C12        -1.0970   -0.0360    5.8450 cp        1 3O4      0.540800
     10 C11        -0.5630   -0.8110    6.9010 ca        1 3O4     -0.410600
     11 C10        -1.3360   -0.9130    8.0680 ca        1 3O4      0.458200
     12 N15        -2.5350   -0.3310    8.2200 nb        1 3O4     -0.731000
     13 C14        -2.9990    0.3960    7.1320 ca        1 3O4      0.863900
     14 N13        -2.3000    0.5760    5.9440 nb        1 3O4     -0.747000
     15 N7         -4.3000    0.9510    7.1710 nh        1 3O4     -0.695300
     16 C1         -4.9250    1.2580    8.4060 ca        1 3O4      0.095600
     17 C2         -5.3070    2.5870    8.6950 ca        1 3O4     -0.109500
     18 C3         -5.9970    2.8930    9.8580 ca        1 3O4     -0.156500
     19 C4         -6.3320    1.8870   10.7940 ca        1 3O4      0.124600
     20 C5         -5.9500    0.5620   10.4960 ca        1 3O4     -0.156500
     21 C6         -5.2610    0.2520    9.3290 ca        1 3O4     -0.109500
     22 C90        -0.2110    0.2500    2.1800 ca        1 3O4     -0.182000
     23 N8         -6.9550    2.2530   12.0160 nh        1 3O4     -0.629000
     24 C13         1.0720    0.2490    4.6630 ca        1 3O4     -0.068500
     25 C9         -8.2000    3.0000   11.8750 c3        1 3O4      0.147800
     26 C31        -8.7300    3.4910   13.2280 c3        1 3O4      0.123900
     27 O30        -8.8380    2.4300   14.1690 os        1 3O4     -0.414600
     28 C29        -7.6020    1.7490   14.3520 c3        1 3O4      0.123900
     29 C28        -7.0500    1.2100   13.0260 c3        1 3O4      0.147800
     30 H24         2.9740    0.6120    1.2690 hn        1 3O4      0.315500
     31 H191        2.2540    0.6620   -2.2780 hc        1 3O4      0.069700
     32 H192        3.4430   -0.1580   -1.1750 hc        1 3O4      0.069700
     33 H193        3.2360    1.6490   -1.1100 hc        1 3O4      0.069700
     34 H26         2.9140    0.4870    3.5860 ha        1 3O4      0.153500
     35 H90        -0.7410    0.2480    1.2120 ha        1 3O4      0.153500
     36 H13         1.5800    0.2610    5.6390 ha        1 3O4      0.145000
     37 H17        -2.0460    0.0320    3.2850 ha        1 3O4      0.145000
     38 H11         0.4050   -1.3140    6.8080 ha        1 3O4      0.155000
     39 H10        -0.9800   -1.4950    8.9390 h4        1 3O4      0.026100
     40 H2         -5.0610    3.4010    7.9950 ha        1 3O4      0.143000
     41 H6         -4.9860   -0.7970    9.1370 ha        1 3O4      0.143000
     42 H3         -6.2630    3.9440   10.0500 ha        1 3O4      0.136000
     43 H5         -6.1910   -0.2620   11.1850 ha        1 3O4      0.136000
     44 H281       -6.0170    0.8030   13.2080 h1        1 3O4      0.047700
     45 H282       -7.7130    0.3620   12.6870 h1        1 3O4      0.047700
     46 H91C       -8.0130    3.8950   11.2210 h1        1 3O4      0.047700
     47 H92C       -8.9980    2.3690   11.3860 h1        1 3O4      0.047700
     48 H291       -7.8500    0.8970   15.0380 h1        1 3O4      0.055950
     49 H292       -6.8630    2.4370   14.8410 h1        1 3O4      0.055950
     50 H311       -9.7790    3.8710   13.1130 h1        1 3O4      0.055950
     51 H312       -8.0700    4.2970   13.6450 h1        1 3O4      0.055950
     52 H7         -4.4710    1.6330    6.4570 hn        1 3O4      0.432800
@<TRIPOS>BOND
     1    1    2 2   
     2    2    3 1   
     3    2    6 1   
     4    3    4 1   
     5    3   30 1   
     6    4    5 ar  
     7    4   22 ar  
     8    5   24 ar  
     9    5   34 1   
    10    6   31 1   
    11    6   32 1   
    12    6   33 1   
    13    7    8 ar  
    14    7   22 ar  
    15    7   37 1   
    16    8    9 1   
    17    8   24 ar  
    18    9   10 ar  
    19    9   14 ar  
    20   10   11 ar  
    21   10   38 1   
    22   11   12 ar  
    23   11   39 1   
    24   12   13 ar  
    25   13   14 ar  
    26   13   15 1   
    27   15   16 1   
    28   15   52 1   
    29   16   17 ar  
    30   16   21 ar  
    31   17   18 ar  
    32   17   40 1   
    33   18   19 ar  
    34   18   42 1   
    35   19   20 ar  
    36   19   23 1   
    37   20   21 ar  
    38   20   43 1   
    39   21   41 1   
    40   22   35 1   
    41   23   25 1   
    42   23   29 1   
    43   24   36 1   
    44   25   26 1   
    45   25   46 1   
    46   25   47 1   
    47   26   27 1   
    48   26   50 1   
    49   26   51 1   
    50   27   28 1   
    51   28   29 1   
    52   28   48 1   
    53   28   49 1   
    54   29   44 1   
    55   29   45 1   
@<TRIPOS>SUBSTRUCTURE
     1 3O4         1 TEMP              0 ****  ****    0 ROOT
