@<TRIPOS>MOLECULE
3O4
   52    48     1     0     0
SMALL
bcc


@<TRIPOS>ATOM
      1 O23         4.6870    0.9940   -6.7050 o         1 3O4     -0.343000
      2 C22         4.7380   -0.0330   -7.3720 c1        1 3O4      0.310000
      3 N24         4.1840   -1.2140   -6.8750 n2        1 3O4     -0.329000
      4 C25         3.5460   -1.2170   -5.5560 c2        1 3O4      0.095000
      5 C26         2.3010   -1.7850   -5.3930 c1        1 3O4     -0.196000
      6 C19         5.4000   -0.0140   -8.7730 c3        1 3O4     -0.247000
      7 C17         3.5510   -0.5510   -3.2550 c1        1 3O4     -0.058000
      8 C16         2.3090   -1.1170   -3.0920 c1        1 3O4     -0.084000
      9 C12         1.6460   -1.1100   -1.7290 c2        1 3O4      0.105000
     10 C11         1.5950   -2.2690   -0.9800 c1        1 3O4     -0.280000
     11 C10         0.8940   -2.2980    0.1650 c1        1 3O4     -0.007000
     12 N15         0.2410   -1.1960    0.5830 n1        1 3O4     -0.205000
     13 C14         0.2900   -0.0570   -0.1530 c1        1 3O4      0.145000
     14 N13         1.0010   -0.0270   -1.3150 n2        1 3O4     -0.221000
     15 N7         -0.3680    1.1530    0.3280 n3        1 3O4     -0.216000
     16 C1         -1.2220    1.0930    1.4400 c2        1 3O4      0.014000
     17 C2         -0.7780    1.5230    2.6760 c2        1 3O4     -0.078000
     18 C3         -1.6240    1.4860    3.7580 c1        1 3O4     -0.171000
     19 C4         -2.9480    1.0070    3.6030 c1        1 3O4      0.043000
     20 C5         -3.3750    0.5880    2.3900 c1        1 3O4     -0.142000
     21 C6         -2.5160    0.6270    1.2920 c1        1 3O4     -0.141000
     22 C90         4.1730   -0.5970   -4.4770 c2        1 3O4     -0.168000
     23 N8         -3.8200    0.9120    4.7340 n3        1 3O4     -0.231000
     24 C13         1.6810   -1.7380   -4.1700 c1        1 3O4     -0.079000
     25 C9         -3.4110   -0.1610    5.5630 c3        1 3O4     -0.089000
     26 C31        -4.2130   -0.2390    6.8510 c3        1 3O4     -0.026500
     27 O30        -4.2550    1.0050    7.5430 os        1 3O4     -0.271000
     28 C29        -4.6680    2.0810    6.7090 c3        1 3O4     -0.026500
     29 C28        -3.8570    2.1550    5.4190 c3        1 3O4     -0.089000
     30 H24         4.3270   -1.9570   -7.2830 hn        1 3O4      0.229000
     31 H191        5.5370    0.8980   -9.0530 hc        1 3O4      0.109000
     32 H192        6.2150   -0.4510   -8.7350 hc        1 3O4      0.109000
     33 H193        4.8280   -0.4610   -9.4060 hc        1 3O4      0.109000
     34 H26         1.8450   -2.2360   -6.1760 ha        1 3O4      0.130000
     35 H90         5.0710   -0.1870   -4.5940 ha        1 3O4      0.177000
     36 H13         0.8410   -2.1210   -4.0600 ha        1 3O4      0.136000
     37 H17         3.9690   -0.1360   -2.5370 ha        1 3O4      0.154000
     38 H11         2.0720   -3.0730   -1.2850 ha        1 3O4      0.155000
     39 H10         0.8610   -3.0720    0.6650 ha        1 3O4      0.163000
     40 H2          0.1100    1.8450    2.7770 ha        1 3O4      0.154000
     41 H6         -2.8250    0.3270    0.4270 ha        1 3O4      0.132000
     42 H3         -1.2980    1.8020    4.6700 ha        1 3O4      0.135000
     43 H5         -4.2360    0.2770    2.2900 ha        1 3O4      0.137000
     44 H281       -4.2390    2.8080    4.8520 h1        1 3O4      0.087000
     45 H282       -2.8970    2.4330    5.6480 h1        1 3O4      0.087000
     46 H91C       -3.5270   -0.9850    5.0780 h1        1 3O4      0.087000
     47 H92C       -2.4890   -0.0550    5.7760 h1        1 3O4      0.087000
     48 H291       -4.5670    2.9430    7.2130 h1        1 3O4      0.095250
     49 H292       -5.5960    1.9620    6.4850 h1        1 3O4      0.095250
     50 H311       -3.7820   -0.9390    7.4620 h1        1 3O4      0.095250
     51 H312       -5.1950   -0.5390    6.6240 h1        1 3O4      0.095250
     52 H7         -0.2060    1.9100   -0.0500 hn        1 3O4      0.228000
@<TRIPOS>BOND
     1    1    2 1   
     2    2    6 1   
     3    3    4 1   
     4    3   30 1   
     5    4    5 1   
     6    4   22 1   
     7    5   34 1   
     8    6   31 1   
     9    6   32 1   
    10    6   33 1   
    11    7   22 1   
    12    7   37 1   
    13    8    9 1   
    14    8   24 1   
    15    9   10 1   
    16    9   14 1   
    17   10   38 1   
    18   11   12 1   
    19   11   39 1   
    20   13   14 1   
    21   13   15 1   
    22   15   16 1   
    23   15   52 1   
    24   16   17 1   
    25   16   21 1   
    26   17   18 1   
    27   17   40 1   
    28   18   42 1   
    29   19   20 1   
    30   19   23 1   
    31   20   43 1   
    32   21   41 1   
    33   22   35 1   
    34   23   25 1   
    35   23   29 1   
    36   24   36 1   
    37   25   26 1   
    38   25   46 1   
    39   25   47 1   
    40   26   27 1   
    41   26   50 1   
    42   26   51 1   
    43   27   28 1   
    44   28   29 1   
    45   28   48 1   
    46   28   49 1   
    47   29   44 1   
    48   29   45 1   
@<TRIPOS>SUBSTRUCTURE
     1 3O4         1 TEMP              0 ****  ****    0 ROOT
