@<TRIPOS>MOLECULE
3O4
   54    57     1     0     0
SMALL
bcc


@<TRIPOS>ATOM
      1 O23         0.0880    3.1490    0.6930 o         1 3O4     -0.391100
      2 C22         0.8950    2.2390    0.6770 c         1 3O4      0.567100
      3 N24         1.7350    2.1030    1.9560 n4        1 3O4     -0.564200
      4 C25         1.0040    1.4060    3.0190 ca        1 3O4     -0.034400
      5 C26         1.4480    0.1500    3.4690 ca        1 3O4     -0.098500
      6 C19         1.2060    1.2600   -0.3970 c3        1 3O4     -0.187100
      7 C17        -0.8050    1.3590    4.6230 ca        1 3O4     -0.074000
      8 C16        -0.3630    0.1140    5.0860 cp        1 3O4     -0.116500
      9 C12        -1.0550   -0.5730    6.1950 cp        1 3O4      0.498800
     10 C11        -0.2980   -1.2040    7.2050 ca        1 3O4     -0.303600
     11 C10        -1.0030   -1.8650    8.2330 ca        1 3O4      0.473200
     12 N15        -2.3460   -1.9080    8.2790 nb        1 3O4     -0.646000
     13 C14        -2.9930   -1.2530    7.2560 ca        1 3O4      0.727900
     14 N13        -2.4180   -0.5810    6.2120 nb        1 3O4     -0.671000
     15 N7         -4.4930   -1.2760    7.3010 n4        1 3O4     -0.579100
     16 C1         -5.0260   -0.3620    8.3060 ca        1 3O4     -0.182400
     17 C2         -5.5160    0.9030    7.9240 ca        1 3O4     -0.031000
     18 C3         -6.0720    1.7430    8.8640 ca        1 3O4     -0.207500
     19 C4         -6.1480    1.3780   10.2470 ca        1 3O4      0.262600
     20 C5         -5.6450    0.0850   10.5990 ca        1 3O4     -0.207500
     21 C6         -5.0900   -0.7560    9.6580 ca        1 3O4     -0.031000
     22 C90        -0.1270    2.0110    3.5950 ca        1 3O4     -0.098500
     23 N8         -6.6400    2.2420   11.1950 nh        1 3O4     -0.623000
     24 C13         0.7600   -0.4870    4.5000 ca        1 3O4     -0.074000
     25 C9         -7.3220    3.4500   10.7630 c3        1 3O4      0.161300
     26 C31        -7.7110    4.4120   11.8930 c3        1 3O4      0.115900
     27 O30        -8.2450    3.7230   13.0120 os        1 3O4     -0.381600
     28 C29        -7.2960    2.8220   13.5570 c3        1 3O4      0.115900
     29 C28        -6.8780    1.7500   12.5420 c3        1 3O4      0.161300
     30 H24         1.9740    3.0450    2.2990 hn        1 3O4      0.467800
     31 H191        2.2240    1.4600   -0.8250 hc        1 3O4      0.121367
     32 H192        0.4480    1.3820   -1.2190 hc        1 3O4      0.121367
     33 H193        1.1620    0.2070   -0.0210 hc        1 3O4      0.121367
     34 H26         2.3320   -0.3440    3.0310 ha        1 3O4      0.175000
     35 H90        -0.4920    2.9930    3.2400 ha        1 3O4      0.175000
     36 H13         1.1090   -1.4750    4.8470 ha        1 3O4      0.177500
     37 H17        -1.6930    1.8410    5.0690 ha        1 3O4      0.177500
     38 H11         0.8020   -1.1820    7.2020 ha        1 3O4      0.190000
     39 H10        -0.4770   -2.3870    9.0610 h4        1 3O4      0.081100
     40 H2         -5.4790    1.2300    6.8710 ha        1 3O4      0.151000
     41 H6         -4.7060   -1.7410    9.9790 ha        1 3O4      0.151000
     42 H3         -6.4720    2.7100    8.5180 ha        1 3O4      0.166000
     43 H5         -5.7000   -0.2740   11.6400 ha        1 3O4      0.166000
     44 H281       -7.6780    0.9550   12.5040 h1        1 3O4      0.062950
     45 H282       -5.9250    1.2840   12.9270 h1        1 3O4      0.062950
     46 H91C       -6.6410    4.0180   10.0660 h1        1 3O4      0.062950
     47 H92C       -8.2550    3.1600   10.1970 h1        1 3O4      0.062950
     48 H291       -6.3990    3.3850   13.9260 h1        1 3O4      0.076200
     49 H292       -7.8280    2.3350   14.4190 h1        1 3O4      0.076200
     50 H311       -6.8260    5.0270   12.2070 h1        1 3O4      0.076200
     51 H312       -8.5430    5.0820   11.5470 h1        1 3O4      0.076200
     52 H7         -4.7910   -2.2360    7.5320 hn        1 3O4      0.475800
     53 H242        2.6020    1.5960    1.7460 hn        1 3O4      0.467800
     54 H72        -4.8620   -1.0160    6.3750 hn        1 3O4      0.475800
@<TRIPOS>BOND
     1    1    2 2   
     2    2    3 1   
     3    2    6 1   
     4    3    4 1   
     5    3   30 1   
     6    3   53 1   
     7    4    5 ar  
     8    4   22 ar  
     9    5   24 ar  
    10    5   34 1   
    11    6   31 1   
    12    6   32 1   
    13    6   33 1   
    14    7    8 ar  
    15    7   22 ar  
    16    7   37 1   
    17    8    9 1   
    18    8   24 ar  
    19    9   10 ar  
    20    9   14 ar  
    21   10   11 ar  
    22   10   38 1   
    23   11   12 ar  
    24   11   39 1   
    25   12   13 ar  
    26   13   14 ar  
    27   13   15 1   
    28   15   16 1   
    29   15   52 1   
    30   15   54 1   
    31   16   17 ar  
    32   16   21 ar  
    33   17   18 ar  
    34   17   40 1   
    35   18   19 ar  
    36   18   42 1   
    37   19   20 ar  
    38   19   23 1   
    39   20   21 ar  
    40   20   43 1   
    41   21   41 1   
    42   22   35 1   
    43   23   25 1   
    44   23   29 1   
    45   24   36 1   
    46   25   26 1   
    47   25   46 1   
    48   25   47 1   
    49   26   27 1   
    50   26   50 1   
    51   26   51 1   
    52   27   28 1   
    53   28   29 1   
    54   28   48 1   
    55   28   49 1   
    56   29   44 1   
    57   29   45 1   
@<TRIPOS>SUBSTRUCTURE
     1 3O4         1 TEMP              0 ****  ****    0 ROOT
