@<TRIPOS>MOLECULE
3O4
   52    55     1     0     0
SMALL
bcc


@<TRIPOS>ATOM
      1 O23        -8.1800   -2.0820   -0.8450 o         1 3O4     -0.582100
      2 C22        -8.6250   -1.2390   -0.0480 c         1 3O4      0.666100
      3 N24        -7.8450   -0.2280    0.5050 n         1 3O4     -0.475100
      4 C25        -6.4840    0.0240    0.2890 ca        1 3O4      0.087600
      5 C26        -5.8940    1.1340    0.9460 ca        1 3O4     -0.182000
      6 C19       -10.0750   -1.2590    0.3800 c3        1 3O4     -0.179100
      7 C17        -4.3230   -0.4630   -0.7140 ca        1 3O4     -0.068500
      8 C16        -3.7510    0.6400   -0.0710 cp        1 3O4     -0.191500
      9 C12        -2.3300    0.9810   -0.2610 cp        1 3O4      0.540800
     10 C11        -1.9530    2.3430   -0.3430 ca        1 3O4     -0.410600
     11 C10        -0.5860    2.6140   -0.5110 ca        1 3O4      0.458200
     12 N15         0.3550    1.6630   -0.6040 nb        1 3O4     -0.731000
     13 C14        -0.0970    0.3520   -0.5330 ca        1 3O4      0.863900
     14 N13        -1.4230   -0.0190   -0.3450 nb        1 3O4     -0.747000
     15 N7          0.8180   -0.7090   -0.7310 nh        1 3O4     -0.695300
     16 C1          2.2000   -0.5390   -0.4670 ca        1 3O4      0.095600
     17 C2          2.8410   -1.3400    0.5030 ca        1 3O4     -0.109500
     18 C3          4.2080   -1.2500    0.7140 ca        1 3O4     -0.156500
     19 C4          5.0020   -0.3470   -0.0320 ca        1 3O4      0.124600
     20 C5          4.3560    0.4470   -1.0020 ca        1 3O4     -0.156500
     21 C6          2.9860    0.3560   -1.2170 ca        1 3O4     -0.109500
     22 C90        -5.6690   -0.7700   -0.5460 ca        1 3O4     -0.182000
     23 N8          6.3820   -0.2160    0.2770 nh        1 3O4     -0.629000
     24 C13        -4.5510    1.4310    0.7640 ca        1 3O4     -0.068500
     25 C9          7.1490   -1.4540    0.2180 c3        1 3O4      0.147800
     26 C31         8.5880   -1.2620    0.7120 c3        1 3O4      0.123900
     27 O30         9.2380   -0.1900    0.0390 os        1 3O4     -0.414600
     28 C29         8.5180    1.0320    0.1590 c3        1 3O4      0.123900
     29 C28         7.0780    0.8940   -0.3560 c3        1 3O4      0.147800
     30 H24        -8.3020    0.3980    1.1310 hn        1 3O4      0.315500
     31 H191      -10.5840   -2.1120   -0.1330 hc        1 3O4      0.069700
     32 H192      -10.1570   -1.4010    1.4850 hc        1 3O4      0.069700
     33 H193      -10.5840   -0.3080    0.0930 hc        1 3O4      0.069700
     34 H26        -6.4940    1.7730    1.6120 ha        1 3O4      0.153500
     35 H90        -6.0870   -1.6440   -1.0740 ha        1 3O4      0.153500
     36 H13        -4.1120    2.2920    1.2910 ha        1 3O4      0.145000
     37 H17        -3.7060   -1.1030   -1.3660 ha        1 3O4      0.145000
     38 H11        -2.6950    3.1460   -0.2870 ha        1 3O4      0.155000
     39 H10        -0.2150    3.6540   -0.5750 h4        1 3O4      0.026100
     40 H2          2.2580   -2.0520    1.1090 ha        1 3O4      0.143000
     41 H6          2.5240    0.9940   -1.9870 ha        1 3O4      0.143000
     42 H3          4.6650   -1.8830    1.4900 ha        1 3O4      0.136000
     43 H5          4.9260    1.1610   -1.6160 ha        1 3O4      0.136000
     44 H281        7.1150    0.7760   -1.4780 h1        1 3O4      0.047700
     45 H282        6.5210    1.8420   -0.1160 h1        1 3O4      0.047700
     46 H91C        6.6490   -2.2210    0.8710 h1        1 3O4      0.047700
     47 H92C        7.1840   -1.8600   -0.8350 h1        1 3O4      0.047700
     48 H291        8.5270    1.3710    1.2280 h1        1 3O4      0.055950
     49 H292        9.0850    1.7560   -0.4830 h1        1 3O4      0.055950
     50 H311        8.6070   -1.0770    1.8180 h1        1 3O4      0.055950
     51 H312        9.2040   -2.1650    0.4590 h1        1 3O4      0.055950
     52 H7          0.4660   -1.6040   -0.4480 hn        1 3O4      0.432800
@<TRIPOS>BOND
     1    1    2 2   
     2    2    3 1   
     3    2    6 1   
     4    3    4 1   
     5    3   30 1   
     6    4    5 ar  
     7    4   22 ar  
     8    5   24 ar  
     9    5   34 1   
    10    6   31 1   
    11    6   32 1   
    12    6   33 1   
    13    7    8 ar  
    14    7   22 ar  
    15    7   37 1   
    16    8    9 1   
    17    8   24 ar  
    18    9   10 ar  
    19    9   14 ar  
    20   10   11 ar  
    21   10   38 1   
    22   11   12 ar  
    23   11   39 1   
    24   12   13 ar  
    25   13   14 ar  
    26   13   15 1   
    27   15   16 1   
    28   15   52 1   
    29   16   17 ar  
    30   16   21 ar  
    31   17   18 ar  
    32   17   40 1   
    33   18   19 ar  
    34   18   42 1   
    35   19   20 ar  
    36   19   23 1   
    37   20   21 ar  
    38   20   43 1   
    39   21   41 1   
    40   22   35 1   
    41   23   25 1   
    42   23   29 1   
    43   24   36 1   
    44   25   26 1   
    45   25   46 1   
    46   25   47 1   
    47   26   27 1   
    48   26   50 1   
    49   26   51 1   
    50   27   28 1   
    51   28   29 1   
    52   28   48 1   
    53   28   49 1   
    54   29   44 1   
    55   29   45 1   
@<TRIPOS>SUBSTRUCTURE
     1 3O4         1 TEMP              0 ****  ****    0 ROOT
