@<TRIPOS>MOLECULE
3O4
   52    55     1     0     0
SMALL
bcc


@<TRIPOS>ATOM
      1 O23         0.4060    0.3410   -0.5950 o         1 3O4     -0.582100
      2 C22         1.5890    0.4890   -0.2430 c         1 3O4      0.666100
      3 N24         1.9910    0.5120    1.0880 ns        1 3O4     -0.475100
      4 C25         1.1900    0.3820    2.2310 ca        1 3O4      0.087600
      5 C26         1.8230    0.4120    3.5010 ca        1 3O4     -0.182000
      6 C19         2.6900    0.6590   -1.2660 c3        1 3O4     -0.179100
      7 C17        -0.9450    0.1040    3.3600 ca        1 3O4     -0.068500
      8 C16        -0.3130    0.1240    4.6080 cp        1 3O4     -0.191500
      9 C12        -1.0830   -0.0240    5.8550 cp        1 3O4      0.540800
     10 C11        -0.5320   -0.7730    6.9220 ca        1 3O4     -0.410600
     11 C10        -1.3000   -0.8730    8.0920 ca        1 3O4      0.458200
     12 N15        -2.5100   -0.3100    8.2380 nb        1 3O4     -0.731000
     13 C14        -2.9900    0.3920    7.1410 ca        1 3O4      0.863900
     14 N13        -2.2970    0.5670    5.9490 nb        1 3O4     -0.747000
     15 N7         -4.3010    0.9230    7.1750 nu        1 3O4     -0.695300
     16 C1         -4.9270    1.2390    8.4070 ca        1 3O4      0.095600
     17 C2         -5.3320    2.5650    8.6760 ca        1 3O4     -0.109500
     18 C3         -6.0230    2.8780    9.8360 ca        1 3O4     -0.156500
     19 C4         -6.3370    1.8810   10.7890 ca        1 3O4      0.124600
     20 C5         -5.9330    0.5590   10.5120 ca        1 3O4     -0.156500
     21 C6         -5.2420    0.2420    9.3480 ca        1 3O4     -0.109500
     22 C90        -0.2110    0.2250    2.1840 ca        1 3O4     -0.182000
     23 N8         -6.9630    2.2560   12.0070 nh        1 3O4     -0.629000
     24 C13         1.0770    0.2840    4.6630 ca        1 3O4     -0.068500
     25 C9         -8.2210    2.9770   11.8600 c3        1 3O4      0.147800
     26 C31        -8.7550    3.4820   13.2070 c3        1 3O4      0.123900
     27 O30        -8.8400    2.4350   14.1660 os        1 3O4     -0.414600
     28 C29        -7.5910    1.7800   14.3550 c3        1 3O4      0.123900
     29 C28        -7.0350    1.2290   13.0350 c3        1 3O4      0.147800
     30 H24         2.9650    0.6330    1.2600 hn        1 3O4      0.315500
     31 H191        2.2350    0.6210   -2.2860 hc        1 3O4      0.069700
     32 H192        3.2010    1.6430   -1.1340 hc        1 3O4      0.069700
     33 H193        3.4420   -0.1610   -1.1740 hc        1 3O4      0.069700
     34 H26         2.9130    0.5400    3.5790 ha        1 3O4      0.153500
     35 H90        -0.7430    0.1990    1.2180 ha        1 3O4      0.153500
     36 H13         1.5880    0.3200    5.6390 ha        1 3O4      0.145000
     37 H17        -2.0390   -0.0110    3.2970 ha        1 3O4      0.145000
     38 H11         0.4450   -1.2590    6.8340 ha        1 3O4      0.155000
     39 H10        -0.9310   -1.4340    8.9710 h4        1 3O4      0.026100
     40 H2         -5.1030    3.3720    7.9620 ha        1 3O4      0.143000
     41 H6         -4.9490   -0.8050    9.1720 ha        1 3O4      0.143000
     42 H3         -6.3080    3.9270   10.0120 ha        1 3O4      0.136000
     43 H5         -6.1570   -0.2580   11.2150 ha        1 3O4      0.136000
     44 H281       -7.6840    0.3630   12.7130 h1        1 3O4      0.047700
     45 H282       -5.9940    0.8430   13.2200 h1        1 3O4      0.047700
     46 H91C       -9.0100    2.3240   11.3850 h1        1 3O4      0.047700
     47 H92C       -8.0530    3.8650   11.1900 h1        1 3O4      0.047700
     48 H291       -7.8220    0.9340   15.0550 h1        1 3O4      0.055950
     49 H292       -6.8630    2.4880   14.8290 h1        1 3O4      0.055950
     50 H311       -8.1080    4.3060   13.6070 h1        1 3O4      0.055950
     51 H312       -9.8110    3.8410   13.0890 h1        1 3O4      0.055950
     52 H7         -4.4860    1.5910    6.4510 hn        1 3O4      0.432800
@<TRIPOS>BOND
     1    1    2 2   
     2    2    3 1   
     3    2    6 1   
     4    3    4 1   
     5    3   30 1   
     6    4    5 ar  
     7    4   22 ar  
     8    5   24 ar  
     9    5   34 1   
    10    6   31 1   
    11    6   32 1   
    12    6   33 1   
    13    7    8 ar  
    14    7   22 ar  
    15    7   37 1   
    16    8    9 1   
    17    8   24 ar  
    18    9   10 ar  
    19    9   14 ar  
    20   10   11 ar  
    21   10   38 1   
    22   11   12 ar  
    23   11   39 1   
    24   12   13 ar  
    25   13   14 ar  
    26   13   15 1   
    27   15   16 1   
    28   15   52 1   
    29   16   17 ar  
    30   16   21 ar  
    31   17   18 ar  
    32   17   40 1   
    33   18   19 ar  
    34   18   42 1   
    35   19   20 ar  
    36   19   23 1   
    37   20   21 ar  
    38   20   43 1   
    39   21   41 1   
    40   22   35 1   
    41   23   25 1   
    42   23   29 1   
    43   24   36 1   
    44   25   26 1   
    45   25   46 1   
    46   25   47 1   
    47   26   27 1   
    48   26   50 1   
    49   26   51 1   
    50   27   28 1   
    51   28   29 1   
    52   28   48 1   
    53   28   49 1   
    54   29   44 1   
    55   29   45 1   
@<TRIPOS>SUBSTRUCTURE
     1 3O4         1 TEMP              0 ****  ****    0 ROOT
