@<TRIPOS>MOLECULE
3O5
   34    34     1     0     0
SMALL
bcc


@<TRIPOS>ATOM
      1 CAE         0.1970    0.1050   -0.2300 ca        1 3O5     -0.205500
      2 CAG         1.5670    0.0100   -0.0720 ca        1 3O5      0.051500
      3 CAO         2.1720   -0.0400    1.2060 ca        1 3O5     -0.595500
      4 SAP         3.7390   -0.2950    1.3750 sy        1 3O5      1.496200
      5 OAC         4.1240   -0.7510    2.6160 o         1 3O5     -0.561800
      6 OAD         4.3910   -0.6510    0.2150 o         1 3O5     -0.561800
      7 NAA         4.3190    1.5310    1.5210 nz        1 3O5     -0.788500
      8 CAH         1.3160    0.0240    2.3360 ca        1 3O5      0.051500
      9 CAF        -0.0520    0.1250    2.2080 ca        1 3O5     -0.205500
     10 CAN        -0.6270    0.1540    0.9120 ca        1 3O5      0.257100
     11 OAM        -1.9860    0.2310    0.8950 os        1 3O5     -0.300900
     12 CAL        -2.6440    0.1600   -0.3850 c3        1 3O5      0.127400
     13 CAK        -4.1290    0.1550   -0.0470 c3        1 3O5     -0.091400
     14 CAJ        -4.9590    0.0000   -1.3060 c3        1 3O5     -0.106400
     15 CAI        -6.4350   -0.0090   -0.9220 c3        1 3O5      0.099800
     16 NAB        -7.3450   -0.1690   -2.0940 nz        1 3O5     -0.838600
     17 H1         -0.2360    0.1340   -1.2420 ha        1 3O5      0.180000
     18 H2          2.2110   -0.0510   -0.9730 ha        1 3O5      0.176000
     19 H3          4.8000    1.6770    2.4080 hn        1 3O5      0.457800
     20 H4          4.9770    1.7530    0.7750 hn        1 3O5      0.457800
     21 H5          1.7600   -0.0350    3.3500 ha        1 3O5      0.176000
     22 H6         -0.7100    0.1680    3.0920 ha        1 3O5      0.180000
     23 H7         -2.3620    1.0570   -0.9940 h1        1 3O5      0.064200
     24 H8         -2.3390   -0.7820   -0.9100 h1        1 3O5      0.064200
     25 H9         -4.3890    1.1120    0.4790 hc        1 3O5      0.083200
     26 H10        -4.3390   -0.6870    0.6660 hc        1 3O5      0.083200
     27 H11        -4.7420    0.8490   -2.0090 hc        1 3O5      0.074200
     28 H12        -6.6420   -0.8630   -0.2100 hx        1 3O5      0.120700
     29 H13        -8.3220   -0.1690   -1.7790 hn        1 3O5      0.468133
     30 H14        -7.1520   -1.0540   -2.5780 hn        1 3O5      0.468133
     31 H15        -4.6830   -0.9570   -1.8260 hc        1 3O5      0.074200
     32 H16        -6.7060    0.9600   -0.4080 hx        1 3O5      0.120700
     33 HAA3        3.5540    2.1950    1.4690 hn        1 3O5      0.457800
     34 HAB3       -7.2100    0.6010   -2.7580 hn        1 3O5      0.468133
@<TRIPOS>BOND
     1    1    2 ar  
     2    1   10 ar  
     3    1   17 1   
     4    2    3 ar  
     5    2   18 1   
     6    3    4 1   
     7    3    8 ar  
     8    4    5 2   
     9    4    6 2   
    10    4    7 1   
    11    7   19 1   
    12    7   20 1   
    13    7   33 1   
    14    8    9 ar  
    15    8   21 1   
    16    9   10 ar  
    17    9   22 1   
    18   10   11 1   
    19   11   12 1   
    20   12   13 1   
    21   12   23 1   
    22   12   24 1   
    23   13   14 1   
    24   13   25 1   
    25   13   26 1   
    26   14   15 1   
    27   14   27 1   
    28   14   31 1   
    29   15   16 1   
    30   15   28 1   
    31   15   32 1   
    32   16   29 1   
    33   16   30 1   
    34   16   34 1   
@<TRIPOS>SUBSTRUCTURE
     1 3O5         1 TEMP              0 ****  ****    0 ROOT
