@<TRIPOS>MOLECULE
3O5
   34    34     1     0     0
SMALL
bcc


@<TRIPOS>ATOM
      1 CAE         0.1960    0.1130   -0.2350 ca        1 3O5     -0.205500
      2 CAG         1.5670    0.0210   -0.0810 ca        1 3O5      0.051500
      3 CAO         2.1750   -0.0360    1.1950 ca        1 3O5     -0.595500
      4 SAP         3.7440   -0.2870    1.3590 sy        1 3O5      1.496200
      5 OAC         4.1330   -0.7510    2.5960 o         1 3O5     -0.561800
      6 OAD         4.3940   -0.6340    0.1940 o         1 3O5     -0.561800
      7 NAA         4.3180    1.5390    1.5140 n4        1 3O5     -0.788500
      8 CAH         1.3220    0.0180    2.3280 ca        1 3O5      0.051500
      9 CAF        -0.0460    0.1150    2.2040 ca        1 3O5     -0.205500
     10 CAN        -0.6250    0.1510    0.9090 ca        1 3O5      0.257100
     11 OAM        -1.9840    0.2240    0.8970 os        1 3O5     -0.300900
     12 CAL        -2.6460    0.1590   -0.3820 c3        1 3O5      0.127400
     13 CAK        -4.1290    0.1480   -0.0400 c3        1 3O5     -0.091400
     14 CAJ        -4.9620   -0.0010   -1.2980 c3        1 3O5     -0.106400
     15 CAI        -6.4370   -0.0180   -0.9100 c3        1 3O5      0.099800
     16 NAB        -7.3490   -0.1720   -2.0810 n4        1 3O5     -0.838600
     17 H1         -0.2400    0.1460   -1.2450 ha        1 3O5      0.180000
     18 H2          2.2080   -0.0330   -0.9840 ha        1 3O5      0.176000
     19 H3          4.8020    1.6810    2.4010 hn        1 3O5      0.457800
     20 H4          4.9740    1.7680    0.7680 hn        1 3O5      0.457800
     21 H5          1.7690   -0.0470    3.3400 ha        1 3O5      0.176000
     22 H6         -0.7020    0.1500    3.0900 ha        1 3O5      0.180000
     23 H7         -2.3380   -0.7780   -0.9150 h1        1 3O5      0.064200
     24 H8         -2.3670    1.0620   -0.9860 h1        1 3O5      0.064200
     25 H9         -4.3350   -0.7000    0.6670 hc        1 3O5      0.083200
     26 H10        -4.3910    1.1000    0.4930 hc        1 3O5      0.083200
     27 H11        -4.7500    0.8540   -1.9950 hc        1 3O5      0.074200
     28 H12        -6.7100    0.9470   -0.3890 hx        1 3O5      0.120700
     29 H13        -7.1550   -1.0520   -2.5720 hn        1 3O5      0.468133
     30 H14        -7.2190    0.6040   -2.7400 hn        1 3O5      0.468133
     31 H15        -4.6840   -0.9530   -1.8250 hc        1 3O5      0.074200
     32 H16        -6.6400   -0.8770   -0.2040 hx        1 3O5      0.120700
     33 HAA3        3.5510    2.2010    1.4690 hn        1 3O5      0.457800
     34 HAB3       -8.3260   -0.1770   -1.7630 hn        1 3O5      0.468133
@<TRIPOS>BOND
     1    1    2 ar  
     2    1   10 ar  
     3    1   17 1   
     4    2    3 ar  
     5    2   18 1   
     6    3    4 1   
     7    3    8 ar  
     8    4    5 2   
     9    4    6 2   
    10    4    7 1   
    11    7   19 1   
    12    7   20 1   
    13    7   33 1   
    14    8    9 ar  
    15    8   21 1   
    16    9   10 ar  
    17    9   22 1   
    18   10   11 1   
    19   11   12 1   
    20   12   13 1   
    21   12   23 1   
    22   12   24 1   
    23   13   14 1   
    24   13   25 1   
    25   13   26 1   
    26   14   15 1   
    27   14   27 1   
    28   14   31 1   
    29   15   16 1   
    30   15   28 1   
    31   15   32 1   
    32   16   29 1   
    33   16   30 1   
    34   16   34 1   
@<TRIPOS>SUBSTRUCTURE
     1 3O5         1 TEMP              0 ****  ****    0 ROOT
