@<TRIPOS>MOLECULE
3O7
   28    30     1     0     0
SMALL
bcc


@<TRIPOS>ATOM
      1 O2         -0.0110   -0.0560   -0.1280 oh        1 3O7     -0.468100
      2 CAY         1.3610   -0.0810   -0.0650 ca        1 3O7      0.133100
      3 CAI         2.0550    0.1100    1.1440 ca        1 3O7     -0.165000
      4 CBE         2.0600   -0.2800   -1.2680 ca        1 3O7     -0.128600
      5 CAJ         3.4400    0.1120    1.1530 ca        1 3O7     -0.165000
      6 CBA         1.3480   -0.4990   -2.5500 c         1 3O7      0.598300
      7 OAA         0.2620   -1.0750   -2.6240 o         1 3O7     -0.465100
      8 CBF         3.4660   -0.2780   -1.2590 ca        1 3O7     -0.128600
      9 CBC         2.0760    0.0100   -3.7370 ca        1 3O7     -0.128600
     10 CAZ         4.1490   -0.0780   -0.0480 ca        1 3O7      0.133100
     11 CBB         4.1960   -0.4950   -2.5310 c         1 3O7      0.598300
     12 OAB         5.2840   -1.0690   -2.5920 o         1 3O7     -0.465100
     13 CAW         1.3910    0.4820   -4.8700 ca        1 3O7      0.133100
     14 O1          5.5220   -0.0490   -0.0920 oh        1 3O7     -0.468100
     15 OAE         0.0190    0.4950   -4.8200 oh        1 3O7     -0.468100
     16 CAG         2.1000    0.9470   -5.9940 ca        1 3O7     -0.165000
     17 CAH         3.4850    0.9490   -5.9850 ca        1 3O7     -0.165000
     18 CAX         4.1790    0.4860   -4.8520 ca        1 3O7      0.133100
     19 OAF         5.5510    0.5010   -4.7850 oh        1 3O7     -0.468100
     20 CBD         3.4820    0.0120   -3.7280 ca        1 3O7     -0.128600
     21 H1         -0.3490    0.0090    0.7780 ho        1 3O7      0.420000
     22 H2          1.4940    0.2570    2.0790 ha        1 3O7      0.142000
     23 H3          3.9880    0.2600    2.0950 ha        1 3O7      0.142000
     24 H6          5.8490    0.0160    0.8180 ho        1 3O7      0.420000
     25 H7         -0.3090    0.7670   -5.6900 ho        1 3O7      0.420000
     26 H8          1.5500    1.3070   -6.8760 ha        1 3O7      0.142000
     27 H9          4.0440    1.3100   -6.8600 ha        1 3O7      0.142000
     28 H10         5.8890    0.7750   -5.6510 ho        1 3O7      0.420000
@<TRIPOS>BOND
     1    1    2 1   
     2    1   21 1   
     3    2    3 ar  
     4    2    4 ar  
     5    3    5 ar  
     6    3   22 1   
     7    4    6 1   
     8    4    8 ar  
     9    5   10 ar  
    10    5   23 1   
    11    6    7 2   
    12    6    9 1   
    13    8   10 ar  
    14    8   11 1   
    15    9   13 ar  
    16    9   20 ar  
    17   10   14 1   
    18   11   12 2   
    19   11   20 1   
    20   13   15 1   
    21   13   16 ar  
    22   14   24 1   
    23   15   25 1   
    24   16   17 ar  
    25   16   26 1   
    26   17   18 ar  
    27   17   27 1   
    28   18   19 1   
    29   18   20 ar  
    30   19   28 1   
@<TRIPOS>SUBSTRUCTURE
     1 3O7         1 TEMP              0 ****  ****    0 ROOT
