@<TRIPOS>MOLECULE
3O8
   46    48     1     0     0
SMALL
bcc


@<TRIPOS>ATOM
      1 OAC         3.0950   -3.0320    1.7000 oh        1 3O8     -0.630800
      2 CAK         3.7430   -2.1020    2.5500 c3        1 3O8      0.107400
      3 CAM         2.6580   -1.1650    3.0920 c3        1 3O8      0.101800
      4 NAS         1.5350   -1.9120    3.7290 ny        1 3O8     -0.752000
      5 CAO         0.3870   -1.0210    4.0480 c3        1 3O8      0.058800
      6 CAQ        -0.6880   -1.7130    4.9180 c3        1 3O8      0.167800
      7 NAU        -0.3050   -2.0520    6.2580 nu        1 3O8     -0.713600
      8 CAY         0.3720   -3.2800    6.4660 ca        1 3O8      0.033600
      9 CAI        -0.3410   -4.4960    6.2770 ca        1 3O8     -0.070000
     10 CBE         1.6750   -3.3560    6.9870 ca        1 3O8     -0.145600
     11 CAJ         0.2270   -5.7060    6.5830 ca        1 3O8     -0.185000
     12 CBA         2.4910   -2.1280    7.1680 c         1 3O8      0.626300
     13 OAA         2.4660   -1.2170    6.3200 o         1 3O8     -0.605100
     14 CBF         2.2520   -4.5860    7.3620 ca        1 3O8     -0.230600
     15 CBC         3.3480   -2.1130    8.3590 ca        1 3O8     -0.154600
     16 CAZ         1.5490   -5.8000    7.1300 ca        1 3O8      0.259600
     17 CBB         3.5740   -4.5710    8.0230 c         1 3O8      0.599300
     18 OAB         4.3830   -5.5030    7.9380 o         1 3O8     -0.506100
     19 CAW         3.6450   -0.9360    9.0600 ca        1 3O8      0.151100
     20 NAV         2.0830   -7.0270    7.3890 nv        1 3O8     -0.848200
     21 OAE         3.0940    0.2320    8.6000 oh        1 3O8     -0.482100
     22 CAG         4.4650   -0.9800   10.2090 ca        1 3O8     -0.154000
     23 CAH         4.9770   -2.1860   10.6450 ca        1 3O8     -0.140000
     24 CAX         4.6850   -3.3770    9.9430 ca        1 3O8      0.149100
     25 OAF         5.1480   -4.5980   10.3560 oh        1 3O8     -0.465100
     26 CBD         3.8770   -3.3450    8.7980 ca        1 3O8     -0.130600
     27 H1          3.7730   -3.4590    1.1600 ho        1 3O8      0.448000
     28 H2          4.4900   -1.4820    1.9860 h1        1 3O8      0.070700
     29 H3          4.2620   -2.6490    3.3830 h1        1 3O8      0.070700
     30 H4          2.2320   -0.5540    2.2470 hx        1 3O8      0.114700
     31 H5          3.1080   -0.4810    3.8690 hx        1 3O8      0.114700
     32 H6          1.2350   -2.6650    3.0980 hn        1 3O8      0.463800
     33 H8          0.7980   -0.1230    4.5960 hx        1 3O8      0.108700
     34 H9         -0.0810   -0.6840    3.0810 hx        1 3O8      0.108700
     35 H10        -1.0720   -2.6310    4.3910 h1        1 3O8      0.089200
     36 H11        -1.3760   -4.4630    5.8950 ha        1 3O8      0.155000
     37 H12        -0.3530   -6.6300    6.4200 ha        1 3O8      0.155000
     38 H15         2.9850   -7.1090    7.8010 hn        1 3O8      0.454800
     39 H16         1.5090   -7.8310    7.3300 hn        1 3O8      0.454800
     40 H17         3.3780    0.9520    9.1850 ho        1 3O8      0.435000
     41 H18         4.6910   -0.0490   10.7520 ha        1 3O8      0.157000
     42 H19         5.6160   -2.2260   11.5420 ha        1 3O8      0.158000
     43 H20         5.7360   -4.4610   11.1160 ho        1 3O8      0.434000
     44 H7         -1.5370   -0.9700    4.9920 h1        1 3O8      0.089200
     45 H21         0.1220   -1.2860    6.7460 hn        1 3O8      0.412800
     46 HAS2        1.8790   -2.3390    4.6060 hn        1 3O8      0.463800
@<TRIPOS>BOND
     1    1    2 1   
     2    1   27 1   
     3    2    3 1   
     4    2   28 1   
     5    2   29 1   
     6    3    4 1   
     7    3   30 1   
     8    3   31 1   
     9    4    5 1   
    10    4   32 1   
    11    4   46 1   
    12    5    6 1   
    13    5   33 1   
    14    5   34 1   
    15    6    7 1   
    16    6   35 1   
    17    6   44 1   
    18    7    8 1   
    19    7   45 1   
    20    8    9 ar  
    21    8   10 ar  
    22    9   11 ar  
    23    9   36 1   
    24   10   12 1   
    25   10   14 ar  
    26   11   16 ar  
    27   11   37 1   
    28   12   13 2   
    29   12   15 1   
    30   14   16 ar  
    31   14   17 1   
    32   15   19 ar  
    33   15   26 ar  
    34   16   20 1   
    35   17   18 2   
    36   17   26 1   
    37   19   21 1   
    38   19   22 ar  
    39   20   38 1   
    40   20   39 1   
    41   21   40 1   
    42   22   23 ar  
    43   22   41 1   
    44   23   24 ar  
    45   23   42 1   
    46   24   25 1   
    47   24   26 ar  
    48   25   43 1   
@<TRIPOS>SUBSTRUCTURE
     1 3O8         1 TEMP              0 ****  ****    0 ROOT
