@<TRIPOS>MOLECULE
3O8
   46    48     1     0     0
SMALL
bcc


@<TRIPOS>ATOM
      1 OAC         3.1220   -3.1630    1.6760 oh        1 3O8     -0.613800
      2 CAK         3.7860   -2.2550    2.5300 c3        1 3O8      0.105400
      3 CAM         2.7630   -1.2560    3.0900 c3        1 3O8      0.073800
      4 NAS         1.6030   -1.9510    3.7180 n4        1 3O8     -0.751000
      5 CAO         0.4810   -1.0170    4.0060 c3        1 3O8      0.058800
      6 CAQ        -0.6250   -1.6580    4.8760 c3        1 3O8      0.167800
      7 NAU        -0.2710   -1.9820    6.2270 nh        1 3O8     -0.712600
      8 CAY         0.3640   -3.2260    6.4680 ca        1 3O8      0.031600
      9 CAI        -0.3840   -4.4220    6.2940 ca        1 3O8     -0.069000
     10 CBE         1.6570   -3.3330    7.0080 ca        1 3O8     -0.144600
     11 CAJ         0.1400   -5.6430    6.6330 ca        1 3O8     -0.185000
     12 CBA         2.5110   -2.1280    7.1720 c         1 3O8      0.626300
     13 OAA         2.5250   -1.2360    6.3030 o         1 3O8     -0.606100
     14 CBF         2.1890   -4.5710    7.4180 ca        1 3O8     -0.231600
     15 CBC         3.3530   -2.1130    8.3730 ca        1 3O8     -0.154600
     16 CAZ         1.4510   -5.7670    7.2030 ca        1 3O8      0.261600
     17 CBB         3.5030   -4.5840    8.0960 c         1 3O8      0.599300
     18 OAB         4.2800   -5.5450    8.0450 o         1 3O8     -0.506100
     19 CAW         3.6820   -0.9310    9.0500 ca        1 3O8      0.151100
     20 NAV         1.9380   -7.0040    7.5030 nh        1 3O8     -0.849200
     21 OAE         3.1750    0.2440    8.5560 oh        1 3O8     -0.482100
     22 CAG         4.4860   -0.9740   10.2090 ca        1 3O8     -0.154000
     23 CAH         4.9530   -2.1850   10.6800 ca        1 3O8     -0.140000
     24 CAX         4.6300   -3.3820   10.0010 ca        1 3O8      0.149100
     25 OAF         5.0470   -4.6080   10.4480 oh        1 3O8     -0.465100
     26 CBD         3.8370   -3.3510    8.8460 ca        1 3O8     -0.130600
     27 H1          3.3650   -2.9620    0.7630 ho        1 3O8      0.436000
     28 H2          4.2390   -2.8700    3.3560 h1        1 3O8      0.086700
     29 H3          4.5950   -1.6790    2.0110 h1        1 3O8      0.086700
     30 H4          3.2520   -0.6120    3.8790 hx        1 3O8      0.111700
     31 H5          2.3720   -0.6020    2.2610 hx        1 3O8      0.111700
     32 H6          1.9180   -2.3780    4.6060 hn        1 3O8      0.463800
     33 H8          0.9160   -0.1240    4.5430 hx        1 3O8      0.107700
     34 H9          0.0360   -0.6820    3.0280 hx        1 3O8      0.107700
     35 H10        -1.4520   -0.8870    4.9240 h1        1 3O8      0.088700
     36 H11        -1.4120   -4.3650    5.8970 ha        1 3O8      0.154000
     37 H12        -0.4670   -6.5520    6.4800 ha        1 3O8      0.155000
     38 H15         2.8350   -7.1080    7.9190 hn        1 3O8      0.455800
     39 H16         1.3450   -7.7930    7.4360 hn        1 3O8      0.455800
     40 H17         3.4760    0.9680    9.1290 ho        1 3O8      0.435000
     41 H18         4.7370   -0.0380   10.7340 ha        1 3O8      0.157000
     42 H19         5.5810   -2.2260   11.5840 ha        1 3O8      0.158000
     43 H20         5.6320   -4.4730   11.2110 ho        1 3O8      0.434000
     44 H7         -1.0320   -2.5740    4.3610 h1        1 3O8      0.088700
     45 H21         0.1740   -1.2200    6.7050 hn        1 3O8      0.412800
     46 HAS2        1.2890   -2.7040    3.0910 hn        1 3O8      0.463800
@<TRIPOS>BOND
     1    1    2 1   
     2    1   27 1   
     3    2    3 1   
     4    2   28 1   
     5    2   29 1   
     6    3    4 1   
     7    3   30 1   
     8    3   31 1   
     9    4    5 1   
    10    4   32 1   
    11    4   46 1   
    12    5    6 1   
    13    5   33 1   
    14    5   34 1   
    15    6    7 1   
    16    6   35 1   
    17    6   44 1   
    18    7    8 1   
    19    7   45 1   
    20    8    9 ar  
    21    8   10 ar  
    22    9   11 ar  
    23    9   36 1   
    24   10   12 1   
    25   10   14 ar  
    26   11   16 ar  
    27   11   37 1   
    28   12   13 2   
    29   12   15 1   
    30   14   16 ar  
    31   14   17 1   
    32   15   19 ar  
    33   15   26 ar  
    34   16   20 1   
    35   17   18 2   
    36   17   26 1   
    37   19   21 1   
    38   19   22 ar  
    39   20   38 1   
    40   20   39 1   
    41   21   40 1   
    42   22   23 ar  
    43   22   41 1   
    44   23   24 ar  
    45   23   42 1   
    46   24   25 1   
    47   24   26 ar  
    48   25   43 1   
@<TRIPOS>SUBSTRUCTURE
     1 3O8         1 TEMP              0 ****  ****    0 ROOT
