@<TRIPOS>MOLECULE
3OA
   58    60     1     0     0
SMALL
bcc


@<TRIPOS>ATOM
      1 OAC         0.9490   -0.7150   -0.6210 oh        1 3OA     -0.598800
      2 CAK         2.2630   -0.5310   -0.1400 c3        1 3OA      0.130900
      3 CAM         2.2770   -0.2480    1.3590 c3        1 3OA      0.087400
      4 O1          1.8400   -1.4500    1.9930 os        1 3OA     -0.439100
      5 CAO         1.7230   -1.3080    3.4060 c3        1 3OA      0.119900
      6 CAQ         1.3220   -2.6800    3.9600 c3        1 3OA      0.190300
      7 NAU         2.3690   -3.6670    3.8430 nu        1 3OA     -0.730100
      8 CAY         2.0400   -5.0160    3.9490 ca        1 3OA      0.171100
      9 CAI         0.9280   -5.4060    4.7510 ca        1 3OA     -0.139500
     10 CAJ         0.6340   -6.7260    4.9890 ca        1 3OA     -0.139500
     11 CBE         2.8070   -6.0470    3.3520 ca        1 3OA     -0.166100
     12 CBA         3.9050   -5.7450    2.4130 c         1 3OA      0.607300
     13 OAA         4.5650   -4.6900    2.4430 o         1 3OA     -0.544100
     14 CBC         4.1800   -6.7630    1.3750 ca        1 3OA     -0.157100
     15 CAW         4.7190   -6.4360    0.1220 ca        1 3OA      0.143100
     16 OAE         5.0710   -5.1760   -0.2820 oh        1 3OA     -0.488100
     17 CAG         4.9110   -7.4390   -0.8580 ca        1 3OA     -0.139000
     18 CAH         4.5900   -8.7520   -0.5750 ca        1 3OA     -0.139000
     19 CAX         4.0840   -9.0950    0.6970 ca        1 3OA      0.143100
     20 OAF         3.7380  -10.3860    1.0160 oh        1 3OA     -0.488100
     21 CBD         3.8890   -8.1090    1.6710 ca        1 3OA     -0.157100
     22 CBB         3.4010   -8.4330    3.0300 c         1 3OA      0.607300
     23 OAB         3.7400   -9.4660    3.6190 o         1 3OA     -0.544100
     24 CBF         2.5180   -7.4040    3.6270 ca        1 3OA     -0.166100
     25 CAZ         1.4280   -7.7740    4.4440 ca        1 3OA      0.171100
     26 NAV         1.0650   -9.1130    4.6250 nu        1 3OA     -0.730100
     27 CAR         0.1960   -9.4480    5.7300 c3        1 3OA      0.190300
     28 CAP         0.1250  -10.9570    5.9950 c3        1 3OA      0.119900
     29 O2          1.3950  -11.3440    6.5110 os        1 3OA     -0.439100
     30 CAN         1.5120  -12.7560    6.6730 c3        1 3OA      0.087400
     31 CAL         2.9020  -13.0000    7.2530 c3        1 3OA      0.130900
     32 OAD         3.0140  -12.4870    8.5630 oh        1 3OA     -0.598800
     33 H1          0.5720   -1.4570   -0.1310 ho        1 3OA      0.412500
     34 H2          2.8900   -1.4330   -0.3670 h1        1 3OA      0.056700
     35 H3          2.6560    0.3610   -0.6970 h1        1 3OA      0.056700
     36 H4          1.5750    0.5890    1.6120 h1        1 3OA      0.040450
     37 H5          3.3130    0.0070    1.7040 h1        1 3OA      0.040450
     38 H6          2.6970   -0.9530    3.8370 h1        1 3OA      0.042450
     39 H7          0.9170   -0.5640    3.6440 h1        1 3OA      0.042450
     40 H8          1.0860   -2.5430    5.0550 h1        1 3OA      0.047700
     41 H9          0.3790   -3.0130    3.4360 h1        1 3OA      0.047700
     42 H10         3.0600   -3.4410    3.1520 hn        1 3OA      0.437300
     43 H11         0.2900   -4.6330    5.2110 ha        1 3OA      0.139000
     44 H12        -0.2370   -6.9670    5.6190 ha        1 3OA      0.139000
     45 H14         5.0600   -4.5730    0.4790 ho        1 3OA      0.437000
     46 H15         5.3190   -7.1490   -1.8380 ha        1 3OA      0.151500
     47 H16         4.7360   -9.5360   -1.3330 ha        1 3OA      0.151500
     48 H17         4.0260  -10.9590    0.2880 ho        1 3OA      0.437000
     49 H19         1.8170   -9.7680    4.5100 hn        1 3OA      0.437300
     50 H20        -0.8460   -9.1010    5.4780 h1        1 3OA      0.047700
     51 H21         0.5180   -8.9370    6.6840 h1        1 3OA      0.047700
     52 H22        -0.6690  -11.1590    6.7620 h1        1 3OA      0.042450
     53 H23        -0.1040  -11.5330    5.0600 h1        1 3OA      0.042450
     54 H24         1.4040  -13.2640    5.6800 h1        1 3OA      0.040450
     55 H25         0.7170  -13.1210    7.3750 h1        1 3OA      0.040450
     56 H26         3.0810  -14.1030    7.3540 h1        1 3OA      0.056700
     57 H27         3.6810  -12.5410    6.5870 h1        1 3OA      0.056700
     58 H28         2.8450  -11.5370    8.5080 ho        1 3OA      0.412500
@<TRIPOS>BOND
     1    1    2 1   
     2    1   33 1   
     3    2    3 1   
     4    2   34 1   
     5    2   35 1   
     6    3    4 1   
     7    3   36 1   
     8    3   37 1   
     9    4    5 1   
    10    5    6 1   
    11    5   38 1   
    12    5   39 1   
    13    6    7 1   
    14    6   40 1   
    15    6   41 1   
    16    7    8 1   
    17    7   42 1   
    18    8    9 ar  
    19    8   11 ar  
    20    9   10 ar  
    21    9   43 1   
    22   10   25 ar  
    23   10   44 1   
    24   11   12 1   
    25   11   24 ar  
    26   12   13 2   
    27   12   14 1   
    28   14   15 ar  
    29   14   21 ar  
    30   15   16 1   
    31   15   17 ar  
    32   16   45 1   
    33   17   18 ar  
    34   17   46 1   
    35   18   19 ar  
    36   18   47 1   
    37   19   20 1   
    38   19   21 ar  
    39   20   48 1   
    40   21   22 1   
    41   22   23 2   
    42   22   24 1   
    43   24   25 ar  
    44   25   26 1   
    45   26   27 1   
    46   26   49 1   
    47   27   28 1   
    48   27   50 1   
    49   27   51 1   
    50   28   29 1   
    51   28   52 1   
    52   28   53 1   
    53   29   30 1   
    54   30   31 1   
    55   30   54 1   
    56   30   55 1   
    57   31   32 1   
    58   31   56 1   
    59   31   57 1   
    60   32   58 1   
@<TRIPOS>SUBSTRUCTURE
     1 3OA         1 TEMP              0 ****  ****    0 ROOT
