@<TRIPOS>MOLECULE
3OA
   58    60     1     0     0
SMALL
bcc


@<TRIPOS>ATOM
      1 OAC         0.9540   -0.7010   -0.6060 oh        1 3OA     -0.598800
      2 CAK         2.2650   -0.5170   -0.1160 c3        1 3OA      0.130900
      3 CAM         2.2690   -0.2410    1.3840 c3        1 3OA      0.087400
      4 O1          1.8310   -1.4460    2.0100 os        1 3OA     -0.439100
      5 CAO         1.7040   -1.3100    3.4220 c3        1 3OA      0.119900
      6 CAQ         1.3040   -2.6860    3.9680 c3        1 3OA      0.190300
      7 NAU         2.3550   -3.6690    3.8540 nh        1 3OA     -0.730100
      8 CAY         2.0300   -5.0200    3.9520 ca        1 3OA      0.171100
      9 CAI         0.9130   -5.4170    4.7450 ca        1 3OA     -0.139500
     10 CAJ         0.6220   -6.7390    4.9750 ca        1 3OA     -0.139500
     11 CBE         2.8050   -6.0460    3.3570 ca        1 3OA     -0.166100
     12 CBA         3.9090   -5.7360    2.4280 c         1 3OA      0.607300
     13 OAA         4.5650   -4.6790    2.4670 o         1 3OA     -0.544100
     14 CBC         4.1960   -6.7490    1.3880 ca        1 3OA     -0.157100
     15 CAW         4.7420   -6.4150    0.1400 ca        1 3OA      0.143100
     16 OAE         5.0930   -5.1520   -0.2570 oh        1 3OA     -0.488100
     17 CAG         4.9450   -7.4140   -0.8420 ca        1 3OA     -0.139000
     18 CAH         4.6270   -8.7290   -0.5660 ca        1 3OA     -0.139000
     19 CAX         4.1130   -9.0790    0.7000 ca        1 3OA      0.143100
     20 OAF         3.7700  -10.3720    1.0110 oh        1 3OA     -0.488100
     21 CBD         3.9070   -8.0980    1.6770 ca        1 3OA     -0.157100
     22 CBB         3.4100   -8.4290    3.0300 c         1 3OA      0.607300
     23 OAB         3.7480   -9.4620    3.6180 o         1 3OA     -0.544100
     24 CBF         2.5190   -7.4050    3.6250 ca        1 3OA     -0.166100
     25 CAZ         1.4250   -7.7820    4.4330 ca        1 3OA      0.171100
     26 NAV         1.0650   -9.1230    4.6060 nh        1 3OA     -0.730100
     27 CAR         0.1890   -9.4650    5.7020 c3        1 3OA      0.190300
     28 CAP         0.1210  -10.9750    5.9610 c3        1 3OA      0.119900
     29 O2          1.3870  -11.3600    6.4870 os        1 3OA     -0.439100
     30 CAN         1.5080  -12.7720    6.6450 c3        1 3OA      0.087400
     31 CAL         2.8940  -13.0120    7.2370 c3        1 3OA      0.130900
     32 OAD         2.9910  -12.5030    8.5500 oh        1 3OA     -0.598800
     33 H1          0.5760   -1.4460   -0.1220 ho        1 3OA      0.412500
     34 H2          2.6600    0.3780   -0.6670 h1        1 3OA      0.056700
     35 H3          2.8960   -1.4170   -0.3430 h1        1 3OA      0.056700
     36 H4          3.3020    0.0150    1.7370 h1        1 3OA      0.040450
     37 H5          1.5630    0.5940    1.6360 h1        1 3OA      0.040450
     38 H6          0.8940   -0.5710    3.6590 h1        1 3OA      0.042450
     39 H7          2.6740   -0.9550    3.8610 h1        1 3OA      0.042450
     40 H8          0.3660   -3.0200    3.4360 h1        1 3OA      0.047700
     41 H9          1.0600   -2.5550    5.0610 h1        1 3OA      0.047700
     42 H10         3.0500   -3.4380    3.1700 hn        1 3OA      0.437300
     43 H11         0.2690   -4.6490    5.2030 ha        1 3OA      0.139000
     44 H12        -0.2530   -6.9850    5.5980 ha        1 3OA      0.139000
     45 H14         5.0740   -4.5520    0.5070 ho        1 3OA      0.437000
     46 H15         5.3600   -7.1180   -1.8180 ha        1 3OA      0.151500
     47 H16         4.7820   -9.5090   -1.3260 ha        1 3OA      0.151500
     48 H17         4.0650  -10.9410    0.2840 ho        1 3OA      0.437000
     49 H19         1.8190   -9.7750    4.4940 hn        1 3OA      0.437300
     50 H20         0.5000   -8.9570    6.6610 h1        1 3OA      0.047700
     51 H21        -0.8540   -9.1210    5.4430 h1        1 3OA      0.047700
     52 H22        -0.6790  -11.1840    6.7200 h1        1 3OA      0.042450
     53 H23        -0.0980  -11.5490    5.0210 h1        1 3OA      0.042450
     54 H24         1.4110  -13.2770    5.6490 h1        1 3OA      0.040450
     55 H25         0.7080  -13.1420    7.3390 h1        1 3OA      0.040450
     56 H26         3.0760  -14.1150    7.3360 h1        1 3OA      0.056700
     57 H27         3.6770  -12.5490    6.5790 h1        1 3OA      0.056700
     58 H28         2.8200  -11.5540    8.4950 ho        1 3OA      0.412500
@<TRIPOS>BOND
     1    1    2 1   
     2    1   33 1   
     3    2    3 1   
     4    2   34 1   
     5    2   35 1   
     6    3    4 1   
     7    3   36 1   
     8    3   37 1   
     9    4    5 1   
    10    5    6 1   
    11    5   38 1   
    12    5   39 1   
    13    6    7 1   
    14    6   40 1   
    15    6   41 1   
    16    7    8 1   
    17    7   42 1   
    18    8    9 ar  
    19    8   11 ar  
    20    9   10 ar  
    21    9   43 1   
    22   10   25 ar  
    23   10   44 1   
    24   11   12 1   
    25   11   24 ar  
    26   12   13 2   
    27   12   14 1   
    28   14   15 ar  
    29   14   21 ar  
    30   15   16 1   
    31   15   17 ar  
    32   16   45 1   
    33   17   18 ar  
    34   17   46 1   
    35   18   19 ar  
    36   18   47 1   
    37   19   20 1   
    38   19   21 ar  
    39   20   48 1   
    40   21   22 1   
    41   22   23 2   
    42   22   24 1   
    43   24   25 ar  
    44   25   26 1   
    45   26   27 1   
    46   26   49 1   
    47   27   28 1   
    48   27   50 1   
    49   27   51 1   
    50   28   29 1   
    51   28   52 1   
    52   28   53 1   
    53   29   30 1   
    54   30   31 1   
    55   30   54 1   
    56   30   55 1   
    57   31   32 1   
    58   31   56 1   
    59   31   57 1   
    60   32   58 1   
@<TRIPOS>SUBSTRUCTURE
     1 3OA         1 TEMP              0 ****  ****    0 ROOT
