@<TRIPOS>MOLECULE
3OB
   57    59     1     0     0
SMALL
bcc


@<TRIPOS>ATOM
      1 C1         -0.7710   -2.0470    1.5200 ca        1 3OB      0.025000
      2 C2         -0.0900   -1.6290    0.3680 ca        1 3OB     -0.069000
      3 C3          0.6750   -0.4570    0.3990 ca        1 3OB      0.021400
      4 C4          0.7690    0.3050    1.5690 ca        1 3OB     -0.106000
      5 C5          0.0740   -0.1340    2.7000 ca        1 3OB      0.050100
      6 C6         -0.6960   -1.3000    2.7040 ca        1 3OB     -0.097000
      7 O7          0.0300    0.7090    3.8250 os        1 3OB     -0.258200
      8 C8         -1.5470   -3.2380    1.4930 cg        1 3OB      0.201800
      9 CL9         1.4970    0.0460   -0.9900 cl        1 3OB     -0.027400
     10 C10         0.9550    0.4890    4.8170 cc        1 3OB      0.304100
     11 C11         1.9350   -0.5300    4.7430 cc        1 3OB     -0.329000
     12 C12         2.8540   -0.6920    5.7760 cd        1 3OB      0.182400
     13 N13         2.8100    0.1110    6.8830 n         1 3OB     -0.392100
     14 C14         1.8710    1.1470    7.0210 c         1 3OB      0.714700
     15 C15         0.8990    1.3270    5.9330 cd        1 3OB     -0.292200
     16 N16        -0.0590    2.4130    6.1120 n4        1 3OB     -0.508200
     17 O17         1.8820    1.8590    8.0440 o         1 3OB     -0.618500
     18 C18        -1.4590    1.9110    6.1610 c3        1 3OB      0.089600
     19 C19         0.0960    3.4640    5.0700 c3        1 3OB      0.089600
     20 C20         3.8450   -1.8160    5.6790 c3        1 3OB     -0.163200
     21 N21        -2.1810   -4.2120    1.4730 n1        1 3OB     -0.294800
     22 C22         5.2330   -1.5220    6.2090 c         1 3OB      0.610100
     23 O23         5.5230   -0.4240    6.7120 o         1 3OB     -0.555100
     24 N24         6.2440   -2.5330    6.1130 n         1 3OB     -0.296400
     25 C25         5.8530   -3.8840    5.6990 c3        1 3OB      0.127300
     26 C26         6.9660   -4.5470    8.3810 c3        1 3OB     -0.071800
     27 C27         7.5120   -2.3270    6.4290 c1        1 3OB     -0.011500
     28 C28         5.6110   -4.9860    7.9710 ca        1 3OB     -0.037300
     29 C29         5.0710   -4.6600    6.7160 ca        1 3OB     -0.145300
     30 C30         3.8000   -5.1350    6.3620 ca        1 3OB     -0.139000
     31 C31         3.0600   -5.9120    7.2470 ca        1 3OB     -0.135000
     32 C32         3.5850   -6.2210    8.5030 ca        1 3OB     -0.105000
     33 C33         4.8500   -5.7620    8.8580 ca        1 3OB     -0.127000
     34 H2         -0.1610   -2.2230   -0.5600 ha        1 3OB      0.183000
     35 H4          1.3620    1.2320    1.5980 ha        1 3OB      0.171000
     36 H6         -1.2380   -1.6170    3.6070 ha        1 3OB      0.166000
     37 H11         1.9670   -1.1880    3.8630 ha        1 3OB      0.186000
     38 HN13        3.5390    0.0510    7.5770 hn        1 3OB      0.386500
     39 H18        -1.7250    1.4460    5.1740 hx        1 3OB      0.102700
     40 H18A       -1.5460    1.1430    6.9760 hx        1 3OB      0.102700
     41 H18B       -2.1450    2.7730    6.3730 hx        1 3OB      0.102700
     42 H19        -0.6140    4.3040    5.2960 hx        1 3OB      0.102700
     43 H19A       -0.1380    3.0280    4.0620 hx        1 3OB      0.102700
     44 H19B        1.1530    3.8410    5.0830 hx        1 3OB      0.102700
     45 H20         3.9340   -2.1160    4.5970 hc        1 3OB      0.124700
     46 H20A        3.4270   -2.7030    6.2450 hc        1 3OB      0.124700
     47 H25         6.8090   -4.4490    5.4760 h1        1 3OB      0.082700
     48 H25A        5.2690   -3.8040    4.7370 h1        1 3OB      0.082700
     49 H26         7.3560   -5.1830    9.2140 hc        1 3OB      0.061033
     50 H26A        7.6880   -4.6030    7.5260 hc        1 3OB      0.061033
     51 H27         6.9390   -3.4860    8.7380 hc        1 3OB      0.061033
     52 H27A        7.7910   -1.3090    6.7710 ha        1 3OB      0.024500
     53 H30         3.3940   -4.9170    5.3620 ha        1 3OB      0.120000
     54 H31         2.0700   -6.2930    6.9540 ha        1 3OB      0.140000
     55 H32         3.0040   -6.8370    9.2070 ha        1 3OB      0.146000
     56 H33         5.2680   -6.0210    9.8440 ha        1 3OB      0.148000
     57 H161        0.1590    2.8420    7.0350 hn        1 3OB      0.477800
@<TRIPOS>BOND
     1    1    2 ar  
     2    1    6 ar  
     3    1    8 1   
     4    2    3 ar  
     5    2   34 1   
     6    3    4 ar  
     7    3    9 1   
     8    4    5 ar  
     9    4   35 1   
    10    5    6 ar  
    11    5    7 1   
    12    6   36 1   
    13    7   10 1   
    14    8   21 3   
    15   10   11 1   
    16   10   15 2   
    17   11   12 2   
    18   11   37 1   
    19   12   13 1   
    20   12   20 1   
    21   13   14 1   
    22   13   38 1   
    23   14   15 1   
    24   14   17 2   
    25   15   16 1   
    26   16   18 1   
    27   16   19 1   
    28   16   57 1   
    29   18   39 1   
    30   18   40 1   
    31   18   41 1   
    32   19   42 1   
    33   19   43 1   
    34   19   44 1   
    35   20   22 1   
    36   20   45 1   
    37   20   46 1   
    38   22   23 2   
    39   22   24 1   
    40   24   25 1   
    41   24   27 3   
    42   25   29 1   
    43   25   47 1   
    44   25   48 1   
    45   26   28 1   
    46   26   49 1   
    47   26   50 1   
    48   26   51 1   
    49   27   52 1   
    50   28   29 ar  
    51   28   33 ar  
    52   29   30 ar  
    53   30   31 ar  
    54   30   53 1   
    55   31   32 ar  
    56   31   54 1   
    57   32   33 ar  
    58   32   55 1   
    59   33   56 1   
@<TRIPOS>SUBSTRUCTURE
     1 3OB         1 TEMP              0 ****  ****    0 ROOT
