@<TRIPOS>MOLECULE
3OB
   56    59     1     0     0
SMALL
bcc


@<TRIPOS>ATOM
      1 C1         -4.3340    1.9760   -2.2360 ca        1 3OB      0.017000
      2 C2         -3.8740    2.8680   -1.2570 ca        1 3OB     -0.119000
      3 C3         -2.8840    2.4490   -0.3640 ca        1 3OB      0.039400
      4 C4         -2.3440    1.1620   -0.4330 ca        1 3OB     -0.147000
      5 C5         -2.8180    0.2900   -1.4190 ca        1 3OB      0.139100
      6 C6         -3.8160    0.6800   -2.3280 ca        1 3OB     -0.118000
      7 O7         -2.3170   -0.9900   -1.6290 os        1 3OB     -0.244200
      8 C8         -5.3430    2.3940   -3.1480 cg        1 3OB      0.231800
      9 CL9        -2.3230    3.5230    0.8260 cl        1 3OB     -0.077400
     10 C10        -1.5290   -1.5330   -0.6150 cc        1 3OB      0.130100
     11 C11        -0.1710   -1.7860   -0.9920 cc        1 3OB     -0.232000
     12 C12         0.6590   -2.4440   -0.1160 cd        1 3OB      0.057400
     13 N13         0.2020   -2.8470    1.1220 n         1 3OB     -0.429100
     14 C14        -1.1240   -2.6500    1.5330 c         1 3OB      0.674700
     15 C15        -2.0430   -1.9410    0.6010 cd        1 3OB     -0.007200
     16 N16        -3.3740   -1.6490    0.9760 nh        1 3OB     -0.623400
     17 O17        -1.4470   -3.0840    2.6560 o         1 3OB     -0.635500
     18 C18        -4.3770   -2.4370    0.2860 c3        1 3OB      0.168100
     19 C19        -3.6340   -1.4940    2.3900 c3        1 3OB      0.168100
     20 C20         2.0720   -2.7670   -0.5080 c3        1 3OB     -0.122200
     21 N21        -6.1680    2.7370   -3.8930 n1        1 3OB     -0.352800
     22 C22         3.0450   -2.4010    0.6040 c         1 3OB      0.660100
     23 O23         3.0950   -3.1260    1.6230 o         1 3OB     -0.620100
     24 N24         3.8640   -1.2960    0.4860 n         1 3OB     -0.461800
     25 C25         3.7700   -0.4120   -0.6530 c3        1 3OB      0.145300
     26 C26         6.0580   -0.2980    1.1270 c3        1 3OB     -0.051100
     27 C27         4.7560   -0.9600    1.5770 c3        1 3OB      0.093000
     28 C28         5.7850    0.8430    0.2180 ca        1 3OB     -0.068300
     29 C29         4.6630    0.7920   -0.6190 ca        1 3OB     -0.096300
     30 C30         4.3810    1.8630   -1.4740 ca        1 3OB     -0.120000
     31 C31         5.2210    2.9740   -1.5010 ca        1 3OB     -0.126000
     32 C32         6.3430    3.0230   -0.6720 ca        1 3OB     -0.121000
     33 C33         6.6230    1.9630    0.1870 ca        1 3OB     -0.122000
     34 H2         -4.2920    3.8840   -1.1940 ha        1 3OB      0.161000
     35 H4         -1.5760    0.8300    0.2810 ha        1 3OB      0.167000
     36 H6         -4.1710   -0.0280   -3.0910 ha        1 3OB      0.164000
     37 H11         0.1710   -1.4610   -1.9830 ha        1 3OB      0.163000
     38 HN13        0.8320   -3.3220    1.7440 hn        1 3OB      0.363500
     39 H18        -4.4190   -3.4990    0.6490 h1        1 3OB      0.044700
     40 H18A       -5.3750   -1.9570    0.4620 h1        1 3OB      0.044700
     41 H18B       -4.1550   -2.4350   -0.8140 h1        1 3OB      0.044700
     42 H19        -2.7960   -0.9250    2.8690 h1        1 3OB      0.044700
     43 H19A       -4.5850   -0.9070    2.4940 h1        1 3OB      0.044700
     44 H19B       -3.7470   -2.4760    2.9250 h1        1 3OB      0.044700
     45 H20         2.1640   -3.8790   -0.6660 hc        1 3OB      0.091200
     46 H20A        2.3110   -2.2680   -1.4820 hc        1 3OB      0.091200
     47 H25         4.0370   -0.9970   -1.5860 h1        1 3OB      0.048700
     48 H25A        2.6990   -0.0640   -0.7590 h1        1 3OB      0.048700
     49 H26         6.6080    0.0440    2.0430 hc        1 3OB      0.064700
     50 H26A        6.7100   -1.0450    0.5990 hc        1 3OB      0.064700
     51 H27         4.2150   -0.2600    2.2780 h1        1 3OB      0.065700
     52 H27A        5.0000   -1.9030    2.1470 h1        1 3OB      0.065700
     53 H30         3.4950    1.8270   -2.1260 ha        1 3OB      0.133000
     54 H31         4.9980    3.8140   -2.1750 ha        1 3OB      0.137000
     55 H32         7.0050    3.9010   -0.6950 ha        1 3OB      0.136000
     56 H33         7.5030    2.0030    0.8460 ha        1 3OB      0.136000
@<TRIPOS>BOND
     1    1    2 ar  
     2    1    6 ar  
     3    1    8 1   
     4    2    3 ar  
     5    2   34 1   
     6    3    4 ar  
     7    3    9 1   
     8    4    5 ar  
     9    4   35 1   
    10    5    6 ar  
    11    5    7 1   
    12    6   36 1   
    13    7   10 1   
    14    8   21 3   
    15   10   11 1   
    16   10   15 2   
    17   11   12 2   
    18   11   37 1   
    19   12   13 1   
    20   12   20 1   
    21   13   14 1   
    22   13   38 1   
    23   14   15 1   
    24   14   17 2   
    25   15   16 1   
    26   16   18 1   
    27   16   19 1   
    28   18   39 1   
    29   18   40 1   
    30   18   41 1   
    31   19   42 1   
    32   19   43 1   
    33   19   44 1   
    34   20   22 1   
    35   20   45 1   
    36   20   46 1   
    37   22   23 2   
    38   22   24 1   
    39   24   25 1   
    40   24   27 1   
    41   25   29 1   
    42   25   47 1   
    43   25   48 1   
    44   26   27 1   
    45   26   28 1   
    46   26   49 1   
    47   26   50 1   
    48   27   51 1   
    49   27   52 1   
    50   28   29 ar  
    51   28   33 ar  
    52   29   30 ar  
    53   30   31 ar  
    54   30   53 1   
    55   31   32 ar  
    56   31   54 1   
    57   32   33 ar  
    58   32   55 1   
    59   33   56 1   
@<TRIPOS>SUBSTRUCTURE
     1 3OB         1 TEMP              0 ****  ****    0 ROOT
