@<TRIPOS>MOLECULE
3OB
   56    53     1     0     0
SMALL
bcc


@<TRIPOS>ATOM
      1 C1          6.4960   -1.4680   -2.4480 c1        1 3OB      0.020000
      2 C2          5.8220   -1.4550   -3.6720 c1        1 3OB     -0.119000
      3 C3          4.4320   -1.4930   -3.7010 c1        1 3OB     -0.039000
      4 C4          3.7100   -1.5430   -2.5080 c1        1 3OB     -0.144000
      5 C5          4.3820   -1.5560   -1.2870 c1        1 3OB      0.095000
      6 C6          5.7770   -1.5190   -1.2590 c1        1 3OB     -0.117000
      7 O7          3.6380   -1.7520   -0.0530 os        1 3OB     -0.157000
      8 C8          8.0440   -1.5360   -2.4190 c1        1 3OB     -0.097000
      9 CL9         3.5900   -1.5290   -5.2340 cl        1 3OB      0.001000
     10 C10         2.2470   -1.6130   -0.3080 c2        1 3OB      0.093000
     11 C11         1.6270   -0.2770   -0.2610 c2        1 3OB     -0.238000
     12 C12         0.1110   -0.1380   -0.3350 c1        1 3OB      0.071000
     13 N13        -0.7280   -1.3310   -0.4760 n2        1 3OB     -0.263000
     14 C14        -0.1260   -2.6600   -0.4250 c2        1 3OB      0.313000
     15 C15         1.3930   -2.8110   -0.3530 c2        1 3OB     -0.077000
     16 N16         1.9730   -4.1010   -0.1910 n3        1 3OB     -0.224000
     17 O17        -0.8340   -3.6440   -0.3830 o         1 3OB     -0.363000
     18 C18         2.4280   -4.5300    1.1140 c3        1 3OB     -0.108500
     19 C19         1.9590   -5.0060   -1.2510 c3        1 3OB     -0.108500
     20 C20        -0.5630    1.2960   -0.2060 c3        1 3OB     -0.154000
     21 N21         9.2070   -1.5860   -2.3980 n1        1 3OB     -0.029000
     22 C22        -2.1060    1.1280   -0.0000 c2        1 3OB      0.300000
     23 O23        -2.6330    0.0780   -0.2520 o         1 3OB     -0.364000
     24 N24        -2.9150    2.2700    0.3600 n         1 3OB     -0.305000
     25 C25        -4.2780    2.1730    0.4200 c3        1 3OB     -0.007000
     26 C26        -2.6950    4.1040    1.8930 c3        1 3OB     -0.148000
     27 C27        -2.3260    3.5010    0.6560 c3        1 3OB     -0.035000
     28 C28        -4.1630    3.8810    2.3600 c2        1 3OB     -0.071000
     29 C29        -4.9840    2.9830    1.5740 c2        1 3OB     -0.092000
     30 C30        -6.3420    2.8390    1.8700 c1        1 3OB     -0.119000
     31 C31        -6.9110    3.5620    2.9290 c1        1 3OB     -0.124500
     32 C32        -6.1000    4.4500    3.7080 c1        1 3OB     -0.124500
     33 C33        -4.7310    4.5980    3.4120 c1        1 3OB     -0.124000
     34 H2          6.3300   -1.4200   -4.5110 ha        1 3OB      0.160000
     35 H4          2.7270   -1.5700   -2.5290 ha        1 3OB      0.168000
     36 H6          6.2460   -1.5280   -0.4070 ha        1 3OB      0.163000
     37 H11         2.1800    0.5080   -0.1670 ha        1 3OB      0.163000
     38 HN13       -1.6230   -1.2460   -0.5180 hn        1 3OB      0.273000
     39 H18         3.2380   -5.0910    1.0130 h1        1 3OB      0.083333
     40 H18A        1.7120   -5.0590    1.5550 h1        1 3OB      0.083333
     41 H18B        2.6390   -3.7480    1.6610 h1        1 3OB      0.083333
     42 H19         2.8730   -5.2110   -1.5130 h1        1 3OB      0.083333
     43 H19A        1.5070   -5.8300   -0.9710 h1        1 3OB      0.083333
     44 H19B        1.4820   -4.6140   -2.0110 h1        1 3OB      0.083333
     45 H20        -0.1740    1.7760    0.5720 hc        1 3OB      0.129000
     46 H20A       -0.3950    1.8180   -1.0360 hc        1 3OB      0.129000
     47 H25        -4.4980    1.2320    0.5490 h1        1 3OB      0.120000
     48 H25A       -4.6350    2.4980   -0.4270 h1        1 3OB      0.120000
     49 H26        -2.5460    5.0830    1.8140 hc        1 3OB      0.099000
     50 H26A       -2.0980    3.7600    2.5890 hc        1 3OB      0.099000
     51 H27        -1.3540    3.3620    0.6740 h1        1 3OB      0.096500
     52 H27A       -2.5740    4.1300   -0.0640 h1        1 3OB      0.096500
     53 H30        -6.9060    2.2230    1.3290 ha        1 3OB      0.137000
     54 H31        -7.8690    3.4580    3.1380 ha        1 3OB      0.135500
     55 H32        -6.4920    4.9470    4.4340 ha        1 3OB      0.135500
     56 H33        -4.1750    5.2090    3.9480 ha        1 3OB      0.133000
@<TRIPOS>BOND
     1    1    6 1   
     2    1    8 1   
     3    2    3 1   
     4    2   34 1   
     5    3    9 1   
     6    4    5 1   
     7    4   35 1   
     8    5    7 1   
     9    6   36 1   
    10    7   10 1   
    11    8   21 1   
    12   10   11 1   
    13   10   15 1   
    14   11   12 1   
    15   11   37 1   
    16   12   20 1   
    17   13   14 1   
    18   13   38 1   
    19   14   15 1   
    20   14   17 1   
    21   15   16 1   
    22   16   18 1   
    23   16   19 1   
    24   18   39 1   
    25   18   40 1   
    26   18   41 1   
    27   19   42 1   
    28   19   43 1   
    29   19   44 1   
    30   20   22 1   
    31   20   45 1   
    32   20   46 1   
    33   22   23 1   
    34   22   24 1   
    35   24   25 1   
    36   24   27 1   
    37   25   29 1   
    38   25   47 1   
    39   25   48 1   
    40   26   27 1   
    41   26   28 1   
    42   26   49 1   
    43   26   50 1   
    44   27   51 1   
    45   27   52 1   
    46   28   29 1   
    47   28   33 1   
    48   29   30 1   
    49   30   53 1   
    50   31   32 1   
    51   31   54 1   
    52   32   55 1   
    53   33   56 1   
@<TRIPOS>SUBSTRUCTURE
     1 3OB         1 TEMP              0 ****  ****    0 ROOT
