@<TRIPOS>MOLECULE
3OB
   57    59     1     0     0
SMALL
bcc


@<TRIPOS>ATOM
      1 C1         -0.5590   -2.0090    1.3300 ca        1 3OB      0.025000
      2 C2          0.1490   -1.4890    0.2380 ca        1 3OB     -0.069000
      3 C3          0.8460   -0.2810    0.3720 ca        1 3OB      0.021400
      4 C4          0.8430    0.4150    1.5850 ca        1 3OB     -0.106000
      5 C5          0.1220   -0.1260    2.6550 ca        1 3OB      0.050100
      6 C6         -0.5810   -1.3290    2.5560 ca        1 3OB     -0.097000
      7 O7         -0.0210    0.6460    3.8220 os        1 3OB     -0.258200
      8 C8         -1.2650   -3.2360    1.1980 cg        1 3OB      0.201800
      9 CL9         1.7000    0.3450   -0.9450 cl        1 3OB     -0.027400
     10 C10         0.8710    0.4210    4.8430 cc        1 3OB      0.304100
     11 C11         1.9110   -0.5370    4.7590 cc        1 3OB     -0.329000
     12 C12         2.7910   -0.7070    5.8240 cd        1 3OB      0.182400
     13 N13         2.6520    0.0260    6.9700 n         1 3OB     -0.392100
     14 C14         1.6490    0.9990    7.1210 c         1 3OB      0.714700
     15 C15         0.7170    1.1880    5.9990 cd        1 3OB     -0.292200
     16 N16        -0.3090    2.2070    6.1930 n4        1 3OB     -0.508200
     17 O17         1.5740    1.6510    8.1810 o         1 3OB     -0.618500
     18 C18        -1.6790    1.6260    6.1480 c3        1 3OB      0.089600
     19 C19        -0.1700    3.3240    5.2190 c3        1 3OB      0.089600
     20 C20         3.8490   -1.7670    5.7120 c3        1 3OB     -0.163200
     21 N21        -1.8420   -4.2400    1.0930 n1        1 3OB     -0.294800
     22 C22         5.1930   -1.4260    6.3200 c         1 3OB      0.610100
     23 O23         5.3960   -0.3440    6.8950 o         1 3OB     -0.555100
     24 N24         6.2650   -2.3720    6.2160 n         1 3OB     -0.296400
     25 C25         5.9720   -3.7170    5.7130 c3        1 3OB      0.127300
     26 C26         7.0080   -4.4650    8.4040 c3        1 3OB     -0.071800
     27 C27         7.5050   -2.1120    6.6000 c1        1 3OB     -0.011500
     28 C28         5.7000   -4.9560    7.9100 ca        1 3OB     -0.037300
     29 C29         5.1940   -4.5910    6.6520 ca        1 3OB     -0.145300
     30 C30         3.9700   -5.1160    6.2150 ca        1 3OB     -0.139000
     31 C31         3.2400   -5.9820    7.0230 ca        1 3OB     -0.135000
     32 C32         3.7290   -6.3310    8.2830 ca        1 3OB     -0.105000
     33 C33         4.9490   -5.8220    8.7190 ca        1 3OB     -0.127000
     34 H2          0.1540   -2.0300   -0.7250 ha        1 3OB      0.183000
     35 H4          1.3810    1.3690    1.6950 ha        1 3OB      0.171000
     36 H6         -1.1450   -1.7270    3.4130 ha        1 3OB      0.166000
     37 H11         2.0190   -1.1400    3.8460 ha        1 3OB      0.186000
     38 HN13        3.3520   -0.0330    7.6940 hn        1 3OB      0.386500
     39 H18        -1.7570    0.8090    6.9130 hx        1 3OB      0.102700
     40 H18A       -2.4220    2.4360    6.3740 hx        1 3OB      0.102700
     41 H18B       -1.8730    1.2050    5.1250 hx        1 3OB      0.102700
     42 H19        -0.9360    4.1090    5.4570 hx        1 3OB      0.102700
     43 H19A       -0.3330    2.9350    4.1780 hx        1 3OB      0.102700
     44 H19B        0.8620    3.7580    5.3030 hx        1 3OB      0.102700
     45 H20         4.0010   -2.0010    4.6200 hc        1 3OB      0.124700
     46 H20A        3.4600   -2.7070    6.2100 hc        1 3OB      0.124700
     47 H25         6.9680   -4.2140    5.5050 h1        1 3OB      0.082700
     48 H25A        5.4250   -3.6170    4.7320 h1        1 3OB      0.082700
     49 H26         7.7680   -4.4330    7.5800 hc        1 3OB      0.061033
     50 H26A        7.4000   -5.1240    9.2190 hc        1 3OB      0.061033
     51 H27         6.9050   -3.4290    8.8160 hc        1 3OB      0.061033
     52 H27A        7.7090   -1.1010    7.0090 ha        1 3OB      0.024500
     53 H30         3.5940   -4.8660    5.2110 ha        1 3OB      0.120000
     54 H31         2.2870   -6.4010    6.6660 ha        1 3OB      0.140000
     55 H32         3.1560   -7.0160    8.9260 ha        1 3OB      0.146000
     56 H33         5.3400   -6.1120    9.7080 ha        1 3OB      0.148000
     57 H161       -0.1570    2.5940    7.1470 hn        1 3OB      0.477800
@<TRIPOS>BOND
     1    1    2 ar  
     2    1    6 ar  
     3    1    8 1   
     4    2    3 ar  
     5    2   34 1   
     6    3    4 ar  
     7    3    9 1   
     8    4    5 ar  
     9    4   35 1   
    10    5    6 ar  
    11    5    7 1   
    12    6   36 1   
    13    7   10 1   
    14    8   21 3   
    15   10   11 1   
    16   10   15 2   
    17   11   12 2   
    18   11   37 1   
    19   12   13 1   
    20   12   20 1   
    21   13   14 1   
    22   13   38 1   
    23   14   15 1   
    24   14   17 2   
    25   15   16 1   
    26   16   18 1   
    27   16   19 1   
    28   16   57 1   
    29   18   39 1   
    30   18   40 1   
    31   18   41 1   
    32   19   42 1   
    33   19   43 1   
    34   19   44 1   
    35   20   22 1   
    36   20   45 1   
    37   20   46 1   
    38   22   23 2   
    39   22   24 1   
    40   24   25 1   
    41   24   27 3   
    42   25   29 1   
    43   25   47 1   
    44   25   48 1   
    45   26   28 1   
    46   26   49 1   
    47   26   50 1   
    48   26   51 1   
    49   27   52 1   
    50   28   29 ar  
    51   28   33 ar  
    52   29   30 ar  
    53   30   31 ar  
    54   30   53 1   
    55   31   32 ar  
    56   31   54 1   
    57   32   33 ar  
    58   32   55 1   
    59   33   56 1   
@<TRIPOS>SUBSTRUCTURE
     1 3OB         1 TEMP              0 ****  ****    0 ROOT
