@<TRIPOS>MOLECULE
3OB
   57    59     1     0     0
SMALL
bcc


@<TRIPOS>ATOM
      1 C1         -0.4400   -2.0060    1.2370 ca        1 3OB      0.025000
      2 C2          0.2970   -1.4850    0.1650 ca        1 3OB     -0.069000
      3 C3          0.9860   -0.2750    0.3180 ca        1 3OB      0.021400
      4 C4          0.9460    0.4220    1.5310 ca        1 3OB     -0.106000
      5 C5          0.1970   -0.1200    2.5800 ca        1 3OB      0.050100
      6 C6         -0.4980   -1.3260    2.4620 ca        1 3OB     -0.097000
      7 O7          0.0180    0.6510    3.7420 os        1 3OB     -0.258200
      8 C8         -1.1380   -3.2350    1.0860 cg        1 3OB      0.201800
      9 Cl9         1.8760    0.3540   -0.9740 cl        1 3OB     -0.027400
     10 C10         0.8810    0.4300    4.7880 cc        1 3OB      0.304100
     11 C11         1.9260   -0.5250    4.7350 cc        1 3OB     -0.329000
     12 C12         2.7750   -0.6920    5.8250 cd        1 3OB      0.182400
     13 N13         2.6020    0.0410    6.9660 ns        1 3OB     -0.392100
     14 C14         1.5920    1.0120    7.0870 c         1 3OB      0.714700
     15 C15         0.6920    1.1970    5.9390 cd        1 3OB     -0.292200
     16 N16        -0.3420    2.2130    6.1030 nx        1 3OB     -0.508200
     17 O17         1.4850    1.6630    8.1440 o         1 3OB     -0.618500
     18 C18        -1.7080    1.6280    6.0180 c3        1 3OB      0.089600
     19 C19        -0.1780    3.3300    5.1320 c3        1 3OB      0.089600
     20 C20         3.8400   -1.7500    5.7440 c3        1 3OB     -0.163200
     21 N21        -1.7080   -4.2420    0.9650 n1        1 3OB     -0.294800
     22 C22         5.1640   -1.4040    6.3900 c         1 3OB      0.610100
     23 O23         5.3480   -0.3220    6.9700 o         1 3OB     -0.555100
     24 N24         6.2410   -2.3470    6.3180 n         1 3OB     -0.296400
     25 C25         5.9660   -3.6930    5.8070 c3        1 3OB      0.127300
     26 C26         6.9260   -4.4380    8.5270 c3        1 3OB     -0.071800
     27 C27         7.4690   -2.0850    6.7370 c1        1 3OB     -0.011500
     28 C28         5.6340   -4.9320    7.9960 ca        1 3OB     -0.037300
     29 C29         5.1640   -4.5700    6.7230 ca        1 3OB     -0.145300
     30 C30         3.9550   -5.0980    6.2510 ca        1 3OB     -0.139000
     31 C31         3.2040   -5.9660    7.0380 ca        1 3OB     -0.135000
     32 C32         3.6570   -6.3120    8.3120 ca        1 3OB     -0.105000
     33 C33         4.8620   -5.8010    8.7830 ca        1 3OB     -0.127000
     34 H2          0.3320   -2.0260   -0.7970 ha        1 3OB      0.183000
     35 H4          1.4780    1.3780    1.6560 ha        1 3OB      0.171000
     36 H6         -1.0860   -1.7250    3.3020 ha        1 3OB      0.166000
     37 H11         2.0620   -1.1290    3.8260 ha        1 3OB      0.186000
     38 HN13        3.2810   -0.0150    7.7090 hn        1 3OB      0.386500
     39 H18        -1.8720    1.2060    4.9910 hx        1 3OB      0.102700
     40 H18A       -1.8060    0.8120    6.7820 hx        1 3OB      0.102700
     41 H18B       -2.4600    2.4360    6.2230 hx        1 3OB      0.102700
     42 H19        -0.9530    4.1130    5.3480 hx        1 3OB      0.102700
     43 H19A       -0.3100    2.9400    4.0880 hx        1 3OB      0.102700
     44 H19B        0.8500    3.7660    5.2450 hx        1 3OB      0.102700
     45 H20         4.0240   -1.9830    4.6570 hc        1 3OB      0.124700
     46 H20A        3.4380   -2.6900    6.2300 hc        1 3OB      0.124700
     47 H25         6.9700   -4.1880    5.6280 h1        1 3OB      0.082700
     48 H25A        5.4490   -3.5950    4.8100 h1        1 3OB      0.082700
     49 H26         7.7090   -4.4040    7.7260 hc        1 3OB      0.061033
     50 H26A        7.2950   -5.0950    9.3530 hc        1 3OB      0.061033
     51 H27         6.8080   -3.4020    8.9350 hc        1 3OB      0.061033
     52 H27A        7.6580   -1.0720    7.1520 ha        1 3OB      0.024500
     53 H30         3.6070   -4.8500    5.2360 ha        1 3OB      0.120000
     54 H31         2.2630   -6.3870    6.6530 ha        1 3OB      0.140000
     55 H32         3.0670   -7.0000    8.9380 ha        1 3OB      0.146000
     56 H33         5.2250   -6.0880    9.7820 ha        1 3OB      0.148000
     57 H161       -0.2180    2.6010    7.0610 hn        1 3OB      0.477800
@<TRIPOS>BOND
     1    1    2 ar  
     2    1    6 ar  
     3    1    8 1   
     4    2    3 ar  
     5    2   34 1   
     6    3    4 ar  
     7    3    9 1   
     8    4    5 ar  
     9    4   35 1   
    10    5    6 ar  
    11    5    7 1   
    12    6   36 1   
    13    7   10 1   
    14    8   21 3   
    15   10   11 1   
    16   10   15 2   
    17   11   12 2   
    18   11   37 1   
    19   12   13 1   
    20   12   20 1   
    21   13   14 1   
    22   13   38 1   
    23   14   15 1   
    24   14   17 2   
    25   15   16 1   
    26   16   18 1   
    27   16   19 1   
    28   16   57 1   
    29   18   39 1   
    30   18   40 1   
    31   18   41 1   
    32   19   42 1   
    33   19   43 1   
    34   19   44 1   
    35   20   22 1   
    36   20   45 1   
    37   20   46 1   
    38   22   23 2   
    39   22   24 1   
    40   24   25 1   
    41   24   27 3   
    42   25   29 1   
    43   25   47 1   
    44   25   48 1   
    45   26   28 1   
    46   26   49 1   
    47   26   50 1   
    48   26   51 1   
    49   27   52 1   
    50   28   29 ar  
    51   28   33 ar  
    52   29   30 ar  
    53   30   31 ar  
    54   30   53 1   
    55   31   32 ar  
    56   31   54 1   
    57   32   33 ar  
    58   32   55 1   
    59   33   56 1   
@<TRIPOS>SUBSTRUCTURE
     1 3OB         1 TEMP              0 ****  ****    0 ROOT
