@<TRIPOS>MOLECULE
3OC
   19    19     1     0     0
SMALL
bcc


@<TRIPOS>ATOM
      1 CAF         0.0240    0.1460   -0.0990 c3        1 3OC     -0.067400
      2 CAD         1.5350    0.0760   -0.0200 c3        1 3OC     -0.070400
      3 CAE         2.0020   -0.0200    1.4170 c3        1 3OC     -0.179400
      4 CAH         1.4190    1.0850    2.2580 c         1 3OC      0.575100
      5 OAA         2.1350    1.7300    3.0390 o         1 3OC     -0.591100
      6 CAG        -0.0520    1.3150    2.1220 c3        1 3OC     -0.164400
      7 CAJ        -0.5280    1.3230    0.6810 c3        1 3OC     -0.184700
      8 CAI        -2.0810    1.2540    0.6520 c         1 3OC      0.915600
      9 OAC        -2.6500    0.3930    1.3810 o         1 3OC     -0.839300
     10 OAB        -2.6830    2.0610   -0.1090 o         1 3OC     -0.839300
     11 HAF        -0.4240   -0.7990    0.3060 hc        1 3OC      0.047200
     12 HAFA       -0.2920    0.2390   -1.1700 hc        1 3OC      0.047200
     13 HAD         1.9080   -0.8150   -0.5890 hc        1 3OC      0.025700
     14 HADA        1.9800    0.9890   -0.4970 hc        1 3OC      0.025700
     15 HAE         1.6650   -0.9950    1.8590 hc        1 3OC      0.049700
     16 HAEA        3.1220    0.0100    1.4640 hc        1 3OC      0.049700
     17 HAG        -0.5940    0.4890    2.6640 hc        1 3OC      0.078200
     18 HAGA       -0.3350    2.2820    2.6140 hc        1 3OC      0.078200
     19 HAJ        -0.2080    2.2790    0.1880 hc        1 3OC      0.040700
@<TRIPOS>BOND
     1    1    2 1   
     2    1    7 1   
     3    1   11 1   
     4    1   12 1   
     5    2    3 1   
     6    2   13 1   
     7    2   14 1   
     8    3    4 1   
     9    3   15 1   
    10    3   16 1   
    11    4    5 2   
    12    4    6 1   
    13    6    7 1   
    14    6   17 1   
    15    6   18 1   
    16    7    8 1   
    17    7   19 1   
    18    8    9 1   
    19    8   10 1   
@<TRIPOS>SUBSTRUCTURE
     1 3OC         1 TEMP              0 ****  ****    0 ROOT
