@<TRIPOS>MOLECULE
3OC
   19    19     1     0     0
SMALL
bcc


@<TRIPOS>ATOM
      1 CAF         0.0820   -1.4560    0.2090 c3        1 3OC     -0.067400
      2 CAD        -1.3890   -1.6480    0.5150 c3        1 3OC     -0.070400
      3 CAE        -2.2490   -0.7600   -0.3580 c3        1 3OC     -0.179400
      4 CAH        -1.8130    0.6800   -0.2740 c         1 3OC      0.575100
      5 OAA        -2.6470    1.5850   -0.1280 o         1 3OC     -0.591100
      6 CAG        -0.3460    0.9370   -0.4180 c3        1 3OC     -0.164400
      7 CAJ         0.5130   -0.0140    0.3930 c3        1 3OC     -0.184700
      8 CAI         1.9960    0.1220   -0.0560 c         1 3OC      0.915600
      9 OAC         2.2420    0.1150   -1.2950 o         1 3OC     -0.839300
     10 OAB         2.8680    0.2230    0.8500 o         1 3OC     -0.839300
     11 HAF         0.6940   -2.1080    0.8840 hc        1 3OC      0.047200
     12 HAFA        0.2960   -1.7660   -0.8480 hc        1 3OC      0.047200
     13 HAD        -1.6790   -2.7190    0.3500 hc        1 3OC      0.025700
     14 HADA       -1.5830   -1.4110    1.5940 hc        1 3OC      0.025700
     15 HAE        -2.1540   -1.0790   -1.4310 hc        1 3OC      0.049700
     16 HAEA       -3.3270   -0.8530   -0.0660 hc        1 3OC      0.049700
     17 HAG        -0.0700    0.8190   -1.5040 hc        1 3OC      0.078200
     18 HAGA       -0.1140    1.9940   -0.1250 hc        1 3OC      0.078200
     19 HAJ         0.4470    0.2570    1.4800 hc        1 3OC      0.040700
@<TRIPOS>BOND
     1    1    2 1   
     2    1    7 1   
     3    1   11 1   
     4    1   12 1   
     5    2    3 1   
     6    2   13 1   
     7    2   14 1   
     8    3    4 1   
     9    3   15 1   
    10    3   16 1   
    11    4    5 2   
    12    4    6 1   
    13    6    7 1   
    14    6   17 1   
    15    6   18 1   
    16    7    8 1   
    17    7   19 1   
    18    8    9 1   
    19    8   10 1   
@<TRIPOS>SUBSTRUCTURE
     1 3OC         1 TEMP              0 ****  ****    0 ROOT
