@<TRIPOS>MOLECULE
3OC
   19    19     1     0     0
SMALL
bcc


@<TRIPOS>ATOM
      1 CAF        -0.2980   -0.5700   -1.0390 c3        1 3OC     -0.067400
      2 CAD         1.1850   -0.5700   -1.0390 c3        1 3OC     -0.070400
      3 CAE         1.8050   -0.5700    0.3190 c3        1 3OC     -0.179400
      4 CAH         1.2040    0.5570    1.1560 c         1 3OC      0.575100
      5 OAA         1.8520    1.0610    2.0520 o         1 3OC     -0.591100
      6 CAG        -0.3380    0.5620    1.2220 c3        1 3OC     -0.164400
      7 CAJ        -0.9190    0.5530   -0.2210 c3        1 3OC     -0.184700
      8 CAI        -2.4790    0.4850   -0.2230 c         1 3OC      0.915600
      9 OAC        -3.1500    1.4370   -0.7020 o         1 3OC     -0.839300
     10 OAB        -3.0660   -0.5200    0.2560 o         1 3OC     -0.839300
     11 HAF        -0.6080   -0.4900   -1.9610 hc        1 3OC      0.047200
     12 HAFA       -0.6080   -1.4230   -0.6790 hc        1 3OC      0.047200
     13 HAD         1.4930    0.2220   -1.5190 hc        1 3OC      0.025700
     14 HADA        1.4930   -1.3620   -1.5180 hc        1 3OC      0.025700
     15 HAE         1.7260   -1.4160    0.8000 hc        1 3OC      0.049700
     16 HAEA        2.7750   -0.4910    0.2350 hc        1 3OC      0.049700
     17 HAG        -0.5590   -0.1890    1.8050 hc        1 3OC      0.078200
     18 HAGA       -0.7380    1.3080    1.7070 hc        1 3OC      0.078200
     19 HAJ        -0.7700    1.4150   -0.6550 hc        1 3OC      0.040700
@<TRIPOS>BOND
     1    1    2 1   
     2    1    7 1   
     3    1   11 1   
     4    1   12 1   
     5    2    3 1   
     6    2   13 1   
     7    2   14 1   
     8    3    4 1   
     9    3   15 1   
    10    3   16 1   
    11    4    5 2   
    12    4    6 1   
    13    6    7 1   
    14    6   17 1   
    15    6   18 1   
    16    7    8 1   
    17    7   19 1   
    18    8    9 1   
    19    8   10 1   
@<TRIPOS>SUBSTRUCTURE
     1 3OC         1 TEMP              0 ****  ****    0 ROOT
