@<TRIPOS>MOLECULE
3OC
   19    19     1     0     0
SMALL
bcc


@<TRIPOS>ATOM
      1 CAF         0.0370    0.1800   -0.1230 c3        1 3OC     -0.067400
      2 CAD         1.5450    0.0830   -0.0230 c3        1 3OC     -0.070400
      3 CAE         1.9880   -0.0580    1.4180 c3        1 3OC     -0.179400
      4 CAH         1.4100    1.0340    2.2790 c         1 3OC      0.575100
      5 OAA         2.1230    1.6470    3.0870 o         1 3OC     -0.591100
      6 CAG        -0.0560    1.2920    2.1250 c3        1 3OC     -0.164400
      7 CAJ        -0.5080    1.3460    0.6780 c3        1 3OC     -0.184700
      8 CAI        -2.0620    1.3040    0.6230 c         1 3OC      0.915600
      9 OAC        -2.6550    0.4310    1.3190 o         1 3OC     -0.839300
     10 OAB        -2.6380    2.1400   -0.1240 o         1 3OC     -0.839300
     11 HAF        -0.2610    0.3050   -1.1970 hc        1 3OC      0.047200
     12 HAFA       -0.4330   -0.7680    0.2500 hc        1 3OC      0.047200
     13 HAD         1.9130   -0.7990   -0.6090 hc        1 3OC      0.025700
     14 HADA        2.0120    1.0000   -0.4690 hc        1 3OC      0.025700
     15 HAE         3.1070   -0.0480    1.4830 hc        1 3OC      0.049700
     16 HAEA        1.6270   -1.0380    1.8300 hc        1 3OC      0.049700
     17 HAG        -0.6190    0.4610    2.6380 hc        1 3OC      0.078200
     18 HAGA       -0.3300    2.2510    2.6390 hc        1 3OC      0.078200
     19 HAJ        -0.1650    2.3080    0.2150 hc        1 3OC      0.040700
@<TRIPOS>BOND
     1    1    2 1   
     2    1    7 1   
     3    1   11 1   
     4    1   12 1   
     5    2    3 1   
     6    2   13 1   
     7    2   14 1   
     8    3    4 1   
     9    3   15 1   
    10    3   16 1   
    11    4    5 2   
    12    4    6 1   
    13    6    7 1   
    14    6   17 1   
    15    6   18 1   
    16    7    8 1   
    17    7   19 1   
    18    8    9 1   
    19    8   10 1   
@<TRIPOS>SUBSTRUCTURE
     1 3OC         1 TEMP              0 ****  ****    0 ROOT
