@<TRIPOS>MOLECULE
3OE
   80    83     1     0     0
SMALL
bcc


@<TRIPOS>ATOM
      1 C8         -3.7010   -1.1660    0.9510 ca        1 3OE     -0.182600
      2 C27        -2.3470   -1.4910    1.4720 c         1 3OE      0.672700
      3 O28        -2.0140   -1.2360    2.6460 o         1 3OE     -0.591100
      4 C34        -4.7930   -1.3020    1.8230 ca        1 3OE     -0.054000
      5 C33        -6.0770   -1.0020    1.3940 ca        1 3OE     -0.192000
      6 C30        -3.9040   -0.7050   -0.3520 ca        1 3OE     -0.054000
      7 C31        -5.1880   -0.3920   -0.7970 ca        1 3OE     -0.192000
      8 C32        -6.2740   -0.5460    0.0740 ca        1 3OE      0.154100
      9 O35        -7.5850   -0.2740   -0.2470 os        1 3OE     -0.322900
     10 C36        -7.8220    0.1650   -1.5950 c3        1 3OE      0.174700
     11 C37        -9.2890    0.3900   -1.7470 ca        1 3OE     -0.097300
     12 C38        -9.8830    0.1710   -2.9960 ca        1 3OE     -0.111000
     13 C39       -11.2440    0.4140   -3.1720 ca        1 3OE     -0.130500
     14 C40       -12.0190    0.8670   -2.1040 ca        1 3OE     -0.123000
     15 C41       -11.4310    1.0790   -0.8580 ca        1 3OE     -0.130500
     16 C42       -10.0680    0.8430   -0.6780 ca        1 3OE     -0.111000
     17 N18        -1.4860   -2.1750    0.6150 n         1 3OE     -0.549900
     18 C17        -0.0840   -2.3160    0.9250 c3        1 3OE     -0.011300
     19 C15         0.7640   -1.3320    0.0800 c         1 3OE      0.633100
     20 O16         0.4560   -1.0720   -1.1010 o         1 3OE     -0.618100
     21 C19         0.4420   -3.7530    0.6350 c3        1 3OE      0.146100
     22 O20        -0.2480   -4.7050    1.4270 oh        1 3OE     -0.590800
     23 C43         1.9070   -3.8840    1.0130 c3        1 3OE     -0.107100
     24 N13         1.8240   -0.7080    0.7140 n         1 3OE     -0.527900
     25 C11         2.7810    0.0780   -0.0260 c3        1 3OE      0.023700
     26 C9          4.0550   -0.7430   -0.3680 c         1 3OE      0.628100
     27 O10         4.4100   -1.7080    0.3410 o         1 3OE     -0.620100
     28 C12         3.2490    1.3250    0.7410 c3        1 3OE     -0.080400
     29 C14         2.1200    2.3170    0.9420 c3        1 3OE     -0.036100
     30 C21         2.6120    3.5680    1.5820 ca        1 3OE     -0.083300
     31 C22         2.9090    3.5880    2.9500 ca        1 3OE     -0.126000
     32 C23         2.7700    4.7380    0.8300 ca        1 3OE     -0.126000
     33 C24         3.3610    4.7590    3.5550 ca        1 3OE     -0.127500
     34 C26         3.2210    5.9090    1.4380 ca        1 3OE     -0.127500
     35 C25         3.5180    5.9210    2.8000 ca        1 3OE     -0.130000
     36 C4          9.0330    1.5090   -1.8940 cc        1 3OE     -0.154100
     37 C5          9.0030    0.9650   -0.6310 cd        1 3OE     -0.159000
     38 C6          7.9210    0.0330   -0.4750 cd        1 3OE     -0.071300
     39 C7          7.6880   -0.6980    0.7780 c3        1 3OE     -0.050800
     40 S3          7.8030    0.9140   -2.8520 ss        1 3OE      0.001200
     41 C1          7.1830   -0.0770   -1.6410 cc        1 3OE     -0.165400
     42 C2          6.0110   -0.9640   -1.8610 c3        1 3OE      0.161300
     43 N29         4.7400   -0.3830   -1.5090 n         1 3OE     -0.545900
     44 H34        -4.6160   -1.6430    2.8570 ha        1 3OE      0.150000
     45 H33        -6.9420   -1.1090    2.0630 ha        1 3OE      0.150000
     46 H30        -3.0560   -0.5630   -1.0400 ha        1 3OE      0.150000
     47 H31        -5.3280   -0.0260   -1.8240 ha        1 3OE      0.150000
     48 H36        -7.2630    1.1250   -1.7710 h1        1 3OE      0.050700
     49 H36A       -7.4570   -0.6220   -2.3090 h1        1 3OE      0.050700
     50 H38        -9.2770   -0.1930   -3.8380 ha        1 3OE      0.139000
     51 H39       -11.7070    0.2440   -4.1550 ha        1 3OE      0.134000
     52 H40       -13.0940    1.0560   -2.2450 ha        1 3OE      0.133000
     53 H41       -12.0400    1.4320   -0.0130 ha        1 3OE      0.134000
     54 H42        -9.5990    1.0030    0.3050 ha        1 3OE      0.139000
     55 HN18       -1.7050   -2.1800   -0.3580 hn        1 3OE      0.316500
     56 H17         0.0500   -2.1150    2.0320 h1        1 3OE      0.118700
     57 H19         0.2950   -3.9870   -0.4570 h1        1 3OE      0.044700
     58 HO20       -1.1830   -4.6630    1.1910 ho        1 3OE      0.411000
     59 H43         2.0860   -3.4890    2.0420 hc        1 3OE      0.057367
     60 H43A        2.1920   -4.9640    1.0030 hc        1 3OE      0.057367
     61 H43B        2.5530   -3.3330    0.2880 hc        1 3OE      0.057367
     62 HN13        2.1670   -1.1180    1.5560 hn        1 3OE      0.323500
     63 H11         2.2790    0.4060   -0.9880 h1        1 3OE      0.102700
     64 H12         3.6770    1.0310    1.7350 hc        1 3OE      0.058200
     65 H12A        4.0710    1.8090    0.1500 hc        1 3OE      0.058200
     66 H14         1.3230    1.8590    1.5880 hc        1 3OE      0.058200
     67 H14A        1.6480    2.5520   -0.0500 hc        1 3OE      0.058200
     68 H22         2.7810    2.6720    3.5480 ha        1 3OE      0.131000
     69 H23         2.5330    4.7350   -0.2440 ha        1 3OE      0.131000
     70 H24         3.5910    4.7660    4.6310 ha        1 3OE      0.131500
     71 H26         3.3410    6.8240    0.8400 ha        1 3OE      0.131500
     72 H25         3.8730    6.8450    3.2790 ha        1 3OE      0.131000
     73 H5          9.7030    1.1950    0.1750 ha        1 3OE      0.156000
     74 H7          7.8240   -0.0200    1.6570 hc        1 3OE      0.055033
     75 H7A         6.6540   -1.1270    0.8140 hc        1 3OE      0.055033
     76 H7B         8.4210   -1.5400    0.8700 hc        1 3OE      0.055033
     77 H2          5.9590   -1.2410   -2.9560 h1        1 3OE      0.075200
     78 H2A         6.1490   -1.9150   -1.2660 h1        1 3OE      0.075200
     79 HN29        4.5110    0.4840   -1.9360 hn        1 3OE      0.308500
     80 H4          9.7580    2.2370   -2.2520 h4        1 3OE      0.172000
@<TRIPOS>BOND
     1    1    2 1   
     2    1    4 ar  
     3    1    6 ar  
     4    2    3 2   
     5    2   17 1   
     6    4    5 ar  
     7    4   44 1   
     8    5    8 ar  
     9    5   45 1   
    10    6    7 ar  
    11    6   46 1   
    12    7    8 ar  
    13    7   47 1   
    14    8    9 1   
    15    9   10 1   
    16   10   11 1   
    17   10   48 1   
    18   10   49 1   
    19   11   12 ar  
    20   11   16 ar  
    21   12   13 ar  
    22   12   50 1   
    23   13   14 ar  
    24   13   51 1   
    25   14   15 ar  
    26   14   52 1   
    27   15   16 ar  
    28   15   53 1   
    29   16   54 1   
    30   17   18 1   
    31   17   55 1   
    32   18   19 1   
    33   18   21 1   
    34   18   56 1   
    35   19   20 2   
    36   19   24 1   
    37   21   22 1   
    38   21   23 1   
    39   21   57 1   
    40   22   58 1   
    41   23   59 1   
    42   23   60 1   
    43   23   61 1   
    44   24   25 1   
    45   24   62 1   
    46   25   26 1   
    47   25   28 1   
    48   25   63 1   
    49   26   27 2   
    50   26   43 1   
    51   28   29 1   
    52   28   64 1   
    53   28   65 1   
    54   29   30 1   
    55   29   66 1   
    56   29   67 1   
    57   30   31 ar  
    58   30   32 ar  
    59   31   33 ar  
    60   31   68 1   
    61   32   34 ar  
    62   32   69 1   
    63   33   35 ar  
    64   33   70 1   
    65   34   35 ar  
    66   34   71 1   
    67   35   72 1   
    68   36   37 2   
    69   36   40 1   
    70   36   80 1   
    71   37   38 1   
    72   37   73 1   
    73   38   39 1   
    74   38   41 2   
    75   39   74 1   
    76   39   75 1   
    77   39   76 1   
    78   40   41 1   
    79   41   42 1   
    80   42   43 1   
    81   42   77 1   
    82   42   78 1   
    83   43   79 1   
@<TRIPOS>SUBSTRUCTURE
     1 3OE         1 TEMP              0 ****  ****    0 ROOT
