@<TRIPOS>MOLECULE
3OE
   80    69     1     0     0
SMALL
bcc


@<TRIPOS>ATOM
      1 C8          1.9150    1.3880    2.4960 c1        1 3OE     -0.167000
      2 C27         1.9270    2.2490    1.2180 c1        1 3OE      0.359000
      3 O28         1.5340    3.4130    1.2590 o         1 3OE     -0.395000
      4 C34         2.2930    0.0610    2.4390 c2        1 3OE     -0.063000
      5 C33         2.2140   -0.7430    3.5940 c1        1 3OE     -0.217000
      6 C30         1.4510    1.9360    3.7060 c1        1 3OE     -0.043000
      7 C31         1.3730    1.1430    4.8450 c1        1 3OE     -0.166000
      8 C32         1.7540   -0.1990    4.7900 c1        1 3OE      0.114000
      9 O35         1.5290   -1.0600    5.9330 os        1 3OE     -0.203000
     10 C36         2.2260   -2.3500    5.8490 c3        1 3OE      0.017000
     11 C37         1.9290   -3.1630    7.0630 c2        1 3OE     -0.092000
     12 C38         0.6540   -3.1270    7.6280 c2        1 3OE     -0.100000
     13 C39         0.3190   -4.0120    8.6550 c1        1 3OE     -0.131000
     14 C40         1.2570   -4.9300    9.1170 c1        1 3OE     -0.128167
     15 C41         2.5380   -4.9680    8.5510 c1        1 3OE     -0.128167
     16 C42         2.8730   -4.0870    7.5270 c1        1 3OE     -0.121000
     17 N18         2.3310    1.6720   -0.0330 n3        1 3OE     -0.374000
     18 C17         2.1190    2.3970   -1.2670 c3        1 3OE     -0.026000
     19 C15         1.2740    1.5470   -2.2230 c1        1 3OE      0.298000
     20 O16         1.7270    1.2320   -3.3160 o         1 3OE     -0.384000
     21 C19         3.4250    2.6930   -1.8990 c3        1 3OE      0.046000
     22 O20         3.2090    3.2360   -3.1790 oh        1 3OE     -0.325000
     23 C43         4.2440    1.3870   -2.0250 c3        1 3OE     -0.259000
     24 N13         0.0580    0.9250   -1.7450 n2        1 3OE     -0.373000
     25 C11        -0.7400    0.1430   -2.6400 c3        1 3OE      0.002000
     26 C9         -1.9980    0.9200   -3.0090 c1        1 3OE      0.276000
     27 O10        -2.8770    0.3810   -3.6300 o         1 3OE     -0.359000
     28 C12        -1.1250   -1.1500   -1.9740 c3        1 3OE     -0.164000
     29 C14        -2.2530   -1.8350   -2.7900 c3        1 3OE     -0.130000
     30 C21        -2.0250   -3.3790   -2.8030 c1        1 3OE     -0.071000
     31 C22        -2.8440   -4.2130   -2.0240 c1        1 3OE     -0.128167
     32 C23        -1.1030   -3.9390   -3.6900 c1        1 3OE     -0.127000
     33 C24        -2.7340   -5.6050   -2.1350 c1        1 3OE     -0.128167
     34 C26        -0.9930   -5.3360   -3.8020 c1        1 3OE     -0.128167
     35 C25        -1.8080   -6.1670   -3.0250 c1        1 3OE     -0.128167
     36 C4         -1.8250    5.3640   -5.8720 c1        1 3OE     -0.438000
     37 C5         -3.0400    6.0730   -5.5500 c1        1 3OE     -0.121000
     38 C6         -3.8030    5.2660   -4.4050 c1        1 3OE     -0.121000
     39 C7         -5.1100    5.6900   -3.7290 c2        1 3OE     -0.172000
     40 S3         -1.7550    4.0950   -4.9660 ss        1 3OE      0.596000
     41 C1         -3.0160    4.0890   -4.0740 c1        1 3OE     -0.438000
     42 C2         -3.3480    3.0400   -2.9480 c2        1 3OE      0.035000
     43 N29        -2.1390    2.2970   -2.6040 n2        1 3OE     -0.354000
     44 H34         2.6060   -0.3090    1.6240 ha        1 3OE      0.136000
     45 H33         2.4790   -1.6750    3.5550 ha        1 3OE      0.144000
     46 H30         1.1830    2.8770    3.7460 ha        1 3OE      0.159000
     47 H31         1.0470    1.5300    5.6920 ha        1 3OE      0.159000
     48 H36         3.1850   -2.1950    5.7900 h1        1 3OE      0.090000
     49 H36A        1.9230   -2.8320    5.0530 h1        1 3OE      0.090000
     50 H38         0.0060   -2.4960    7.3120 ha        1 3OE      0.146000
     51 H39        -0.5790   -3.9860    9.0530 ha        1 3OE      0.135000
     52 H40         1.0230   -5.5450    9.8320 ha        1 3OE      0.132000
     53 H41         3.1840   -5.6010    8.8690 ha        1 3OE      0.132000
     54 H42         3.7870   -4.1130    7.1220 ha        1 3OE      0.131000
     55 HN18        2.7020    0.8480   -0.0520 hn        1 3OE      0.236000
     56 H17         1.6520    3.2370   -1.0760 h1        1 3OE      0.147000
     57 H19         3.9140    3.3330   -1.3520 h1        1 3OE      0.115000
     58 HO20        3.8240    3.8790   -3.3420 ho        1 3OE      0.232000
     59 H43         5.0160    1.5430   -2.5770 hc        1 3OE      0.092333
     60 H43A        3.6790    0.6800   -2.4380 hc        1 3OE      0.092333
     61 H43B        4.5360    1.0930   -1.1300 hc        1 3OE      0.092333
     62 HN13       -0.1490    0.9560   -0.8700 hn        1 3OE      0.246000
     63 H11        -0.2350   -0.0460   -3.4360 h1        1 3OE      0.161000
     64 H12        -1.4440   -0.9670   -1.0660 hc        1 3OE      0.094000
     65 H12A       -0.3640   -1.7290   -1.9340 hc        1 3OE      0.094000
     66 H14        -2.2420   -1.4970   -3.7040 hc        1 3OE      0.104000
     67 H14A       -3.1260   -1.6350   -2.3750 hc        1 3OE      0.104000
     68 H22        -3.4670   -3.8360   -1.4250 ha        1 3OE      0.132000
     69 H23        -0.5440   -3.3690   -4.2220 ha        1 3OE      0.131000
     70 H24        -3.3080   -6.1880   -1.5900 ha        1 3OE      0.132000
     71 H26        -0.3450   -5.7280   -4.4230 ha        1 3OE      0.132000
     72 H25        -1.7330   -7.1280   -3.1020 ha        1 3OE      0.132000
     73 H4         -1.1430    5.6390   -6.5590 DU        1 3OE      0.161500
     74 H5         -3.3530    6.9290   -5.9740 DU        1 3OE      0.161500
     75 H7         -4.9380    5.9090   -2.8040 ha        1 3OE      0.089333
     76 H7A        -5.7470    4.9650   -3.7750 ha        1 3OE      0.089333
     77 H7B        -5.4710    6.4650   -4.1820 ha        1 3OE      0.089333
     78 H2         -4.0310    2.4190   -3.2720 h4        1 3OE      0.111500
     79 H2A        -3.6790    3.5040   -2.1590 h4        1 3OE      0.111500
     80 HN29       -1.4850    2.6950   -2.1210 hn        1 3OE      0.221000
@<TRIPOS>BOND
     1    1    4 1   
     2    1    6 1   
     3    2    3 1   
     4    2   17 1   
     5    4    5 1   
     6    4   44 1   
     7    5   45 1   
     8    6   46 1   
     9    7    8 1   
    10    7   47 1   
    11    8    9 1   
    12    9   10 1   
    13   10   11 1   
    14   10   48 1   
    15   10   49 1   
    16   11   12 1   
    17   11   16 1   
    18   12   13 1   
    19   12   50 1   
    20   13   51 1   
    21   14   15 1   
    22   14   52 1   
    23   15   53 1   
    24   16   54 1   
    25   17   18 1   
    26   17   55 1   
    27   18   19 1   
    28   18   21 1   
    29   18   56 1   
    30   19   20 1   
    31   21   22 1   
    32   21   23 1   
    33   21   57 1   
    34   22   58 1   
    35   23   59 1   
    36   23   60 1   
    37   23   61 1   
    38   24   25 1   
    39   24   62 1   
    40   25   26 1   
    41   25   28 1   
    42   25   63 1   
    43   26   27 1   
    44   28   29 1   
    45   28   64 1   
    46   28   65 1   
    47   29   30 1   
    48   29   66 1   
    49   29   67 1   
    50   30   32 1   
    51   31   33 1   
    52   31   68 1   
    53   32   69 1   
    54   33   70 1   
    55   34   35 1   
    56   34   71 1   
    57   35   72 1   
    58   36   37 1   
    59   36   40 1   
    60   37   38 1   
    61   38   41 1   
    62   39   75 1   
    63   39   76 1   
    64   39   77 1   
    65   40   41 1   
    66   42   43 1   
    67   42   78 1   
    68   42   79 1   
    69   43   80 1   
@<TRIPOS>SUBSTRUCTURE
     1 3OE         1 TEMP              0 ****  ****    0 ROOT
