@<TRIPOS>MOLECULE
3OG
   54    54     1     0     0
SMALL
bcc


@<TRIPOS>ATOM
      1 OAA         0.0230    0.2160    0.0880 o         1 3OG     -0.546000
      2 OAB         1.8930   -0.1180   -1.1050 os        1 3OG     -0.442900
      3 CAC         1.2480    0.0850    0.0840 c         1 3OG      0.634100
      4 CAD         2.1840    0.1100    1.2440 c3        1 3OG     -0.151100
      5 CAE        -0.3940   -3.6090   -2.2840 c3        1 3OG     -0.080400
      6 CAF         0.0190   -2.2610   -1.7400 c3        1 3OG     -0.119400
      7 CAG         0.8500   -1.5160   -2.7690 c3        1 3OG      0.134100
      8 CAH         1.1290   -0.0640   -2.3250 c3        1 3OG      0.146100
      9 CAI         1.9980    0.6630   -3.3450 c3        1 3OG     -0.085400
     10 CAJ         2.0220    2.1550   -3.0920 c3        1 3OG     -0.078400
     11 CAK         2.9060    2.8620   -4.0960 c3        1 3OG     -0.078400
     12 CAL         2.9260    4.3560   -3.8520 c3        1 3OG     -0.078400
     13 CAM         3.8120    5.0640   -4.8550 c3        1 3OG     -0.079400
     14 CAN         3.8320    6.5580   -4.6120 c3        1 3OG     -0.078400
     15 CAO         4.7170    7.2660   -5.6150 c3        1 3OG     -0.079400
     16 CAP         4.7370    8.7600   -5.3720 c3        1 3OG     -0.079400
     17 CAQ         5.6230    9.4690   -6.3740 c3        1 3OG     -0.080400
     18 CAR         5.6460   10.9570   -6.1360 c3        1 3OG     -0.092100
     19 CAS        -1.2040   -3.4290   -3.5460 c3        1 3OG     -0.163400
     20 CAT        -0.6610   -2.3800   -4.4620 c         1 3OG      0.721600
     21 OAU         0.2080   -1.4020   -4.0470 os        1 3OG     -0.421900
     22 OAV        -0.9620   -2.2410   -5.6500 o         1 3OG     -0.583500
     23 HAD         1.8010   -0.5770    2.0370 hc        1 3OG      0.077700
     24 HADA        3.2110   -0.2030    0.9380 hc        1 3OG      0.077700
     25 HADB        2.2210    1.1520    1.6490 hc        1 3OG      0.077700
     26 HAEA        0.5180   -4.2270   -2.4990 hc        1 3OG      0.054700
     27 HAF        -0.8850   -1.6530   -1.4680 hc        1 3OG      0.070700
     28 HAFA        0.6300   -2.3840   -0.8080 hc        1 3OG      0.070700
     29 HAG         1.8260   -2.0510   -2.9450 h1        1 3OG      0.063700
     30 HAH         0.1580    0.4770   -2.1610 h1        1 3OG      0.090700
     31 HAI         1.5810    0.4530   -4.3660 hc        1 3OG      0.067700
     32 HAIA        3.0400    0.2520   -3.3040 hc        1 3OG      0.067700
     33 HAJ         2.3980    2.3500   -2.0530 hc        1 3OG      0.042200
     34 HAJA        0.9800    2.5660   -3.1530 hc        1 3OG      0.042200
     35 HAK         2.5350    2.6550   -5.1350 hc        1 3OG      0.042200
     36 HAKA        3.9500    2.4560   -4.0310 hc        1 3OG      0.042200
     37 HAL         1.8830    4.7620   -3.9200 hc        1 3OG      0.039200
     38 HALA        3.2950    4.5630   -2.8130 hc        1 3OG      0.039200
     39 HAM         3.4430    4.8570   -5.8940 hc        1 3OG      0.040200
     40 HAMA        4.8560    4.6580   -4.7880 hc        1 3OG      0.040200
     41 HAN         4.2000    6.7650   -3.5730 hc        1 3OG      0.039200
     42 HANA        2.7880    6.9640   -4.6800 hc        1 3OG      0.039200
     43 HAO         5.7610    6.8600   -5.5480 hc        1 3OG      0.039200
     44 HAOA        4.3490    7.0590   -6.6540 hc        1 3OG      0.039200
     45 HAP         5.1060    8.9670   -4.3330 hc        1 3OG      0.039200
     46 HAPA        3.6940    9.1660   -5.4390 hc        1 3OG      0.039200
     47 HAQ         6.6660    9.0600   -6.3060 hc        1 3OG      0.038200
     48 HAQA        5.2540    9.2590   -7.4130 hc        1 3OG      0.038200
     49 HAR         6.0350   11.1870   -5.1150 hc        1 3OG      0.032367
     50 HARA        6.3040   11.4600   -6.8850 hc        1 3OG      0.032367
     51 HARB        4.6190   11.3860   -6.2240 hc        1 3OG      0.032367
     52 HAS        -2.2550   -3.1220   -3.2880 hc        1 3OG      0.085200
     53 HASA       -1.2670   -4.3960   -4.1140 hc        1 3OG      0.085200
     54 HAE        -1.0020   -4.1620   -1.5220 hc        1 3OG      0.054700
@<TRIPOS>BOND
     1    1    3 2   
     2    2    3 1   
     3    2    8 1   
     4    3    4 1   
     5    4   23 1   
     6    4   24 1   
     7    4   25 1   
     8    5    6 1   
     9    5   19 1   
    10    5   26 1   
    11    5   54 1   
    12    6    7 1   
    13    6   27 1   
    14    6   28 1   
    15    7    8 1   
    16    7   21 1   
    17    7   29 1   
    18    8    9 1   
    19    8   30 1   
    20    9   10 1   
    21    9   31 1   
    22    9   32 1   
    23   10   11 1   
    24   10   33 1   
    25   10   34 1   
    26   11   12 1   
    27   11   35 1   
    28   11   36 1   
    29   12   13 1   
    30   12   37 1   
    31   12   38 1   
    32   13   14 1   
    33   13   39 1   
    34   13   40 1   
    35   14   15 1   
    36   14   41 1   
    37   14   42 1   
    38   15   16 1   
    39   15   43 1   
    40   15   44 1   
    41   16   17 1   
    42   16   45 1   
    43   16   46 1   
    44   17   18 1   
    45   17   47 1   
    46   17   48 1   
    47   18   49 1   
    48   18   50 1   
    49   18   51 1   
    50   19   20 1   
    51   19   52 1   
    52   19   53 1   
    53   20   21 1   
    54   20   22 2   
@<TRIPOS>SUBSTRUCTURE
     1 3OG         1 TEMP              0 ****  ****    0 ROOT
