@<TRIPOS>MOLECULE
3OG
   54    54     1     0     0
SMALL
bcc


@<TRIPOS>ATOM
      1 OAA        -0.3210   -3.2620    3.7380 o         1 3OG     -0.546000
      2 OAB         1.3890   -3.1590    2.2130 os        1 3OG     -0.442900
      3 CAC         0.8800   -3.3570    3.5280 c         1 3OG      0.634100
      4 CAD         1.8690   -3.6000    4.7220 c3        1 3OG     -0.151100
      5 CAE        -1.0610   -6.5460    0.2650 c3        1 3OG     -0.080400
      6 CAF        -0.8490   -5.2470    0.9740 c3        1 3OG     -0.119400
      7 CAG         0.3850   -4.5750    0.5740 c3        1 3OG      0.134100
      8 CAH         0.4050   -3.1980    1.2090 c3        1 3OG      0.146100
      9 CAI         0.7200   -2.1490    0.1450 c3        1 3OG     -0.085400
     10 CAJ         0.2870   -0.7690    0.6460 c3        1 3OG     -0.078400
     11 CAK         0.5820    0.2880   -0.4350 c3        1 3OG     -0.078400
     12 CAL        -0.0450    1.6720   -0.0010 c3        1 3OG     -0.078400
     13 CAM         0.2520    2.7300   -1.0750 c3        1 3OG     -0.079400
     14 CAN        -0.4050    4.0750   -0.6720 c3        1 3OG     -0.078400
     15 CAO        -0.0380    5.1770   -1.7310 c3        1 3OG     -0.079400
     16 CAP        -0.6920    6.5230   -1.3210 c3        1 3OG     -0.079400
     17 CAQ        -0.3770    7.5940   -2.3800 c3        1 3OG     -0.080400
     18 CAR        -0.9670    8.9330   -1.9380 c3        1 3OG     -0.092100
     19 CAS        -1.0000   -6.4180   -1.1990 c3        1 3OG     -0.163400
     20 CAT         0.3480   -5.6480   -1.5960 c         1 3OG      0.721600
     21 OAU         0.5390   -4.4240   -0.8770 os        1 3OG     -0.421900
     22 OAV         0.8200   -5.7800   -2.7120 o         1 3OG     -0.583500
     23 HAD         1.3530   -3.8000    5.5430 hc        1 3OG      0.077700
     24 HADA        2.4150   -2.7890    4.8660 hc        1 3OG      0.077700
     25 HADB        2.4660   -4.3700    4.5100 hc        1 3OG      0.077700
     26 HAE        -0.3720   -7.1780    0.5540 hc        1 3OG      0.054700
     27 HAEA       -1.9310   -6.8970    0.5120 hc        1 3OG      0.054700
     28 HAF        -1.6160   -4.6490    0.7780 hc        1 3OG      0.070700
     29 HAFA       -0.8190   -5.4150    1.9400 hc        1 3OG      0.070700
     30 HAG         1.1430   -5.0880    0.9160 h1        1 3OG      0.063700
     31 HAH        -0.4810   -3.0080    1.6080 h1        1 3OG      0.090700
     32 HAI         1.6860   -2.1440   -0.0360 hc        1 3OG      0.067700
     33 HAIA        0.2350   -2.3630   -0.6790 hc        1 3OG      0.067700
     34 HAJ         0.7770   -0.5520    1.4530 hc        1 3OG      0.042200
     35 HAJA       -0.6540   -0.7780    0.8350 hc        1 3OG      0.042200
     36 HAK         1.5600    0.3870   -0.5400 hc        1 3OG      0.042200
     37 HAKA        0.1930    0.0060   -1.2780 hc        1 3OG      0.042200
     38 HAL        -1.0140    1.5740    0.1010 hc        1 3OG      0.039200
     39 HALA        0.3480    1.9560    0.8550 hc        1 3OG      0.039200
     40 HAM         1.2200    2.8510   -1.1540 hc        1 3OG      0.040200
     41 HAMA       -0.1090    2.4350   -1.9280 hc        1 3OG      0.040200
     42 HAN        -0.0740    4.3500    0.2180 hc        1 3OG      0.039200
     43 HANA       -1.3800    3.9650   -0.6390 hc        1 3OG      0.039200
     44 HAO         0.9420    5.2840   -1.7690 hc        1 3OG      0.039200
     45 HAOA       -0.3700    4.9070   -2.6090 hc        1 3OG      0.039200
     46 HAP        -0.3370    6.8070   -0.4560 hc        1 3OG      0.039200
     47 HAPA       -1.6670    6.4070   -1.2530 hc        1 3OG      0.039200
     48 HAQ         0.5950    7.6820   -2.4790 hc        1 3OG      0.038200
     49 HAQA       -0.7720    7.3310   -3.2420 hc        1 3OG      0.038200
     50 HAR        -1.9210    8.8220   -1.7520 hc        1 3OG      0.032367
     51 HARA       -0.8470    9.5980   -2.6540 hc        1 3OG      0.032367
     52 HARB       -0.5100    9.2400   -1.1250 hc        1 3OG      0.032367
     53 HAS        -1.8650   -6.1390   -1.5500 hc        1 3OG      0.085200
     54 HASA       -0.9180   -7.2940   -1.6220 hc        1 3OG      0.085200
@<TRIPOS>BOND
     1    1    3 2   
     2    2    3 1   
     3    2    8 1   
     4    3    4 1   
     5    4   23 1   
     6    4   24 1   
     7    4   25 1   
     8    5    6 1   
     9    5   19 1   
    10    5   26 1   
    11    5   27 1   
    12    6    7 1   
    13    6   28 1   
    14    6   29 1   
    15    7    8 1   
    16    7   21 1   
    17    7   30 1   
    18    8    9 1   
    19    8   31 1   
    20    9   10 1   
    21    9   32 1   
    22    9   33 1   
    23   10   11 1   
    24   10   34 1   
    25   10   35 1   
    26   11   12 1   
    27   11   36 1   
    28   11   37 1   
    29   12   13 1   
    30   12   38 1   
    31   12   39 1   
    32   13   14 1   
    33   13   40 1   
    34   13   41 1   
    35   14   15 1   
    36   14   42 1   
    37   14   43 1   
    38   15   16 1   
    39   15   44 1   
    40   15   45 1   
    41   16   17 1   
    42   16   46 1   
    43   16   47 1   
    44   17   18 1   
    45   17   48 1   
    46   17   49 1   
    47   18   50 1   
    48   18   51 1   
    49   18   52 1   
    50   19   20 1   
    51   19   53 1   
    52   19   54 1   
    53   20   21 1   
    54   20   22 2   
@<TRIPOS>SUBSTRUCTURE
     1 3OG         1 TEMP              0 ****  ****    0 ROOT
