@<TRIPOS>MOLECULE
3OG
   54    54     1     0     0
SMALL
bcc


@<TRIPOS>ATOM
      1 OAA         3.1120   -2.6670   -1.2210 o         1 3OG     -0.546000
      2 OAB         2.3430   -1.7380    0.6700 os        1 3OG     -0.442900
      3 CAC         2.7340   -2.8270   -0.0590 c         1 3OG      0.634100
      4 CAD         2.6370   -4.0970    0.7140 c3        1 3OG     -0.151100
      5 CAE         6.0190    0.5050    0.1630 c3        1 3OG     -0.080400
      6 CAF         4.8120   -0.3730   -0.0700 c3        1 3OG     -0.119400
      7 CAG         3.5560    0.3290    0.4130 c3        1 3OG      0.134100
      8 CAH         2.2840   -0.4540    0.0200 c3        1 3OG      0.146100
      9 CAI         1.0310    0.2370    0.5440 c3        1 3OG     -0.085400
     10 CAJ        -0.2220   -0.3310   -0.0850 c3        1 3OG     -0.078400
     11 CAK        -1.4600    0.3480    0.4620 c3        1 3OG     -0.078400
     12 CAL        -2.7160   -0.2110   -0.1720 c3        1 3OG     -0.078400
     13 CAM        -3.9540    0.4650    0.3750 c3        1 3OG     -0.079400
     14 CAN        -5.2100   -0.0940   -0.2580 c3        1 3OG     -0.078400
     15 CAO        -6.4490    0.5820    0.2890 c3        1 3OG     -0.079400
     16 CAP        -7.7050    0.0230   -0.3440 c3        1 3OG     -0.079400
     17 CAQ        -8.9450    0.6990    0.2030 c3        1 3OG     -0.080400
     18 CAR       -10.1990    0.1460   -0.4250 c3        1 3OG     -0.092100
     19 CAS         5.8580    1.8100   -0.5810 c3        1 3OG     -0.163400
     20 CAT         4.4800    2.3830   -0.4930 c         1 3OG      0.721600
     21 OAU         3.3800    1.6370   -0.1490 os        1 3OG     -0.421900
     22 OAV         4.1700    3.5460   -0.7640 o         1 3OG     -0.583500
     23 HAD         1.8140   -4.7170    0.2810 hc        1 3OG      0.077700
     24 HADA        3.6020   -4.6540    0.6220 hc        1 3OG      0.077700
     25 HADB        2.4200   -3.8960    1.7910 hc        1 3OG      0.077700
     26 HAEA        6.9470   -0.0150   -0.1880 hc        1 3OG      0.054700
     27 HAF         4.7120   -0.6240   -1.1600 hc        1 3OG      0.070700
     28 HAFA        4.9170   -1.3410    0.4850 hc        1 3OG      0.070700
     29 HAG         3.5870    0.4610    1.5320 h1        1 3OG      0.063700
     30 HAH         2.2430   -0.5760   -1.0960 h1        1 3OG      0.090700
     31 HAI         0.9840    0.1240    1.6590 hc        1 3OG      0.067700
     32 HAIA        1.1180    1.3320    0.3100 hc        1 3OG      0.067700
     33 HAJ        -0.1800   -0.1970   -1.1980 hc        1 3OG      0.042200
     34 HAJA       -0.2730   -1.4330    0.1170 hc        1 3OG      0.042200
     35 HAK        -1.5060    0.2080    1.5740 hc        1 3OG      0.042200
     36 HAKA       -1.4000    1.4510    0.2690 hc        1 3OG      0.042200
     37 HAL        -2.6710   -0.0700   -1.2840 hc        1 3OG      0.039200
     38 HALA       -2.7740   -1.3150    0.0190 hc        1 3OG      0.039200
     39 HAM        -3.9990    0.3240    1.4880 hc        1 3OG      0.040200
     40 HAMA       -3.8960    1.5690    0.1840 hc        1 3OG      0.040200
     41 HAN        -5.1650    0.0470   -1.3700 hc        1 3OG      0.039200
     42 HANA       -5.2690   -1.1980   -0.0680 hc        1 3OG      0.039200
     43 HAO        -6.4940    0.4410    1.4010 hc        1 3OG      0.039200
     44 HAOA       -6.3910    1.6860    0.0980 hc        1 3OG      0.039200
     45 HAP        -7.6610    0.1640   -1.4560 hc        1 3OG      0.039200
     46 HAPA       -7.7640   -1.0810   -0.1530 hc        1 3OG      0.039200
     47 HAQ        -8.9870    0.5580    1.3150 hc        1 3OG      0.038200
     48 HAQA       -8.8840    1.8030    0.0120 hc        1 3OG      0.038200
     49 HAR       -10.2900   -0.9490   -0.2250 hc        1 3OG      0.032367
     50 HARA      -11.1000    0.6570   -0.0080 hc        1 3OG      0.032367
     51 HARB      -10.1860    0.2990   -1.5310 hc        1 3OG      0.032367
     52 HAS         6.5840    2.5750   -0.1950 hc        1 3OG      0.085200
     53 HASA        6.0780    1.6600   -1.6740 hc        1 3OG      0.085200
     54 HAE         6.1390    0.7030    1.2600 hc        1 3OG      0.054700
@<TRIPOS>BOND
     1    1    3 2   
     2    2    3 1   
     3    2    8 1   
     4    3    4 1   
     5    4   23 1   
     6    4   24 1   
     7    4   25 1   
     8    5    6 1   
     9    5   19 1   
    10    5   26 1   
    11    5   54 1   
    12    6    7 1   
    13    6   27 1   
    14    6   28 1   
    15    7    8 1   
    16    7   21 1   
    17    7   29 1   
    18    8    9 1   
    19    8   30 1   
    20    9   10 1   
    21    9   31 1   
    22    9   32 1   
    23   10   11 1   
    24   10   33 1   
    25   10   34 1   
    26   11   12 1   
    27   11   35 1   
    28   11   36 1   
    29   12   13 1   
    30   12   37 1   
    31   12   38 1   
    32   13   14 1   
    33   13   39 1   
    34   13   40 1   
    35   14   15 1   
    36   14   41 1   
    37   14   42 1   
    38   15   16 1   
    39   15   43 1   
    40   15   44 1   
    41   16   17 1   
    42   16   45 1   
    43   16   46 1   
    44   17   18 1   
    45   17   47 1   
    46   17   48 1   
    47   18   49 1   
    48   18   50 1   
    49   18   51 1   
    50   19   20 1   
    51   19   52 1   
    52   19   53 1   
    53   20   21 1   
    54   20   22 2   
@<TRIPOS>SUBSTRUCTURE
     1 3OG         1 TEMP              0 ****  ****    0 ROOT
