@<TRIPOS>MOLECULE
3OG
   54    54     1     0     0
SMALL
bcc


@<TRIPOS>ATOM
      1 OAA         0.0270    0.2180    0.0900 o         1 3OG     -0.546000
      2 OAB         1.8960   -0.1160   -1.1050 os        1 3OG     -0.442900
      3 CAC         1.2520    0.0870    0.0850 c         1 3OG      0.634100
      4 CAD         2.1890    0.1140    1.2430 c3        1 3OG     -0.151100
      5 CAE        -0.3910   -3.6070   -2.2810 c3        1 3OG     -0.080400
      6 CAF         0.0210   -2.2600   -1.7380 c3        1 3OG     -0.119400
      7 CAG         0.8520   -1.5140   -2.7670 c3        1 3OG      0.134100
      8 CAH         1.1310   -0.0620   -2.3240 c3        1 3OG      0.146100
      9 CAI         1.9980    0.6660   -3.3450 c3        1 3OG     -0.085400
     10 CAJ         2.0230    2.1570   -3.0920 c3        1 3OG     -0.078400
     11 CAK         2.9060    2.8640   -4.0970 c3        1 3OG     -0.078400
     12 CAL         2.9270    4.3580   -3.8530 c3        1 3OG     -0.078400
     13 CAM         3.8110    5.0660   -4.8570 c3        1 3OG     -0.079400
     14 CAN         3.8330    6.5590   -4.6120 c3        1 3OG     -0.078400
     15 CAO         4.7180    7.2680   -5.6160 c3        1 3OG     -0.079400
     16 CAP         4.7400    8.7610   -5.3720 c3        1 3OG     -0.079400
     17 CAQ         5.6240    9.4700   -6.3750 c3        1 3OG     -0.080400
     18 CAR         5.6490   10.9580   -6.1360 c3        1 3OG     -0.092100
     19 CAS        -1.2020   -3.4290   -3.5420 c3        1 3OG     -0.163400
     20 CAT        -0.6600   -2.3790   -4.4590 c         1 3OG      0.721600
     21 OAU         0.2090   -1.4010   -4.0450 os        1 3OG     -0.421900
     22 OAV        -0.9630   -2.2410   -5.6460 o         1 3OG     -0.583500
     23 HAD         2.2250    1.1550    1.6490 hc        1 3OG      0.077700
     24 HADA        3.2160   -0.1980    0.9360 hc        1 3OG      0.077700
     25 HADB        1.8070   -0.5740    2.0370 hc        1 3OG      0.077700
     26 HAEA       -0.9980   -4.1610   -1.5180 hc        1 3OG      0.054700
     27 HAF        -0.8820   -1.6520   -1.4650 hc        1 3OG      0.070700
     28 HAFA        0.6330   -2.3810   -0.8060 hc        1 3OG      0.070700
     29 HAG         1.8280   -2.0490   -2.9450 h1        1 3OG      0.063700
     30 HAH         0.1590    0.4790   -2.1590 h1        1 3OG      0.090700
     31 HAI         1.5790    0.4550   -4.3660 hc        1 3OG      0.067700
     32 HAIA        3.0400    0.2540   -3.3060 hc        1 3OG      0.067700
     33 HAJ         2.4000    2.3520   -2.0530 hc        1 3OG      0.042200
     34 HAJA        0.9810    2.5680   -3.1510 hc        1 3OG      0.042200
     35 HAK         2.5330    2.6580   -5.1350 hc        1 3OG      0.042200
     36 HAKA        3.9500    2.4580   -4.0340 hc        1 3OG      0.042200
     37 HAL         1.8830    4.7640   -3.9180 hc        1 3OG      0.039200
     38 HALA        3.2970    4.5640   -2.8140 hc        1 3OG      0.039200
     39 HAM         4.8550    4.6590   -4.7920 hc        1 3OG      0.040200
     40 HAMA        3.4400    4.8600   -5.8950 hc        1 3OG      0.040200
     41 HAN         2.7900    6.9660   -4.6780 hc        1 3OG      0.039200
     42 HANA        4.2040    6.7650   -3.5740 hc        1 3OG      0.039200
     43 HAO         4.3470    7.0620   -6.6550 hc        1 3OG      0.039200
     44 HAOA        5.7610    6.8600   -5.5510 hc        1 3OG      0.039200
     45 HAP         5.1110    8.9670   -4.3330 hc        1 3OG      0.039200
     46 HAPA        3.6970    9.1690   -5.4370 hc        1 3OG      0.039200
     47 HAQ         5.2530    9.2620   -7.4130 hc        1 3OG      0.038200
     48 HAQA        6.6670    9.0600   -6.3100 hc        1 3OG      0.038200
     49 HAR         6.0400   11.1870   -5.1150 hc        1 3OG      0.032367
     50 HARA        4.6220   11.3890   -6.2210 hc        1 3OG      0.032367
     51 HARB        6.3060   11.4610   -6.8860 hc        1 3OG      0.032367
     52 HAS        -1.2650   -4.3950   -4.1090 hc        1 3OG      0.085200
     53 HASA       -2.2530   -3.1220   -3.2830 hc        1 3OG      0.085200
     54 HAE         0.5210   -4.2250   -2.4960 hc        1 3OG      0.054700
@<TRIPOS>BOND
     1    1    3 2   
     2    2    3 1   
     3    2    8 1   
     4    3    4 1   
     5    4   23 1   
     6    4   24 1   
     7    4   25 1   
     8    5    6 1   
     9    5   19 1   
    10    5   26 1   
    11    5   54 1   
    12    6    7 1   
    13    6   27 1   
    14    6   28 1   
    15    7    8 1   
    16    7   21 1   
    17    7   29 1   
    18    8    9 1   
    19    8   30 1   
    20    9   10 1   
    21    9   31 1   
    22    9   32 1   
    23   10   11 1   
    24   10   33 1   
    25   10   34 1   
    26   11   12 1   
    27   11   35 1   
    28   11   36 1   
    29   12   13 1   
    30   12   37 1   
    31   12   38 1   
    32   13   14 1   
    33   13   39 1   
    34   13   40 1   
    35   14   15 1   
    36   14   41 1   
    37   14   42 1   
    38   15   16 1   
    39   15   43 1   
    40   15   44 1   
    41   16   17 1   
    42   16   45 1   
    43   16   46 1   
    44   17   18 1   
    45   17   47 1   
    46   17   48 1   
    47   18   49 1   
    48   18   50 1   
    49   18   51 1   
    50   19   20 1   
    51   19   52 1   
    52   19   53 1   
    53   20   21 1   
    54   20   22 2   
@<TRIPOS>SUBSTRUCTURE
     1 3OG         1 TEMP              0 ****  ****    0 ROOT
