@<TRIPOS>MOLECULE
3OH
   11     9     1     0     0
SMALL
bcc


@<TRIPOS>ATOM
      1 C1          0.5630    0.8020    1.1720 c1        1 3OH      0.330000
      2 O1          1.8220    0.8020    1.1720 o         1 3OH     -0.578000
      3 O2         -0.0660    0.8020    2.2630 os        1 3OH     -0.587000
      4 C2         -0.1930    0.8020   -0.1380 c3        1 3OH     -0.261000
      5 C3         -0.5250   -0.6220   -0.5280 c3        1 3OH     -0.015000
      6 O3          0.6690   -1.3390   -0.7520 oh        1 3OH     -0.370000
      7 H21        -1.0190    1.3120   -0.0370 hc        1 3OH      0.065000
      8 H22         0.3590    1.2090   -0.8320 hc        1 3OH      0.065000
      9 H31        -1.0610   -0.6190   -1.3450 h1        1 3OH      0.085000
     10 H32        -1.0300   -1.0470    0.1910 h1        1 3OH      0.085000
     11 HO3         0.4830   -2.1010   -1.1660 ho        1 3OH      0.182000
@<TRIPOS>BOND
     1    1    2 1   
     2    1    4 1   
     3    4    5 1   
     4    4    7 1   
     5    4    8 1   
     6    5    6 1   
     7    5    9 1   
     8    5   10 1   
     9    6   11 1   
@<TRIPOS>SUBSTRUCTURE
     1 3OH         1 TEMP              0 ****  ****    0 ROOT
