@<TRIPOS>MOLECULE
3OH
   11    10     1     0     0
SMALL
bcc


@<TRIPOS>ATOM
      1 C1          0.0110    0.0000   -1.1040 c         1 3OH      0.909600
      2 O1          1.2750    0.0000   -1.1770 o         1 3OH     -0.852300
      3 O2         -0.7510    0.0000   -2.1130 o         1 3OH     -0.852300
      4 C2         -0.6550   -0.0000    0.2820 c3        1 3OH     -0.197400
      5 C3          0.3820   -0.0000    1.3810 c3        1 3OH      0.143400
      6 O3         -0.2910   -0.0000    2.6400 oh        1 3OH     -0.632800
      7 H21        -1.3090   -0.9020    0.3700 hc        1 3OH      0.032700
      8 H22        -1.3090    0.9020    0.3700 hc        1 3OH      0.032700
      9 H31         1.0330    0.9110    1.3020 h1        1 3OH      0.023700
     10 H32         1.0330   -0.9110    1.3020 h1        1 3OH      0.023700
     11 HO3         0.4000    0.0000    3.3100 ho        1 3OH      0.369000
@<TRIPOS>BOND
     1    1    2 1   
     2    1    3 1   
     3    1    4 1   
     4    4    5 1   
     5    4    7 1   
     6    4    8 1   
     7    5    6 1   
     8    5    9 1   
     9    5   10 1   
    10    6   11 1   
@<TRIPOS>SUBSTRUCTURE
     1 3OH         1 TEMP              0 ****  ****    0 ROOT
