@<TRIPOS>MOLECULE
3OK
   48    50     1     0     0
SMALL
bcc


@<TRIPOS>ATOM
      1 NAS         0.6290   -0.8870   -0.5030 n4        1 3OK     -0.835600
      2 CAO         1.4980    0.2300   -0.0370 c3        1 3OK      0.078300
      3 CAQ         2.3030   -0.1540    1.2260 c3        1 3OK      0.173300
      4 NAU         3.2720    0.8870    1.5160 nh        1 3OK     -0.736600
      5 CAY         3.9140    0.7710    2.7840 ca        1 3OK      0.142100
      6 CAI         3.2860    1.3550    3.9100 ca        1 3OK     -0.101500
      7 CBE         5.1920    0.1970    2.9480 ca        1 3OK     -0.154600
      8 CAJ         3.9390    1.4410    5.1250 ca        1 3OK     -0.101500
      9 CBA         5.8640   -0.5040    1.8180 c         1 3OK      0.627300
     10 OAA         5.2090   -1.0440    0.9170 o         1 3OK     -0.582100
     11 CBF         5.8530    0.2690    4.1870 ca        1 3OK     -0.154600
     12 CBC         7.3350   -0.5240    1.8600 ca        1 3OK     -0.153600
     13 CAZ         5.2600    0.9510    5.2770 ca        1 3OK      0.142100
     14 CBB         7.1710   -0.3940    4.3310 c         1 3OK      0.627300
     15 OAB         7.5380   -0.8590    5.4270 o         1 3OK     -0.582100
     16 CAW         8.1000   -0.6020    0.6900 ca        1 3OK      0.162600
     17 NAV         5.9810    1.2380    6.4430 nh        1 3OK     -0.736600
     18 OAE         7.4310   -0.6030   -0.5050 oh        1 3OK     -0.479100
     19 CAG         9.5140   -0.6500    0.7570 ca        1 3OK     -0.135500
     20 CAR         5.4260    0.9750    7.7350 c3        1 3OK      0.173300
     21 CAH        10.1480   -0.6210    1.9800 ca        1 3OK     -0.135500
     22 CAP         6.3450    0.1930    8.7000 c3        1 3OK      0.078300
     23 CAX         9.3850   -0.5390    3.1700 ca        1 3OK      0.162600
     24 NAT         6.9340   -1.0450    8.1240 n4        1 3OK     -0.835600
     25 OAF         9.9750   -0.4840    4.4060 oh        1 3OK     -0.479100
     26 CBD         7.9870   -0.4860    3.1150 ca        1 3OK     -0.153600
     27 H1          0.1140   -0.5980   -1.3430 hn        1 3OK      0.468133
     28 H2         -0.0430   -1.1460    0.2260 hn        1 3OK      0.468133
     29 H4          0.8390    1.1200    0.1820 hx        1 3OK      0.121950
     30 H5          2.1940    0.4950   -0.8860 hx        1 3OK      0.121950
     31 H6          2.8010   -1.1570    1.0620 h1        1 3OK      0.077450
     32 H7          1.6020   -0.2430    2.1040 h1        1 3OK      0.077450
     33 H8          3.9620    0.9310    0.7810 hn        1 3OK      0.417300
     34 H9          2.2730    1.7820    3.8120 ha        1 3OK      0.162500
     35 H10         3.4370    1.9390    5.9730 ha        1 3OK      0.162500
     36 H13         6.9730    1.1910    6.3600 hn        1 3OK      0.417300
     37 H14         8.0810   -0.7010   -1.2210 ho        1 3OK      0.443500
     38 H15        10.1010   -0.7140   -0.1740 ha        1 3OK      0.168500
     39 H16         4.4390    0.4380    7.6400 h1        1 3OK      0.077450
     40 H17         5.2310    1.9640    8.2530 h1        1 3OK      0.077450
     41 H18        11.2480   -0.6610    2.0410 ha        1 3OK      0.168500
     42 H19         5.7330   -0.0890    9.6060 hx        1 3OK      0.121950
     43 H20         7.1990    0.8510    9.0360 hx        1 3OK      0.121950
     44 H21         7.2320   -1.6800    8.8700 hn        1 3OK      0.468133
     45 H22         6.2560   -1.5240    7.5200 hn        1 3OK      0.468133
     46 H24        10.9380   -0.5290    4.2870 ho        1 3OK      0.443500
     47 HAS3        1.2000   -1.7100   -0.7290 hn        1 3OK      0.468133
     48 HAT3        7.7500   -0.8160    7.5350 hn        1 3OK      0.468133
@<TRIPOS>BOND
     1    1    2 1   
     2    1   27 1   
     3    1   28 1   
     4    1   47 1   
     5    2    3 1   
     6    2   29 1   
     7    2   30 1   
     8    3    4 1   
     9    3   31 1   
    10    3   32 1   
    11    4    5 1   
    12    4   33 1   
    13    5    6 ar  
    14    5    7 ar  
    15    6    8 ar  
    16    6   34 1   
    17    7    9 1   
    18    7   11 ar  
    19    8   13 ar  
    20    8   35 1   
    21    9   10 2   
    22    9   12 1   
    23   11   13 ar  
    24   11   14 1   
    25   12   16 ar  
    26   12   26 ar  
    27   13   17 1   
    28   14   15 2   
    29   14   26 1   
    30   16   18 1   
    31   16   19 ar  
    32   17   20 1   
    33   17   36 1   
    34   18   37 1   
    35   19   21 ar  
    36   19   38 1   
    37   20   22 1   
    38   20   39 1   
    39   20   40 1   
    40   21   23 ar  
    41   21   41 1   
    42   22   24 1   
    43   22   42 1   
    44   22   43 1   
    45   23   25 1   
    46   23   26 ar  
    47   24   44 1   
    48   24   45 1   
    49   24   48 1   
    50   25   46 1   
@<TRIPOS>SUBSTRUCTURE
     1 3OK         1 TEMP              0 ****  ****    0 ROOT
