@<TRIPOS>MOLECULE
3OK
   48    50     1     0     0
SMALL
bcc


@<TRIPOS>ATOM
      1 NAS         1.2440   -1.2860   -0.5290 nz        1 3OK     -0.833600
      2 CAO         2.1090   -0.1380   -0.1410 c3        1 3OK      0.068800
      3 CAQ         2.1700    0.0520    1.3910 c3        1 3OK      0.182300
      4 NAU         3.0340    1.1640    1.7550 nu        1 3OK     -0.738600
      5 CAY         3.7660    0.9790    2.9690 ca        1 3OK      0.143600
      6 CAI         3.2330    1.5500    4.1490 ca        1 3OK     -0.098000
      7 CBE         5.0270    0.3510    3.0320 ca        1 3OK     -0.159600
      8 CAJ         3.9600    1.5660    5.3250 ca        1 3OK     -0.098000
      9 CBA         5.6110   -0.3130    1.8350 c         1 3OK      0.632800
     10 OAA         4.8880   -0.7650    0.9330 o         1 3OK     -0.595600
     11 CBF         5.7600    0.3440    4.2330 ca        1 3OK     -0.159600
     12 CBC         7.0790   -0.4070    1.7980 ca        1 3OK     -0.154600
     13 CAZ         5.2640    1.0110    5.3800 ca        1 3OK      0.143600
     14 CBB         7.0490   -0.3840    4.2790 c         1 3OK      0.632800
     15 OAB         7.4510   -0.9170    5.3300 o         1 3OK     -0.595600
     16 CAW         7.7780   -0.4660    0.5860 ca        1 3OK      0.163100
     17 NAV         6.0660    1.2120    6.5050 nu        1 3OK     -0.738600
     18 OAE         7.0490   -0.3960   -0.5720 oh        1 3OK     -0.480600
     19 CAG         9.1900   -0.5740    0.5750 ca        1 3OK     -0.134500
     20 CAR         5.5770    1.0010    7.8300 c3        1 3OK      0.182300
     21 CAH         9.8870   -0.6260    1.7620 ca        1 3OK     -0.134500
     22 CAP         6.4640    0.0950    8.7160 c3        1 3OK      0.068800
     23 CAX         9.1910   -0.5680    2.9940 ca        1 3OK      0.163100
     24 NAT         6.9030   -1.1660    8.0630 nz        1 3OK     -0.833600
     25 OAF         9.8460   -0.5940    4.1970 oh        1 3OK     -0.480600
     26 CBD         7.7950   -0.4550    3.0160 ca        1 3OK     -0.154600
     27 H1          1.2220   -1.3710   -1.5520 hn        1 3OK      0.467800
     28 H2          1.6150   -2.1560   -0.1320 hn        1 3OK      0.467800
     29 H4          1.6960    0.7900   -0.6330 hx        1 3OK      0.125200
     30 H5          3.1510   -0.3420   -0.5400 hx        1 3OK      0.125200
     31 H6          1.1420    0.3030    1.7830 h1        1 3OK      0.076950
     32 H7          2.5060   -0.9180    1.8610 h1        1 3OK      0.076950
     33 H8          3.6790    1.3770    1.0100 hn        1 3OK      0.416800
     34 H9          2.2350    2.0230    4.1250 ha        1 3OK      0.168000
     35 H10         3.5320    2.0570    6.2150 ha        1 3OK      0.168000
     36 H13         7.0500    1.1590    6.3640 hn        1 3OK      0.416800
     37 H14         7.6630   -0.4440   -1.3240 ho        1 3OK      0.444000
     38 H15         9.7250   -0.6180   -0.3890 ha        1 3OK      0.169000
     39 H16         4.5290    0.5830    7.7990 h1        1 3OK      0.076950
     40 H17         5.5370    1.9950    8.3730 h1        1 3OK      0.076950
     41 H18        10.9870   -0.7120    1.7610 ha        1 3OK      0.169000
     42 H19         5.8740   -0.1660    9.6430 hx        1 3OK      0.125200
     43 H20         7.3930    0.6560    9.0290 hx        1 3OK      0.125200
     44 H21         7.2000   -1.8480    8.7670 hn        1 3OK      0.467800
     45 H22         6.1450   -1.5670    7.5010 hn        1 3OK      0.467800
     46 H24        10.7990   -0.6750    4.0260 ho        1 3OK      0.444000
     47 HAS3        0.2890   -1.1470   -0.1850 hn        1 3OK      0.467800
     48 HAT3        7.6920   -0.9840    7.4210 hn        1 3OK      0.467800
@<TRIPOS>BOND
     1    1    2 1   
     2    1   27 1   
     3    1   28 1   
     4    1   47 1   
     5    2    3 1   
     6    2   29 1   
     7    2   30 1   
     8    3    4 1   
     9    3   31 1   
    10    3   32 1   
    11    4    5 1   
    12    4   33 1   
    13    5    6 ar  
    14    5    7 ar  
    15    6    8 ar  
    16    6   34 1   
    17    7    9 1   
    18    7   11 ar  
    19    8   13 ar  
    20    8   35 1   
    21    9   10 2   
    22    9   12 1   
    23   11   13 ar  
    24   11   14 1   
    25   12   16 ar  
    26   12   26 ar  
    27   13   17 1   
    28   14   15 2   
    29   14   26 1   
    30   16   18 1   
    31   16   19 ar  
    32   17   20 1   
    33   17   36 1   
    34   18   37 1   
    35   19   21 ar  
    36   19   38 1   
    37   20   22 1   
    38   20   39 1   
    39   20   40 1   
    40   21   23 ar  
    41   21   41 1   
    42   22   24 1   
    43   22   42 1   
    44   22   43 1   
    45   23   25 1   
    46   23   26 ar  
    47   24   44 1   
    48   24   45 1   
    49   24   48 1   
    50   25   46 1   
@<TRIPOS>SUBSTRUCTURE
     1 3OK         1 TEMP              0 ****  ****    0 ROOT
