@<TRIPOS>MOLECULE
3OL
   25    24     1     0     0
SMALL
bcc


@<TRIPOS>ATOM
      1 C1         -0.0120   -0.2160    0.0780 c2        1 3OL     -0.206000
      2 C2          1.2800    0.0990    0.0850 c2        1 3OL     -0.210200
      3 C3          2.1250    0.1100    1.3210 c3        1 3OL      0.170300
      4 O1          3.0440    1.1990    1.2920 oh        1 3OL     -0.597800
      5 C4          2.9620   -1.1660    1.4120 c3        1 3OL     -0.070400
      6 C5          3.6100   -1.3010    2.7720 c3        1 3OL     -0.079400
      7 C6          4.4810   -2.5360    2.8430 c3        1 3OL     -0.078400
      8 C7          5.1220   -2.6800    4.2070 c3        1 3OL     -0.079400
      9 C8          5.9940   -3.9060    4.2830 c3        1 3OL     -0.092100
     10 H11        -0.5650   -0.4840    0.9880 ha        1 3OL      0.113500
     11 H12        -0.6070   -0.2290   -0.8450 ha        1 3OL      0.113500
     12 H21         1.8200    0.3680   -0.8380 ha        1 3OL      0.133000
     13 H31         1.4760    0.2060    2.2390 h1        1 3OL      0.036700
     14 HO1         2.5220    2.0000    1.1760 ho        1 3OL      0.400000
     15 H41         2.2950   -2.0440    1.2130 hc        1 3OL      0.051700
     16 H42         3.7510   -1.1410    0.6160 hc        1 3OL      0.051700
     17 H51         2.8190   -1.3520    3.5650 hc        1 3OL      0.046200
     18 H52         4.2270   -0.3850    2.9760 hc        1 3OL      0.046200
     19 H61         5.2810   -2.4780    2.0580 hc        1 3OL      0.039200
     20 H62         3.8650   -3.4460    2.6200 hc        1 3OL      0.039200
     21 H71         4.3210   -2.7380    4.9920 hc        1 3OL      0.039200
     22 H72         5.7350   -1.7660    4.4290 hc        1 3OL      0.039200
     23 H81         6.8130   -3.8540    3.5260 hc        1 3OL      0.032033
     24 H82         5.3950   -4.8290    4.0870 hc        1 3OL      0.032033
     25 H83         6.4550   -3.9930    5.2960 hc        1 3OL      0.032033
@<TRIPOS>BOND
     1    1    2 2   
     2    1   10 1   
     3    1   11 1   
     4    2    3 1   
     5    2   12 1   
     6    3    4 1   
     7    3    5 1   
     8    3   13 1   
     9    4   14 1   
    10    5    6 1   
    11    5   15 1   
    12    5   16 1   
    13    6    7 1   
    14    6   17 1   
    15    6   18 1   
    16    7    8 1   
    17    7   19 1   
    18    7   20 1   
    19    8    9 1   
    20    8   21 1   
    21    8   22 1   
    22    9   23 1   
    23    9   24 1   
    24    9   25 1   
@<TRIPOS>SUBSTRUCTURE
     1 3OL         1 TEMP              0 ****  ****    0 ROOT
