@<TRIPOS>MOLECULE
3OL
   25    22     1     0     0
SMALL
bcc


@<TRIPOS>ATOM
      1 C1         -3.6870    1.2240   -2.0270 c1        1 3OL     -0.206000
      2 C2         -2.3400    1.2240   -2.0270 c1        1 3OL     -0.206000
      3 C3         -1.5840    1.2240   -0.7180 c2        1 3OL      0.055000
      4 O1         -1.2050    2.5410   -0.3950 oh        1 3OL     -0.325000
      5 C4         -0.3480    0.3620   -0.8490 c3        1 3OL     -0.149000
      6 C5          0.1780    0.0230    0.5280 c3        1 3OL     -0.158000
      7 C6          1.4120   -0.8430    0.3970 c3        1 3OL     -0.157000
      8 C7          1.9380   -1.1840    1.7740 c3        1 3OL     -0.158000
      9 C8          3.1720   -2.0500    1.6420 c3        1 3OL     -0.210000
     10 H11        -4.1750    1.2240   -1.1820 DU        1 3OL      0.112000
     11 H12        -4.1750    1.2240   -2.8730 ha        1 3OL      0.124000
     12 H21        -1.8520    1.2240   -2.8730 ha        1 3OL      0.124000
     13 H31        -2.1560    0.8670   -0.0120 h4        1 3OL      0.076000
     14 HO1        -1.8510    2.9280    0.0750 ho        1 3OL      0.199000
     15 H41        -0.5750   -0.4610   -1.3230 hc        1 3OL      0.091000
     16 H42         0.3350    0.8470   -1.3490 hc        1 3OL      0.091000
     17 H51         0.4070    0.8460    1.0010 hc        1 3OL      0.085500
     18 H52        -0.5060   -0.4610    1.0280 hc        1 3OL      0.085500
     19 H61         1.1840   -1.6650   -0.0770 hc        1 3OL      0.078500
     20 H62         2.0970   -0.3590   -0.1030 hc        1 3OL      0.078500
     21 H71         2.1670   -0.3610    2.2470 hc        1 3OL      0.078500
     22 H72         1.2530   -1.6670    2.2730 hc        1 3OL      0.078500
     23 H81         2.9430   -2.8720    1.1690 hc        1 3OL      0.071333
     24 H82         3.8570   -1.5660    1.1430 hc        1 3OL      0.071333
     25 H83         3.5110   -2.2690    2.5310 hc        1 3OL      0.071333
@<TRIPOS>BOND
     1    1    2 1   
     2    1   11 1   
     3    2   12 1   
     4    3    4 1   
     5    3    5 1   
     6    3   13 1   
     7    4   14 1   
     8    5    6 1   
     9    5   15 1   
    10    5   16 1   
    11    6    7 1   
    12    6   17 1   
    13    6   18 1   
    14    7    8 1   
    15    7   19 1   
    16    7   20 1   
    17    8    9 1   
    18    8   21 1   
    19    8   22 1   
    20    9   23 1   
    21    9   24 1   
    22    9   25 1   
@<TRIPOS>SUBSTRUCTURE
     1 3OL         1 TEMP              0 ****  ****    0 ROOT
