@<TRIPOS>MOLECULE
3OL
   25    24     1     0     0
SMALL
bcc


@<TRIPOS>ATOM
      1 C1         -1.3770    0.2610   -3.4380 c2        1 3OL     -0.213000
      2 C2         -0.2170   -0.2610   -3.0490 c2        1 3OL     -0.199200
      3 C3          0.4950    0.1380   -1.7940 c3        1 3OL      0.165300
      4 O1          1.8000   -0.4220   -1.7540 oh        1 3OL     -0.593800
      5 C4         -0.3130   -0.2490   -0.5560 c3        1 3OL     -0.106400
      6 C5          0.3220    0.2940    0.7050 c3        1 3OL     -0.080400
      7 C6         -0.4140   -0.1770    1.9400 c3        1 3OL     -0.078400
      8 C7          0.2130    0.3800    3.2000 c3        1 3OL     -0.080400
      9 C8         -0.5130   -0.0900    4.4340 c3        1 3OL     -0.093100
     10 H11        -1.8700   -0.0410   -4.3710 ha        1 3OL      0.113500
     11 H12        -1.9120    1.0220   -2.8550 ha        1 3OL      0.113500
     12 H21         0.3090   -1.0160   -3.6570 ha        1 3OL      0.129000
     13 H31         0.6880    1.2510   -1.7960 h1        1 3OL      0.082700
     14 HO1         1.7030   -1.3780   -1.6750 ho        1 3OL      0.396000
     15 H41        -0.3840   -1.3670   -0.4930 hc        1 3OL      0.046700
     16 H42        -1.3540    0.1500   -0.6650 hc        1 3OL      0.046700
     17 H51         0.3240    1.4160    0.6710 hc        1 3OL      0.047700
     18 H52         1.3950   -0.0350    0.7490 hc        1 3OL      0.047700
     19 H61        -0.4030   -1.2990    1.9800 hc        1 3OL      0.038700
     20 H62        -1.4890    0.1400    1.8820 hc        1 3OL      0.038700
     21 H71         0.1990    1.5020    3.1590 hc        1 3OL      0.039700
     22 H72         1.2880    0.0660    3.2520 hc        1 3OL      0.039700
     23 H81        -0.0360    0.3330    5.3500 hc        1 3OL      0.032367
     24 H82        -1.5820    0.2340    4.4100 hc        1 3OL      0.032367
     25 H83        -0.4880   -1.2050    4.5050 hc        1 3OL      0.032367
@<TRIPOS>BOND
     1    1    2 2   
     2    1   10 1   
     3    1   11 1   
     4    2    3 1   
     5    2   12 1   
     6    3    4 1   
     7    3    5 1   
     8    3   13 1   
     9    4   14 1   
    10    5    6 1   
    11    5   15 1   
    12    5   16 1   
    13    6    7 1   
    14    6   17 1   
    15    6   18 1   
    16    7    8 1   
    17    7   19 1   
    18    7   20 1   
    19    8    9 1   
    20    8   21 1   
    21    8   22 1   
    22    9   23 1   
    23    9   24 1   
    24    9   25 1   
@<TRIPOS>SUBSTRUCTURE
     1 3OL         1 TEMP              0 ****  ****    0 ROOT
