@<TRIPOS>MOLECULE
3OL
   25    24     1     0     0
SMALL
bcc


@<TRIPOS>ATOM
      1 C1         -0.0130   -0.2090    0.0810 c2        1 3OL     -0.206000
      2 C2          1.2800    0.1010    0.0860 c2        1 3OL     -0.210200
      3 C3          2.1270    0.1110    1.3210 c3        1 3OL      0.170300
      4 O1          3.0490    1.1980    1.2900 oh        1 3OL     -0.597800
      5 C4          2.9610   -1.1670    1.4120 c3        1 3OL     -0.070400
      6 C5          3.6110   -1.3010    2.7720 c3        1 3OL     -0.079400
      7 C6          4.4800   -2.5380    2.8420 c3        1 3OL     -0.078400
      8 C7          5.1210   -2.6820    4.2070 c3        1 3OL     -0.079400
      9 C8          5.9920   -3.9100    4.2820 c3        1 3OL     -0.092100
     10 H11        -0.5660   -0.4740    0.9920 ha        1 3OL      0.113500
     11 H12        -0.6080   -0.2220   -0.8420 ha        1 3OL      0.113500
     12 H21         1.8210    0.3670   -0.8380 ha        1 3OL      0.133000
     13 H31         1.4800    0.2100    2.2400 h1        1 3OL      0.036700
     14 HO1         2.5270    2.0010    1.1740 ho        1 3OL      0.400000
     15 H41         3.7500   -1.1430    0.6160 hc        1 3OL      0.051700
     16 H42         2.2920   -2.0430    1.2140 hc        1 3OL      0.051700
     17 H51         2.8200   -1.3510    3.5660 hc        1 3OL      0.046200
     18 H52         4.2290   -0.3870    2.9750 hc        1 3OL      0.046200
     19 H61         5.2790   -2.4810    2.0570 hc        1 3OL      0.039200
     20 H62         3.8620   -3.4470    2.6200 hc        1 3OL      0.039200
     21 H71         5.7350   -1.7700    4.4280 hc        1 3OL      0.039200
     22 H72         4.3200   -2.7400    4.9910 hc        1 3OL      0.039200
     23 H81         5.3920   -4.8320    4.0860 hc        1 3OL      0.032033
     24 H82         6.8110   -3.8590    3.5240 hc        1 3OL      0.032033
     25 H83         6.4530   -3.9970    5.2950 hc        1 3OL      0.032033
@<TRIPOS>BOND
     1    1    2 2   
     2    1   10 1   
     3    1   11 1   
     4    2    3 1   
     5    2   12 1   
     6    3    4 1   
     7    3    5 1   
     8    3   13 1   
     9    4   14 1   
    10    5    6 1   
    11    5   15 1   
    12    5   16 1   
    13    6    7 1   
    14    6   17 1   
    15    6   18 1   
    16    7    8 1   
    17    7   19 1   
    18    7   20 1   
    19    8    9 1   
    20    8   21 1   
    21    8   22 1   
    22    9   23 1   
    23    9   24 1   
    24    9   25 1   
@<TRIPOS>SUBSTRUCTURE
     1 3OL         1 TEMP              0 ****  ****    0 ROOT
