@<TRIPOS>MOLECULE
3OM
   25    24     1     0     0
SMALL
bcc


@<TRIPOS>ATOM
      1 C1          0.0550   -0.0420   -0.0990 c2        1 3OM     -0.209000
      2 O1          1.1430   -0.1230    2.5090 oh        1 3OM     -0.597800
      3 C2          1.3560    0.1510    0.0990 c2        1 3OM     -0.209200
      4 C3          2.0460    0.0440    1.4210 c3        1 3OM      0.170300
      5 C4          2.9850   -1.1630    1.4430 c3        1 3OM     -0.068400
      6 C5          3.9420   -1.0910    2.6130 c3        1 3OM     -0.079400
      7 C6          4.8340   -2.3120    2.6660 c3        1 3OM     -0.078400
      8 C7          5.8000   -2.2380    3.8290 c3        1 3OM     -0.079400
      9 C8          6.6890   -3.4530    3.8890 c3        1 3OM     -0.092100
     10 H1         -0.6340   -0.3180    0.7110 ha        1 3OM      0.117000
     11 H1A        -0.4070    0.0540   -1.0900 ha        1 3OM      0.117000
     12 H2          2.0320    0.4100   -0.7330 ha        1 3OM      0.125000
     13 H3          2.6410    0.9900    1.5910 h1        1 3OM      0.037700
     14 H4          2.3730   -2.0990    1.5110 hc        1 3OM      0.052200
     15 H4A         3.5560   -1.1890    0.4790 hc        1 3OM      0.052200
     16 H5          3.3510   -1.0070    3.5640 hc        1 3OM      0.046200
     17 H5A         4.5730   -0.1670    2.5310 hc        1 3OM      0.046200
     18 H6          5.4080   -2.4020    1.7060 hc        1 3OM      0.039200
     19 H6A         4.2030   -3.2350    2.7610 hc        1 3OM      0.039200
     20 H7          5.2230   -2.1450    4.7870 hc        1 3OM      0.039200
     21 H7A         6.4300   -1.3140    3.7330 hc        1 3OM      0.039200
     22 H8          7.3920   -3.3770    4.7530 hc        1 3OM      0.032033
     23 H8A         6.0800   -4.3810    4.0100 hc        1 3OM      0.032033
     24 H8B         7.2890   -3.5490    2.9520 hc        1 3OM      0.032033
     25 HO1         0.5280    0.6200    2.4750 ho        1 3OM      0.400000
@<TRIPOS>BOND
     1    1    3 2   
     2    1   10 1   
     3    1   11 1   
     4    2    4 1   
     5    2   25 1   
     6    3    4 1   
     7    3   12 1   
     8    4    5 1   
     9    4   13 1   
    10    5    6 1   
    11    5   14 1   
    12    5   15 1   
    13    6    7 1   
    14    6   16 1   
    15    6   17 1   
    16    7    8 1   
    17    7   18 1   
    18    7   19 1   
    19    8    9 1   
    20    8   20 1   
    21    8   21 1   
    22    9   22 1   
    23    9   23 1   
    24    9   24 1   
@<TRIPOS>SUBSTRUCTURE
     1 3OM         1 TEMP              0 ****  ****    0 ROOT
