@<TRIPOS>MOLECULE
3OM
   25    24     1     0     0
SMALL
bcc


@<TRIPOS>ATOM
      1 C1          0.0500   -0.0540   -0.0990 c2        1 3OM     -0.209000
      2 O1          1.1450   -0.1180    2.5070 oh        1 3OM     -0.597800
      3 C2          1.3520    0.1390    0.0940 c2        1 3OM     -0.209200
      4 C3          2.0450    0.0400    1.4160 c3        1 3OM      0.170300
      5 C4          2.9830   -1.1670    1.4440 c3        1 3OM     -0.068400
      6 C5          3.9430   -1.0880    2.6100 c3        1 3OM     -0.079400
      7 C6          4.8340   -2.3100    2.6700 c3        1 3OM     -0.078400
      8 C7          5.8040   -2.2280    3.8290 c3        1 3OM     -0.079400
      9 C8          6.6910   -3.4440    3.8960 c3        1 3OM     -0.092100
     10 H1         -0.6360   -0.3250    0.7150 ha        1 3OM      0.117000
     11 H1A        -0.4140    0.0350   -1.0900 ha        1 3OM      0.117000
     12 H2          2.0260    0.3920   -0.7410 ha        1 3OM      0.125000
     13 H3          2.6420    0.9870    1.5770 h1        1 3OM      0.037700
     14 H4          3.5510   -1.2010    0.4790 hc        1 3OM      0.052200
     15 H4A         2.3700   -2.1020    1.5200 hc        1 3OM      0.052200
     16 H5          4.5750   -0.1660    2.5190 hc        1 3OM      0.046200
     17 H5A         3.3560   -0.9960    3.5620 hc        1 3OM      0.046200
     18 H6          5.4050   -2.4080    1.7090 hc        1 3OM      0.039200
     19 H6A         4.2020   -3.2310    2.7740 hc        1 3OM      0.039200
     20 H7          6.4350   -1.3060    3.7230 hc        1 3OM      0.039200
     21 H7A         5.2300   -2.1260    4.7880 hc        1 3OM      0.039200
     22 H8          6.0810   -4.3700    4.0270 hc        1 3OM      0.032033
     23 H8A         7.2880   -3.5480    2.9580 hc        1 3OM      0.032033
     24 H8B         7.3980   -3.3620    4.7560 hc        1 3OM      0.032033
     25 HO1         0.5300    0.6250    2.4700 ho        1 3OM      0.400000
@<TRIPOS>BOND
     1    1    3 2   
     2    1   10 1   
     3    1   11 1   
     4    2    4 1   
     5    2   25 1   
     6    3    4 1   
     7    3   12 1   
     8    4    5 1   
     9    4   13 1   
    10    5    6 1   
    11    5   14 1   
    12    5   15 1   
    13    6    7 1   
    14    6   16 1   
    15    6   17 1   
    16    7    8 1   
    17    7   18 1   
    18    7   19 1   
    19    8    9 1   
    20    8   20 1   
    21    8   21 1   
    22    9   22 1   
    23    9   23 1   
    24    9   24 1   
@<TRIPOS>SUBSTRUCTURE
     1 3OM         1 TEMP              0 ****  ****    0 ROOT
