@<TRIPOS>MOLECULE
3ON
   74    75     1     0     0
SMALL
bcc


@<TRIPOS>ATOM
      1 O1          3.9000    0.2580   -2.1360 oh        1 3ON     -0.599800
      2 C5          4.0790    1.4150   -1.3260 c3        1 3ON      0.142100
      3 C4          5.2450    1.2280   -0.3630 c3        1 3ON     -0.077200
      4 C3          5.2350    2.2240    0.7420 c2        1 3ON     -0.101400
      5 C11         6.5220    2.3250    1.4740 c3        1 3ON     -0.060900
      6 C6          2.7800    1.6110   -0.5570 c3        1 3ON     -0.069400
      7 C1          2.8350    2.8540    0.3330 c3        1 3ON     -0.004800
      8 C9          2.6360    4.1060   -0.5170 c3        1 3ON     -0.086100
      9 C8          1.6900    2.7590    1.3390 c3        1 3ON     -0.086100
     10 C2          4.1490    2.9540    1.0650 ce        1 3ON     -0.084200
     11 C7          4.1580    3.8890    2.1930 ce        1 3ON     -0.114000
     12 C12         4.5420    5.1700    2.1030 cf        1 3ON     -0.129000
     13 C13         4.5380    6.1120    3.2150 cf        1 3ON     -0.016200
     14 C14         4.0860    5.6270    4.5450 c3        1 3ON     -0.058900
     15 C15         4.9280    7.3670    3.0430 cu        1 3ON     -0.178400
     16 C16         5.1420    8.6940    3.6170 cx        1 3ON     -0.077200
     17 C17         5.3940    8.4290    2.1360 cx        1 3ON     -0.047300
     18 C18         6.7670    8.4570    1.6050 c2        1 3ON     -0.068400
     19 C19         7.6180    7.2790    1.9050 c3        1 3ON     -0.062900
     20 C20         7.2460    9.4880    0.8780 ce        1 3ON     -0.144000
     21 C21         6.5080   10.6840    0.5510 ce        1 3ON     -0.117000
     22 C22         6.9190   11.6670   -0.2730 cf        1 3ON     -0.130000
     23 C23         8.1640   11.6970   -1.0010 cf        1 3ON     -0.132000
     24 C24         8.5880   12.7470   -1.7390 ce        1 3ON     -0.076200
     25 C26         7.7930   13.9900   -1.9010 c3        1 3ON     -0.062900
     26 C25         9.8570   12.6600   -2.4510 ce        1 3ON     -0.116000
     27 C27        10.8530   13.5600   -2.4330 cf        1 3ON     -0.131000
     28 C28        10.8640   14.7820   -1.6610 cf        1 3ON     -0.116000
     29 C29        11.8100   15.7340   -1.7530 c2        1 3ON     -0.156400
     30 C30        12.9600   15.6600   -2.6830 c3        1 3ON     -0.064900
     31 C31        11.7530   16.9480   -0.8760 c3        1 3ON      0.165600
     32 O2         11.5800   18.1510   -1.6030 oh        1 3ON     -0.594800
     33 H1          4.7390    0.1020   -2.5830 ho        1 3ON      0.398000
     34 H5          4.2730    2.3020   -1.9940 h1        1 3ON      0.037700
     35 H4C1        5.1940    0.1940    0.0780 hc        1 3ON      0.054700
     36 H4C2        6.2120    1.3010   -0.9290 hc        1 3ON      0.054700
     37 H111        6.4220    2.9300    2.4080 hc        1 3ON      0.043700
     38 H112        6.8880    1.3050    1.7490 hc        1 3ON      0.043700
     39 H113        7.2930    2.8090    0.8230 hc        1 3ON      0.043700
     40 H6C1        2.5910    0.7020    0.0710 hc        1 3ON      0.057700
     41 H6C2        1.9300    1.7030   -1.2820 hc        1 3ON      0.057700
     42 H9C1        1.6290    4.0850   -0.9990 hc        1 3ON      0.038367
     43 H9C2        2.7080    5.0190    0.1240 hc        1 3ON      0.038367
     44 H9C3        3.4140    4.1700   -1.3130 hc        1 3ON      0.038367
     45 H8C1        0.7260    2.5910    0.8020 hc        1 3ON      0.038367
     46 H8C2        1.8610    1.9110    2.0440 hc        1 3ON      0.038367
     47 H8C3        1.6110    3.7040    1.9290 hc        1 3ON      0.038367
     48 H7          3.8030    3.4550    3.1450 ha        1 3ON      0.130000
     49 H12         4.8890    5.5830    1.1380 ha        1 3ON      0.133000
     50 H141        4.7360    4.7840    4.8890 hc        1 3ON      0.045033
     51 H142        4.1310    6.4420    5.3090 hc        1 3ON      0.045033
     52 H143        3.0320    5.2580    4.4820 hc        1 3ON      0.045033
     53 H15         4.2720    9.3120    3.9050 hc        1 3ON      0.078700
     54 H16         6.0080    8.8590    4.2840 hc        1 3ON      0.078700
     55 H17         4.6490    8.8320    1.4150 hc        1 3ON      0.090700
     56 H191        7.7950    7.2130    3.0080 hc        1 3ON      0.046033
     57 H192        7.0990    6.3410    1.5820 hc        1 3ON      0.046033
     58 H193        8.6060    7.3390    1.3880 hc        1 3ON      0.046033
     59 H20         8.2830    9.4340    0.5010 ha        1 3ON      0.125000
     60 H21         5.5220   10.7910    1.0410 ha        1 3ON      0.122000
     61 H22         6.2560   12.5390   -0.4220 ha        1 3ON      0.122000
     62 H23         8.7990   10.7970   -0.9350 ha        1 3ON      0.125000
     63 H261        6.7950   13.7550   -2.3490 hc        1 3ON      0.047367
     64 H262        8.3140   14.7200   -2.5690 hc        1 3ON      0.047367
     65 H263        7.6230   14.4790   -0.9090 hc        1 3ON      0.047367
     66 H25         9.9790   11.7380   -3.0500 ha        1 3ON      0.126000
     67 H27        11.7570   13.3670   -3.0410 ha        1 3ON      0.123000
     68 H28        10.0270   14.9080   -0.9490 ha        1 3ON      0.132000
     69 H301       13.5170   14.6990   -2.5480 hc        1 3ON      0.044033
     70 H302       13.6780   16.5000   -2.5100 hc        1 3ON      0.044033
     71 H303       12.6080   15.7120   -3.7440 hc        1 3ON      0.044033
     72 H311       12.7000   17.0110   -0.2710 h1        1 3ON      0.049700
     73 H312       10.8710   16.9190   -0.1790 h1        1 3ON      0.049700
     74 H2         12.2350   18.1610   -2.3120 ho        1 3ON      0.399000
@<TRIPOS>BOND
     1    1    2 1   
     2    1   33 1   
     3    2    3 1   
     4    2    6 1   
     5    2   34 1   
     6    3    4 1   
     7    3   35 1   
     8    3   36 1   
     9    4    5 1   
    10    4   10 2   
    11    5   37 1   
    12    5   38 1   
    13    5   39 1   
    14    6    7 1   
    15    6   40 1   
    16    6   41 1   
    17    7    8 1   
    18    7    9 1   
    19    7   10 1   
    20    8   42 1   
    21    8   43 1   
    22    8   44 1   
    23    9   45 1   
    24    9   46 1   
    25    9   47 1   
    26   10   11 1   
    27   11   12 2   
    28   11   48 1   
    29   12   13 1   
    30   12   49 1   
    31   13   14 1   
    32   13   15 2   
    33   14   50 1   
    34   14   51 1   
    35   14   52 1   
    36   15   16 1   
    37   15   17 1   
    38   16   17 1   
    39   16   53 1   
    40   16   54 1   
    41   17   18 1   
    42   17   55 1   
    43   18   19 1   
    44   18   20 2   
    45   19   56 1   
    46   19   57 1   
    47   19   58 1   
    48   20   21 1   
    49   20   59 1   
    50   21   22 2   
    51   21   60 1   
    52   22   23 1   
    53   22   61 1   
    54   23   24 2   
    55   23   62 1   
    56   24   25 1   
    57   24   26 1   
    58   25   63 1   
    59   25   64 1   
    60   25   65 1   
    61   26   27 2   
    62   26   66 1   
    63   27   28 1   
    64   27   67 1   
    65   28   29 2   
    66   28   68 1   
    67   29   30 1   
    68   29   31 1   
    69   30   69 1   
    70   30   70 1   
    71   30   71 1   
    72   31   32 1   
    73   31   72 1   
    74   31   73 1   
    75   32   74 1   
@<TRIPOS>SUBSTRUCTURE
     1 3ON         1 TEMP              0 ****  ****    0 ROOT
