@<TRIPOS>MOLECULE
3ON
   74    74     1     0     0
SMALL
bcc


@<TRIPOS>ATOM
      1 O1          8.2900   -6.0840   85.6780 oh        1 3ON     -0.601800
      2 C5          9.5690   -5.8660   86.2670 c3        1 3ON      0.143100
      3 C4          9.6040   -6.7090   87.5360 c3        1 3ON     -0.041200
      4 C3         10.7280   -6.3330   88.4350 c2        1 3ON     -0.097400
      5 C11        11.0180   -7.3430   89.4830 c3        1 3ON     -0.061900
      6 C6          9.7730   -4.3940   86.5950 c3        1 3ON     -0.106400
      7 C1         11.1210   -4.1400   87.2700 c3        1 3ON      0.000200
      8 C9         12.2340   -4.1640   86.2260 c3        1 3ON     -0.086600
      9 C8         11.0760   -2.7510   87.9040 c3        1 3ON     -0.086600
     10 C2         11.4100   -5.1760   88.3270 ce        1 3ON     -0.093200
     11 C7         12.4780   -4.8190   89.2630 ce        1 3ON     -0.112000
     12 C12        13.7540   -5.2110   89.1290 cf        1 3ON     -0.134000
     13 C13        14.8310   -4.8500   90.0430 cf        1 3ON     -0.065200
     14 C14        14.4400   -4.2920   91.3600 c3        1 3ON     -0.062900
     15 C15        16.1120   -5.0320   89.6510 ce        1 3ON     -0.133000
     16 C16        17.2890   -4.7030   90.4190 ce        1 3ON     -0.123000
     17 C17        18.5340   -4.9380   89.9610 cf        1 3ON     -0.123000
     18 C18        19.7490   -4.6270   90.6900 cf        1 3ON     -0.068200
     19 C19        19.6080   -4.3080   92.1360 c3        1 3ON     -0.062900
     20 C20        20.9770   -4.6200   90.1210 ce        1 3ON     -0.128000
     21 C21        21.2770   -4.8800   88.7360 ce        1 3ON     -0.125000
     22 C22        22.5390   -4.8910   88.2580 cf        1 3ON     -0.122000
     23 C23        22.8390   -5.1520   86.8730 cf        1 3ON     -0.132000
     24 C24        24.0680   -5.1470   86.3060 ce        1 3ON     -0.065200
     25 C26        24.2120   -5.4660   84.8600 c3        1 3ON     -0.063900
     26 C25        25.2830   -4.8380   87.0370 ce        1 3ON     -0.126000
     27 C27        26.5260   -5.0990   86.5910 cf        1 3ON     -0.119000
     28 C28        27.7100   -4.7690   87.3520 cf        1 3ON     -0.147000
     29 C29        28.9680   -5.0390   86.9520 c2        1 3ON     -0.092400
     30 C30        29.2970   -5.6960   85.6670 c3        1 3ON     -0.059900
     31 C31        30.1160   -4.7040   87.8530 c3        1 3ON      0.164600
     32 O2         31.1870   -4.1990   87.0660 oh        1 3ON     -0.595800
     33 H1          8.2370   -5.5050   84.9090 ho        1 3ON      0.399000
     34 H5         10.3640   -6.2150   85.5490 h1        1 3ON      0.036700
     35 H4C1        9.6840   -7.7920   87.2540 hc        1 3ON      0.064200
     36 H4C2        8.6320   -6.5820   88.0870 hc        1 3ON      0.064200
     37 H111       11.4620   -8.2580   89.0160 hc        1 3ON      0.045033
     38 H112       10.0720   -7.6400   90.0010 hc        1 3ON      0.045033
     39 H113       11.7350   -6.9550   90.2470 hc        1 3ON      0.045033
     40 H6C1        8.9440   -4.0580   87.2710 hc        1 3ON      0.049700
     41 H6C2        9.7100   -3.7860   85.6550 hc        1 3ON      0.049700
     42 H9C1       13.2260   -4.0270   86.7230 hc        1 3ON      0.037700
     43 H9C2       12.0850   -3.3400   85.4880 hc        1 3ON      0.037700
     44 H9C3       12.2430   -5.1380   85.6810 hc        1 3ON      0.037700
     45 H8C1       12.0830   -2.4690   88.2930 hc        1 3ON      0.037700
     46 H8C2       10.3470   -2.7330   88.7490 hc        1 3ON      0.037700
     47 H8C3       10.7620   -1.9970   87.1430 hc        1 3ON      0.037700
     48 H7         12.1540   -4.1740   90.0990 ha        1 3ON      0.130000
     49 H12        14.0500   -5.8430   88.2720 ha        1 3ON      0.128000
     50 H141       15.2630   -4.3680   92.1100 hc        1 3ON      0.045033
     51 H142       13.5540   -4.8410   91.7680 hc        1 3ON      0.045033
     52 H143       14.1620   -3.2130   91.2500 hc        1 3ON      0.045033
     53 H15        16.3070   -5.4640   88.6510 ha        1 3ON      0.122000
     54 H16        17.1340   -4.2350   91.4060 ha        1 3ON      0.126000
     55 H17        18.6700   -5.4020   88.9680 ha        1 3ON      0.125000
     56 H191       20.6030   -4.2360   92.6400 hc        1 3ON      0.044367
     57 H192       19.0090   -5.0990   92.6520 hc        1 3ON      0.044367
     58 H193       19.0810   -3.3290   92.2620 hc        1 3ON      0.044367
     59 H20        21.8520   -4.3880   90.7570 ha        1 3ON      0.122000
     60 H21        20.4280   -5.0680   88.0560 ha        1 3ON      0.125000
     61 H22        23.3880   -4.7030   88.9370 ha        1 3ON      0.124000
     62 H23        21.9640   -5.3810   86.2360 ha        1 3ON      0.122000
     63 H261       24.8230   -4.6810   84.3490 hc        1 3ON      0.044700
     64 H262       23.2190   -5.5260   84.3510 hc        1 3ON      0.044700
     65 H263       24.7290   -6.4510   84.7360 hc        1 3ON      0.044700
     66 H25        25.1470   -4.3530   88.0200 ha        1 3ON      0.124000
     67 H27        26.6900   -5.5840   85.6130 ha        1 3ON      0.127000
     68 H28        27.5370   -4.2660   88.3200 ha        1 3ON      0.121000
     69 H301       30.4040   -5.7690   85.5250 hc        1 3ON      0.049700
     70 H302       28.8750   -5.1110   84.8120 hc        1 3ON      0.049700
     71 H303       28.8650   -6.7270   85.6330 hc        1 3ON      0.049700
     72 H311       30.4510   -5.6380   88.3850 h1        1 3ON      0.029200
     73 H312       29.8190   -3.9370   88.6200 h1        1 3ON      0.029200
     74 H2         31.8940   -3.9790   87.6850 ho        1 3ON      0.401000
@<TRIPOS>BOND
     1    1    2 1   
     2    1   33 1   
     3    2    3 1   
     4    2    6 1   
     5    2   34 1   
     6    3    4 1   
     7    3   35 1   
     8    3   36 1   
     9    4    5 1   
    10    4   10 2   
    11    5   37 1   
    12    5   38 1   
    13    5   39 1   
    14    6    7 1   
    15    6   40 1   
    16    6   41 1   
    17    7    8 1   
    18    7    9 1   
    19    7   10 1   
    20    8   42 1   
    21    8   43 1   
    22    8   44 1   
    23    9   45 1   
    24    9   46 1   
    25    9   47 1   
    26   10   11 1   
    27   11   12 2   
    28   11   48 1   
    29   12   13 1   
    30   12   49 1   
    31   13   14 1   
    32   13   15 2   
    33   14   50 1   
    34   14   51 1   
    35   14   52 1   
    36   15   16 1   
    37   15   53 1   
    38   16   17 2   
    39   16   54 1   
    40   17   18 1   
    41   17   55 1   
    42   18   19 1   
    43   18   20 2   
    44   19   56 1   
    45   19   57 1   
    46   19   58 1   
    47   20   21 1   
    48   20   59 1   
    49   21   22 2   
    50   21   60 1   
    51   22   23 1   
    52   22   61 1   
    53   23   24 2   
    54   23   62 1   
    55   24   25 1   
    56   24   26 1   
    57   25   63 1   
    58   25   64 1   
    59   25   65 1   
    60   26   27 2   
    61   26   66 1   
    62   27   28 1   
    63   27   67 1   
    64   28   29 2   
    65   28   68 1   
    66   29   30 1   
    67   29   31 1   
    68   30   69 1   
    69   30   70 1   
    70   30   71 1   
    71   31   32 1   
    72   31   72 1   
    73   31   73 1   
    74   32   74 1   
@<TRIPOS>SUBSTRUCTURE
     1 3ON         1 TEMP              0 ****  ****    0 ROOT
