@<TRIPOS>MOLECULE
3ON
   74    66     1     0     0
SMALL
bcc


@<TRIPOS>ATOM
      1 O1         -9.5480   -0.2870   -2.8910 oh        1 3ON     -0.329000
      2 C5         -7.9880   -0.1180   -2.9510 c3        1 3ON      0.032000
      3 C4         -7.3890   -0.2670   -1.3880 c3        1 3ON     -0.127000
      4 C3         -5.9640   -0.3010   -1.3700 c2        1 3ON     -0.080000
      5 C11        -5.2210   -0.1810   -0.0600 c3        1 3ON     -0.188000
      6 C6         -7.5680   -0.8860   -3.7380 c3        1 3ON     -0.186000
      7 C1         -5.9460   -0.9020   -3.9260 c3        1 3ON     -0.004000
      8 C9         -5.4790    0.3540   -4.7280 c3        1 3ON     -0.205500
      9 C8         -5.5310   -1.9950   -4.8500 c3        1 3ON     -0.205500
     10 C2         -5.2440   -1.0240   -2.6660 c2        1 3ON     -0.088000
     11 C7         -4.2610   -2.1940   -2.4440 c2        1 3ON     -0.108000
     12 C12        -2.8960   -1.9330   -2.1610 c1        1 3ON     -0.136000
     13 C13        -2.3810   -0.4590   -2.0740 c1        1 3ON     -0.060500
     14 C14        -2.8900    0.5850   -3.0540 c3        1 3ON     -0.183500
     15 C15        -1.4440   -0.0990   -1.0860 c1        1 3ON     -0.141500
     16 C16        -0.9320   -1.1480   -0.0990 c1        1 3ON     -0.124500
     17 C17         0.3530   -1.0800    0.3680 c1        1 3ON     -0.124500
     18 C18         1.2770    0.0440   -0.0960 c1        1 3ON     -0.060500
     19 C19         1.3650    0.4020   -1.5950 c3        1 3ON     -0.183500
     20 C20         2.0370    0.7410    0.8270 c1        1 3ON     -0.141500
     21 C21         1.9530    0.3860    2.3220 c1        1 3ON     -0.124500
     22 C22         3.0260    0.6290    3.1480 c1        1 3ON     -0.124500
     23 C23         4.2960    1.2510    2.5840 c1        1 3ON     -0.135000
     24 C24         5.1590    1.9120    3.4110 c1        1 3ON     -0.067000
     25 C26         4.8520    2.0270    4.8890 c2        1 3ON     -0.182500
     26 C25         6.4430    2.5440    2.8400 c2        1 3ON     -0.127000
     27 C27         7.6770    1.9420    3.0650 c1        1 3ON     -0.119000
     28 C28         7.7620    0.6500    3.8810 c1        1 3ON     -0.147000
     29 C29         8.9890    0.1760    4.2940 c1        1 3ON     -0.087000
     30 C30        10.2660    0.9430    3.9360 c2        1 3ON     -0.182500
     31 C31         9.0750   -1.1110    5.1060 c3        1 3ON      0.011000
     32 O2          9.7130   -2.1120    4.3360 oh        1 3ON     -0.324000
     33 H1         -9.9340    0.4640   -3.1340 ho        1 3ON      0.198000
     34 H5         -7.7890    0.7840   -3.2700 h1        1 3ON      0.076000
     35 H4C1       -7.7230   -0.9710   -0.7860 hc        1 3ON      0.104000
     36 H4C2       -7.7290    0.5280   -0.9270 hc        1 3ON      0.104000
     37 H111       -5.8660   -0.0390    0.6730 hc        1 3ON      0.086333
     38 H112       -4.6030    0.5790   -0.1030 hc        1 3ON      0.086333
     39 H113       -4.7140   -1.0060    0.1050 hc        1 3ON      0.086333
     40 H6C1       -7.9750   -0.6850   -4.6090 hc        1 3ON      0.088500
     41 H6C2       -7.8530   -1.7860   -3.4670 hc        1 3ON      0.088500
     42 H9C1       -5.5170    1.1430   -4.1490 hc        1 3ON      0.076833
     43 H9C2       -6.0670    0.4860   -5.4970 hc        1 3ON      0.076833
     44 H9C3       -4.5520    0.2200   -5.0410 hc        1 3ON      0.076833
     45 H8C1       -5.9480   -1.8600   -5.7170 hc        1 3ON      0.076833
     46 H8C2       -4.5650   -1.9850   -4.9500 hc        1 3ON      0.076833
     47 H8C3       -5.8120   -2.8570   -4.4830 hc        1 3ON      0.076833
     48 H7         -4.5830   -3.1220   -2.4980 ha        1 3ON      0.125000
     49 H12        -2.2740   -2.6790   -2.0210 ha        1 3ON      0.125000
     50 H141       -2.2600    1.3550   -3.0760 hc        1 3ON      0.085500
     51 H142       -3.7730    0.8950   -2.7700 hc        1 3ON      0.085500
     52 H143       -2.9550    0.1900   -3.9470 hc        1 3ON      0.085500
     53 H15        -1.1200    0.8270   -1.0310 ha        1 3ON      0.128500
     54 H16        -1.5150   -1.8580    0.1940 ha        1 3ON      0.124250
     55 H17         0.6800   -1.7520    1.0000 ha        1 3ON      0.124250
     56 H191        0.9640   -0.3140   -2.1270 hc        1 3ON      0.085500
     57 H192        2.3170    0.5120   -1.8530 hc        1 3ON      0.085500
     58 H193        0.8860    1.2360   -1.7590 hc        1 3ON      0.085500
     59 H20         2.6300    1.4630    0.5280 ha        1 3ON      0.128500
     60 H21         1.1320   -0.0160    2.6860 ha        1 3ON      0.124250
     61 H22         2.9730    0.4020    4.0970 ha        1 3ON      0.124250
     62 H23         4.4930    1.1770    1.6370 ha        1 3ON      0.125000
     63 H261        3.9860    2.4720    5.0100 ha        1 3ON      0.086500
     64 H262        5.5500    2.5500    5.3270 ha        1 3ON      0.086500
     65 H263        4.8170    1.1300    5.2870 ha        1 3ON      0.086500
     66 H25         6.3910    3.3670    2.3200 ha        1 3ON      0.126000
     67 H27         8.4810    2.3400    2.7060 ha        1 3ON      0.124000
     68 H28         6.9510    0.1620    4.1080 ha        1 3ON      0.128000
     69 H301       11.0440    0.5070    4.3640 ha        1 3ON      0.086500
     70 H302       10.3850    0.9430    2.9590 ha        1 3ON      0.086500
     71 H303       10.1920    1.8680    4.2570 ha        1 3ON      0.086500
     72 H311        8.1780   -1.4060    5.3430 h1        1 3ON      0.068500
     73 H312        9.5910   -0.9490    5.9220 h1        1 3ON      0.068500
     74 H2          9.9230   -2.8040    4.8630 ho        1 3ON      0.199000
@<TRIPOS>BOND
     1    1    2 1   
     2    1   33 1   
     3    2    3 1   
     4    2    6 1   
     5    2   34 1   
     6    3    4 1   
     7    3   35 1   
     8    3   36 1   
     9    4    5 1   
    10    4   10 1   
    11    5   37 1   
    12    5   38 1   
    13    5   39 1   
    14    6    7 1   
    15    6   40 1   
    16    6   41 1   
    17    7    8 1   
    18    7    9 1   
    19    7   10 1   
    20    8   42 1   
    21    8   43 1   
    22    8   44 1   
    23    9   45 1   
    24    9   46 1   
    25    9   47 1   
    26   10   11 1   
    27   11   12 1   
    28   11   48 1   
    29   12   49 1   
    30   13   14 1   
    31   13   15 1   
    32   14   50 1   
    33   14   51 1   
    34   14   52 1   
    35   15   53 1   
    36   16   17 1   
    37   16   54 1   
    38   17   55 1   
    39   18   19 1   
    40   18   20 1   
    41   19   56 1   
    42   19   57 1   
    43   19   58 1   
    44   20   59 1   
    45   21   22 1   
    46   21   60 1   
    47   22   61 1   
    48   23   24 1   
    49   23   62 1   
    50   24   26 1   
    51   25   63 1   
    52   25   64 1   
    53   25   65 1   
    54   26   27 1   
    55   26   66 1   
    56   27   67 1   
    57   28   29 1   
    58   28   68 1   
    59   29   31 1   
    60   30   69 1   
    61   30   70 1   
    62   30   71 1   
    63   31   32 1   
    64   31   72 1   
    65   31   73 1   
    66   32   74 1   
@<TRIPOS>SUBSTRUCTURE
     1 3ON         1 TEMP              0 ****  ****    0 ROOT
