@<TRIPOS>MOLECULE
3ON
   74    74     1     0     0
SMALL
bcc


@<TRIPOS>ATOM
      1 O1         -0.5180    2.0150    2.1110 oh        1 3ON     -0.599800
      2 C5          0.8260    1.8520    1.6730 c3        1 3ON      0.142100
      3 C4          1.8030    2.3940    2.7090 c3        1 3ON     -0.078200
      4 C3          3.1630    2.6390    2.1550 c2        1 3ON     -0.097400
      5 C11         4.2050    2.8240    3.1960 c3        1 3ON     -0.064900
      6 C6          0.9540    2.6210    0.3670 c3        1 3ON     -0.069400
      7 C1          2.3590    2.4870   -0.2210 c3        1 3ON     -0.007800
      8 C9          2.5300    1.0980   -0.8320 c3        1 3ON     -0.085100
      9 C8          2.4940    3.5290   -1.3290 c3        1 3ON     -0.085100
     10 C2          3.4210    2.7090    0.8310 ce        1 3ON     -0.082200
     11 C7          4.7530    2.9620    0.2930 ce        1 3ON     -0.112000
     12 C12         5.5670    3.9490    0.7050 cf        1 3ON     -0.132000
     13 C13         6.8880    4.2010    0.1550 cf        1 3ON     -0.069200
     14 C14         7.5490    3.0730   -0.5530 c3        1 3ON     -0.062900
     15 C15         7.5220    5.3900    0.2650 ce        1 3ON     -0.131000
     16 C16         6.9940    6.5780    0.8910 ce        1 3ON     -0.125000
     17 C17         7.7100    7.7150    0.9960 cf        1 3ON     -0.122000
     18 C18         7.2280    8.9360    1.6130 cf        1 3ON     -0.071200
     19 C19         5.9700    8.8460    2.4010 c3        1 3ON     -0.062900
     20 C20         7.8640   10.1260    1.5050 ce        1 3ON     -0.126000
     21 C21         9.0720   10.3850    0.7610 ce        1 3ON     -0.129000
     22 C22         9.6680   11.5940    0.7500 cf        1 3ON     -0.119000
     23 C23        10.8760   11.8650    0.0070 cf        1 3ON     -0.139000
     24 C24        11.4870   13.0660   -0.0360 ce        1 3ON     -0.069200
     25 C26        12.7390   13.2690   -0.8080 c3        1 3ON     -0.060900
     26 C25        11.0020   14.2240    0.7100 ce        1 3ON     -0.130000
     27 C27        10.5040   15.3530    0.1840 cf        1 3ON     -0.118000
     28 C28        10.3180   15.5950   -1.2300 cf        1 3ON     -0.145000
     29 C29         9.9390   16.7770   -1.7520 c2        1 3ON     -0.094400
     30 C30         9.6960   17.9940   -0.9450 c3        1 3ON     -0.060900
     31 C31         9.7000   16.8920   -3.2260 c3        1 3ON      0.164600
     32 O2         10.2710   18.1080   -3.6920 oh        1 3ON     -0.596800
     33 H1         -0.5860    1.5730    2.9660 ho        1 3ON      0.398000
     34 H5          1.0220    0.7560    1.4990 h1        1 3ON      0.037700
     35 H4C1        1.8640    1.6730    3.5680 hc        1 3ON      0.054700
     36 H4C2        1.4040    3.3640    3.1160 hc        1 3ON      0.054700
     37 H111        4.2010    3.8850    3.5540 hc        1 3ON      0.045033
     38 H112        5.2260    2.5890    2.8050 hc        1 3ON      0.045033
     39 H113        4.0080    2.1610    4.0760 hc        1 3ON      0.045033
     40 H6C1        0.7240    3.7020    0.5590 hc        1 3ON      0.058200
     41 H6C2        0.1970    2.2400   -0.3650 hc        1 3ON      0.058200
     42 H9C1        2.4890    0.3130   -0.0410 hc        1 3ON      0.037700
     43 H9C2        1.7170    0.9050   -1.5720 hc        1 3ON      0.037700
     44 H9C3        3.5120    1.0210   -1.3570 hc        1 3ON      0.037700
     45 H8C1        1.6650    3.4070   -2.0660 hc        1 3ON      0.037700
     46 H8C2        3.4660    3.4110   -1.8650 hc        1 3ON      0.037700
     47 H8C3        2.4460    4.5590   -0.9020 hc        1 3ON      0.037700
     48 H7          5.0570    2.2840   -0.5250 ha        1 3ON      0.128000
     49 H12         5.2370    4.6330    1.5080 ha        1 3ON      0.129000
     50 H141        7.0480    2.8960   -1.5390 hc        1 3ON      0.043700
     51 H142        7.4740    2.1360    0.0520 hc        1 3ON      0.043700
     52 H143        8.6300    3.2840   -0.7440 hc        1 3ON      0.043700
     53 H15         8.5380    5.4920   -0.1630 ha        1 3ON      0.122000
     54 H16         5.9620    6.5270    1.2770 ha        1 3ON      0.127000
     55 H17         8.7400    7.7470    0.5970 ha        1 3ON      0.124000
     56 H191        5.7560    9.7990    2.9440 hc        1 3ON      0.043367
     57 H192        5.1070    8.6290    1.7220 hc        1 3ON      0.043367
     58 H193        6.0420    8.0220    3.1540 hc        1 3ON      0.043367
     59 H20         7.4340   11.0040    2.0220 ha        1 3ON      0.122000
     60 H21         9.5050    9.5520    0.1820 ha        1 3ON      0.124000
     61 H22        11.3030   11.0160   -0.5560 ha        1 3ON      0.124000
     62 H23         9.2430   12.4380    1.3210 ha        1 3ON      0.127000
     63 H261       12.9760   12.3820   -1.4450 hc        1 3ON      0.046367
     64 H262       12.6480   14.1690   -1.4660 hc        1 3ON      0.046367
     65 H263       13.5940   13.4370   -0.1050 hc        1 3ON      0.046367
     66 H25        11.0780   14.1200    1.8080 ha        1 3ON      0.130000
     67 H27        10.1910   16.1690    0.8600 ha        1 3ON      0.125000
     68 H28        10.4960   14.7290   -1.8920 ha        1 3ON      0.128000
     69 H301       10.5540   18.1870   -0.2540 hc        1 3ON      0.049700
     70 H302        9.5700   18.8910   -1.6020 hc        1 3ON      0.049700
     71 H303        8.7700   17.8710   -0.3290 hc        1 3ON      0.049700
     72 H311       10.1570   16.0270   -3.7800 h1        1 3ON      0.029200
     73 H312        8.5910   16.9000   -3.4190 h1        1 3ON      0.029200
     74 H2         10.0980   18.1400   -4.6400 ho        1 3ON      0.400000
@<TRIPOS>BOND
     1    1    2 1   
     2    1   33 1   
     3    2    3 1   
     4    2    6 1   
     5    2   34 1   
     6    3    4 1   
     7    3   35 1   
     8    3   36 1   
     9    4    5 1   
    10    4   10 2   
    11    5   37 1   
    12    5   38 1   
    13    5   39 1   
    14    6    7 1   
    15    6   40 1   
    16    6   41 1   
    17    7    8 1   
    18    7    9 1   
    19    7   10 1   
    20    8   42 1   
    21    8   43 1   
    22    8   44 1   
    23    9   45 1   
    24    9   46 1   
    25    9   47 1   
    26   10   11 1   
    27   11   12 2   
    28   11   48 1   
    29   12   13 1   
    30   12   49 1   
    31   13   14 1   
    32   13   15 2   
    33   14   50 1   
    34   14   51 1   
    35   14   52 1   
    36   15   16 1   
    37   15   53 1   
    38   16   17 2   
    39   16   54 1   
    40   17   18 1   
    41   17   55 1   
    42   18   19 1   
    43   18   20 2   
    44   19   56 1   
    45   19   57 1   
    46   19   58 1   
    47   20   21 1   
    48   20   59 1   
    49   21   22 2   
    50   21   60 1   
    51   22   23 1   
    52   22   62 1   
    53   23   24 2   
    54   23   61 1   
    55   24   25 1   
    56   24   26 1   
    57   25   63 1   
    58   25   64 1   
    59   25   65 1   
    60   26   27 2   
    61   26   66 1   
    62   27   28 1   
    63   27   67 1   
    64   28   29 2   
    65   28   68 1   
    66   29   30 1   
    67   29   31 1   
    68   30   69 1   
    69   30   70 1   
    70   30   71 1   
    71   31   32 1   
    72   31   72 1   
    73   31   73 1   
    74   32   74 1   
@<TRIPOS>SUBSTRUCTURE
     1 3ON         1 TEMP              0 ****  ****    0 ROOT
