@<TRIPOS>MOLECULE
3OO
   39    39     1     0     0
SMALL
bcc


@<TRIPOS>ATOM
      1 BR         -0.0090    0.0280    0.0900 br        1 3OO     -0.081100
      2 C12         1.8550   -0.1190    0.0010 ca        1 3OO     -0.035900
      3 C11         2.6040   -0.2560    1.1730 ca        1 3OO     -0.084000
      4 C10         3.9920   -0.3750    1.1020 ca        1 3OO     -0.137000
      5 C9          4.6370   -0.3540   -0.1340 ca        1 3OO     -0.066000
      6 C13         2.4960   -0.0940   -1.2420 ca        1 3OO     -0.082000
      7 C8          3.8880   -0.2040   -1.3060 ca        1 3OO     -0.139600
      8 C7          4.6160   -0.2000   -2.6100 c         1 3OO      0.668700
      9 O           5.5950   -0.9490   -2.8040 o         1 3OO     -0.600100
     10 N1          4.2020    0.7100   -3.5630 n         1 3OO     -0.563900
     11 C6          4.7540    0.7460   -4.8890 c3        1 3OO      0.087000
     12 C5          3.8100    0.2340   -5.9790 c3        1 3OO     -0.112400
     13 C4          4.5010    0.3740   -7.3350 c3        1 3OO      0.164800
     14 N           3.6520   -0.0170   -8.4420 n3        1 3OO     -0.813200
     15 C1          4.3490   -0.2020   -9.7250 c3        1 3OO      0.183200
     16 C3          5.2270    1.0070  -10.0750 c3        1 3OO     -0.099767
     17 C2          5.2430   -1.4550   -9.7630 c3        1 3OO     -0.099767
     18 C           3.3000   -0.3570  -10.8430 c3        1 3OO     -0.099767
     19 H1          2.1050   -0.2740    2.1550 ha        1 3OO      0.150000
     20 H2          4.5790   -0.4900    2.0250 ha        1 3OO      0.145000
     21 H3          5.7310   -0.4660   -0.2020 ha        1 3OO      0.160000
     22 H4          1.9000   -0.0050   -2.1640 ha        1 3OO      0.147000
     23 H5          3.3700    1.2270   -3.4040 hn        1 3OO      0.309500
     24 H6          5.7020    0.1340   -4.9030 h1        1 3OO      0.064700
     25 H7          5.0250    1.8170   -5.1200 h1        1 3OO      0.064700
     26 H8          2.8550    0.8210   -5.9730 hc        1 3OO      0.050700
     27 H9          3.5510   -0.8390   -5.7870 hc        1 3OO      0.050700
     28 H10         5.4670   -0.2110   -7.3000 h1        1 3OO      0.033200
     29 H11         4.7740    1.4570   -7.4950 h1        1 3OO      0.033200
     30 H12         3.1530   -0.8590   -8.2210 hn        1 3OO      0.356800
     31 H14         5.6260    0.8810  -11.1100 hc        1 3OO      0.038589
     32 H15         6.0900    1.0880   -9.3710 hc        1 3OO      0.038589
     33 H16         4.6350    1.9520  -10.0330 hc        1 3OO      0.038589
     34 H17         6.0600   -1.3870   -9.0060 hc        1 3OO      0.038589
     35 H18         5.7070   -1.5510  -10.7730 hc        1 3OO      0.038589
     36 H19         4.6420   -2.3740   -9.5610 hc        1 3OO      0.038589
     37 H20         2.6510    0.5480  -10.8990 hc        1 3OO      0.038589
     38 H21         2.6570   -1.2510  -10.6620 hc        1 3OO      0.038589
     39 H22         3.8240   -0.4870  -11.8190 hc        1 3OO      0.038589
@<TRIPOS>BOND
     1    1    2 1   
     2    2    3 ar  
     3    2    6 ar  
     4    3    4 ar  
     5    3   19 1   
     6    4    5 ar  
     7    4   20 1   
     8    5    7 ar  
     9    5   21 1   
    10    6    7 ar  
    11    6   22 1   
    12    7    8 1   
    13    8    9 2   
    14    8   10 1   
    15   10   11 1   
    16   10   23 1   
    17   11   12 1   
    18   11   24 1   
    19   11   25 1   
    20   12   13 1   
    21   12   26 1   
    22   12   27 1   
    23   13   14 1   
    24   13   28 1   
    25   13   29 1   
    26   14   15 1   
    27   14   30 1   
    28   15   16 1   
    29   15   17 1   
    30   15   18 1   
    31   16   31 1   
    32   16   32 1   
    33   16   33 1   
    34   17   34 1   
    35   17   35 1   
    36   17   36 1   
    37   18   37 1   
    38   18   38 1   
    39   18   39 1   
@<TRIPOS>SUBSTRUCTURE
     1 3OO         1 TEMP              0 ****  ****    0 ROOT
