@<TRIPOS>MOLECULE
3OO
   41    41     1     0     0
SMALL
bcc


@<TRIPOS>ATOM
      1 Br          0.1500    0.0090    0.6170 br        1 3OO      0.007900
      2 C12         2.0000    0.0020    0.3730 ca        1 3OO     -0.033900
      3 C11         2.8590   -0.0010    1.4870 ca        1 3OO     -0.006000
      4 C10         4.2400   -0.0060    1.3030 ca        1 3OO     -0.122000
      5 C9          4.7820   -0.0080    0.0200 ca        1 3OO     -0.016000
      6 C13         2.5320   -0.0010   -0.9140 ca        1 3OO     -0.077000
      7 C8          3.9260   -0.0060   -1.1000 ca        1 3OO     -0.218600
      8 C7          4.5770   -0.0080   -2.3990 c         1 3OO      0.590700
      9 O           5.7660   -0.0090   -2.6780 o         1 3OO     -0.422100
     10 N1          3.6400   -0.0120   -3.6300 ny        1 3OO     -0.688800
     11 C6          4.3870   -0.0190   -4.9150 c3        1 3OO      0.105800
     12 C5          3.4850   -0.0220   -6.1470 c3        1 3OO     -0.134400
     13 C4          4.3820   -0.0290   -7.3880 c3        1 3OO      0.102800
     14 N           3.6180   -0.0320   -8.6600 ny        1 3OO     -0.774000
     15 C1          4.4970   -0.0400   -9.9300 c3        1 3OO      0.163200
     16 C3          5.3720    1.2110   -9.9730 c3        1 3OO     -0.136433
     17 C2          5.3660   -1.2940   -9.9630 c3        1 3OO     -0.136433
     18 C           3.5500   -0.0430  -11.1360 c3        1 3OO     -0.136433
     19 H1          2.4410    0.0010    2.5120 ha        1 3OO      0.193000
     20 H2          4.9130   -0.0080    2.1800 ha        1 3OO      0.189000
     21 H3          5.8780   -0.0120   -0.1210 ha        1 3OO      0.179000
     22 H4          1.8330    0.0020   -1.7650 ha        1 3OO      0.127000
     23 H5          3.0430    0.8210   -3.5750 hn        1 3OO      0.459800
     24 H6          5.0580    0.8920   -4.9250 hx        1 3OO      0.126700
     25 H7          5.0540   -0.9320   -4.9170 hx        1 3OO      0.126700
     26 H8          2.8220   -0.9290   -6.1430 hc        1 3OO      0.084700
     27 H9          2.8260    0.8880   -6.1500 hc        1 3OO      0.084700
     28 H10         5.0430   -0.9460   -7.3750 hx        1 3OO      0.120700
     29 H11         5.0460    0.8850   -7.3830 hx        1 3OO      0.120700
     30 H12         3.0210    0.8010   -8.7060 hn        1 3OO      0.450800
     31 H14         6.1610    1.1900   -9.1840 hc        1 3OO      0.084144
     32 H15         4.7670    2.1450   -9.8770 hc        1 3OO      0.084144
     33 H16         5.8880    1.2390  -10.9690 hc        1 3OO      0.084144
     34 H17         5.8820   -1.3320  -10.9580 hc        1 3OO      0.084144
     35 H18         6.1560   -1.2700   -9.1740 hc        1 3OO      0.084144
     36 H19         4.7580   -2.2250   -9.8590 hc        1 3OO      0.084144
     37 H20         2.9090    0.8720  -11.1590 hc        1 3OO      0.084144
     38 H21         2.9050   -0.9550  -11.1520 hc        1 3OO      0.084144
     39 H22         4.1710   -0.0480  -12.0690 hc        1 3OO      0.084144
     40 H121        3.0400   -0.8410   -3.5670 hn        1 3OO      0.459800
     41 HN3         3.0170   -0.8640   -8.6990 hn        1 3OO      0.450800
@<TRIPOS>BOND
     1    1    2 1   
     2    2    3 ar  
     3    2    6 ar  
     4    3    4 ar  
     5    3   19 1   
     6    4    5 ar  
     7    4   20 1   
     8    5    7 ar  
     9    5   21 1   
    10    6    7 ar  
    11    6   22 1   
    12    7    8 1   
    13    8    9 2   
    14    8   10 1   
    15   10   11 1   
    16   10   23 1   
    17   10   40 1   
    18   11   12 1   
    19   11   24 1   
    20   11   25 1   
    21   12   13 1   
    22   12   26 1   
    23   12   27 1   
    24   13   14 1   
    25   13   28 1   
    26   13   29 1   
    27   14   15 1   
    28   14   30 1   
    29   14   41 1   
    30   15   16 1   
    31   15   17 1   
    32   15   18 1   
    33   16   31 1   
    34   16   32 1   
    35   16   33 1   
    36   17   34 1   
    37   17   35 1   
    38   17   36 1   
    39   18   37 1   
    40   18   38 1   
    41   18   39 1   
@<TRIPOS>SUBSTRUCTURE
     1 3OO         1 TEMP              0 ****  ****    0 ROOT
