@<TRIPOS>MOLECULE
3OO
   41    41     1     0     0
SMALL
bcc


@<TRIPOS>ATOM
      1 BR          0.1610    0.0310    0.6240 br        1 3OO      0.007900
      2 C12         2.0100    0.0110    0.3770 ca        1 3OO     -0.033900
      3 C11         2.8710    0.0020    1.4890 ca        1 3OO     -0.006000
      4 C10         4.2520   -0.0130    1.3030 ca        1 3OO     -0.122000
      5 C9          4.7920   -0.0170    0.0190 ca        1 3OO     -0.016000
      6 C13         2.5400    0.0070   -0.9110 ca        1 3OO     -0.077000
      7 C8          3.9340   -0.0070   -1.1000 ca        1 3OO     -0.218600
      8 C7          4.5830   -0.0130   -2.4000 c         1 3OO      0.590700
      9 O           5.7710   -0.0190   -2.6810 o         1 3OO     -0.422100
     10 N1          3.6430   -0.0110   -3.6290 n4        1 3OO     -0.688800
     11 C6          4.3880   -0.0210   -4.9160 c3        1 3OO      0.105800
     12 C5          3.4840   -0.0200   -6.1460 c3        1 3OO     -0.134400
     13 C4          4.3790   -0.0310   -7.3880 c3        1 3OO      0.102800
     14 N           3.6130   -0.0300   -8.6590 n4        1 3OO     -0.774000
     15 C1          4.4890   -0.0390   -9.9310 c3        1 3OO      0.163200
     16 C3          5.3660    1.2090   -9.9760 c3        1 3OO     -0.136433
     17 C2          5.3560   -1.2950   -9.9650 c3        1 3OO     -0.136433
     18 C           3.5410   -0.0400  -11.1350 c3        1 3OO     -0.136433
     19 H1          2.4550    0.0050    2.5140 ha        1 3OO      0.193000
     20 H2          4.9260   -0.0200    2.1790 ha        1 3OO      0.189000
     21 H3          5.8880   -0.0280   -0.1240 ha        1 3OO      0.179000
     22 H4          1.8400    0.0160   -1.7610 ha        1 3OO      0.127000
     23 H5          3.0390   -0.8370   -3.5660 hn        1 3OO      0.459800
     24 H6          5.0500   -0.9380   -4.9190 hx        1 3OO      0.126700
     25 H7          5.0630    0.8860   -4.9260 hx        1 3OO      0.126700
     26 H8          2.8170   -0.9240   -6.1410 hc        1 3OO      0.084700
     27 H9          2.8290    0.8930   -6.1480 hc        1 3OO      0.084700
     28 H10         5.0480    0.8800   -7.3840 hx        1 3OO      0.120700
     29 H11         5.0350   -0.9510   -7.3770 hx        1 3OO      0.120700
     30 H12         3.0090   -0.8600   -8.6980 hn        1 3OO      0.450800
     31 H14         6.1570    1.1870   -9.1880 hc        1 3OO      0.084144
     32 H15         5.8810    1.2360  -10.9720 hc        1 3OO      0.084144
     33 H16         4.7640    2.1450   -9.8790 hc        1 3OO      0.084144
     34 H17         4.7460   -2.2250   -9.8610 hc        1 3OO      0.084144
     35 H18         6.1470   -1.2730   -9.1780 hc        1 3OO      0.084144
     36 H19         5.8700   -1.3350  -10.9610 hc        1 3OO      0.084144
     37 H20         2.9010    0.8750  -11.1570 hc        1 3OO      0.084144
     38 H21         2.8940   -0.9510  -11.1500 hc        1 3OO      0.084144
     39 H22         4.1600   -0.0460  -12.0690 hc        1 3OO      0.084144
     40 H121        3.0510    0.8250   -3.5730 hn        1 3OO      0.459800
     41 HN3         3.0180    0.8050   -8.7030 hn        1 3OO      0.450800
@<TRIPOS>BOND
     1    1    2 1   
     2    2    3 ar  
     3    2    6 ar  
     4    3    4 ar  
     5    3   19 1   
     6    4    5 ar  
     7    4   20 1   
     8    5    7 ar  
     9    5   21 1   
    10    6    7 ar  
    11    6   22 1   
    12    7    8 1   
    13    8    9 2   
    14    8   10 1   
    15   10   11 1   
    16   10   23 1   
    17   10   40 1   
    18   11   12 1   
    19   11   24 1   
    20   11   25 1   
    21   12   13 1   
    22   12   26 1   
    23   12   27 1   
    24   13   14 1   
    25   13   28 1   
    26   13   29 1   
    27   14   15 1   
    28   14   30 1   
    29   14   41 1   
    30   15   16 1   
    31   15   17 1   
    32   15   18 1   
    33   16   31 1   
    34   16   32 1   
    35   16   33 1   
    36   17   34 1   
    37   17   35 1   
    38   17   36 1   
    39   18   37 1   
    40   18   38 1   
    41   18   39 1   
@<TRIPOS>SUBSTRUCTURE
     1 3OO         1 TEMP              0 ****  ****    0 ROOT
