@<TRIPOS>MOLECULE
3OP
   21    22     1     0     0
SMALL
bcc


@<TRIPOS>ATOM
      1 C4          0.2210    0.2700   -0.0000 ca        1 3OP     -0.017200
      2 C5          0.7720   -0.8720   -2.6100 ca        1 3OP     -0.137000
      3 C6          1.6040    0.1370    0.1690 ca        1 3OP     -0.137000
      4 C7          1.2280   -1.1350   -3.9020 ca        1 3OP     -0.221300
      5 C8          2.0730   -0.2560    1.4230 ca        1 3OP     -0.221300
      6 C9          1.0920   -0.1380   -4.8850 ca        1 3OP      0.375200
      7 C10         1.1430   -0.4960    2.4500 ca        1 3OP      0.375200
      8 N12        -0.1910   -0.3660    2.2940 nb        1 3OP     -0.644000
      9 C2         -0.6480    0.0070    1.0890 ca        1 3OP      0.391200
     10 O13        -0.3840    0.7480   -1.1550 os        1 3OP     -0.230200
     11 C3          0.2020    0.3820   -2.3590 ca        1 3OP     -0.017200
     12 N11         0.5410    1.0700   -4.6510 nb        1 3OP     -0.644000
     13 C1          0.1040    1.3300   -3.4080 ca        1 3OP      0.391200
     14 H2          2.2930    0.3370   -0.6640 ha        1 3OP      0.153000
     15 H3          1.6810   -2.1040   -4.1510 ha        1 3OP      0.148000
     16 H4          3.1490   -0.3710    1.6080 ha        1 3OP      0.148000
     17 H5          1.4420   -0.3110   -5.9180 h4        1 3OP      0.027100
     18 H6          1.4770   -0.8090    3.4550 h4        1 3OP      0.027100
     19 H7         -1.7400    0.1180    0.9750 h4        1 3OP      0.041100
     20 H8         -0.3530    2.3190   -3.2300 h4        1 3OP      0.041100
     21 H1          0.8570   -1.6200   -1.8080 ha        1 3OP      0.153000
@<TRIPOS>BOND
     1    1    3 ar  
     2    1    9 ar  
     3    1   10 1   
     4    2    4 ar  
     5    2   11 ar  
     6    2   21 1   
     7    3    5 ar  
     8    3   14 1   
     9    4    6 ar  
    10    4   15 1   
    11    5    7 ar  
    12    5   16 1   
    13    6   12 ar  
    14    6   17 1   
    15    7    8 ar  
    16    7   18 1   
    17    8    9 ar  
    18    9   19 1   
    19   10   11 1   
    20   11   13 ar  
    21   12   13 ar  
    22   13   20 1   
@<TRIPOS>SUBSTRUCTURE
     1 3OP         1 TEMP              0 ****  ****    0 ROOT
