@<TRIPOS>MOLECULE
3OP
   21    22     1     0     0
SMALL
bcc


@<TRIPOS>ATOM
      1 C4         -1.1720   -0.3050   -0.2660 ca        1 3OP     -0.017200
      2 C5          1.4570    0.0970    0.8950 ca        1 3OP     -0.137000
      3 C6         -1.2660    1.0840   -0.1260 ca        1 3OP     -0.137000
      4 C7          2.7700    0.4800    1.1690 ca        1 3OP     -0.221300
      5 C8         -2.4950    1.6190    0.2620 ca        1 3OP     -0.221300
      6 C9          3.7510    0.2960    0.1770 ca        1 3OP      0.375200
      7 C10        -3.5720    0.7450    0.4910 ca        1 3OP      0.375200
      8 N12        -3.4890   -0.5940    0.3550 nb        1 3OP     -0.644000
      9 C2         -2.3080   -1.1150   -0.0150 ca        1 3OP      0.391200
     10 O13        -0.0480   -0.9690   -0.7400 os        1 3OP     -0.230200
     11 C3          1.1840   -0.4520   -0.3630 ca        1 3OP     -0.017200
     12 N11         3.4950   -0.2350   -1.0360 nb        1 3OP     -0.644000
     13 C1          2.2320   -0.6020   -1.3060 ca        1 3OP      0.391200
     14 H2         -0.3950    1.7280   -0.3160 ha        1 3OP      0.153000
     15 H3          3.0370    0.9130    2.1420 ha        1 3OP      0.148000
     16 H4         -2.6220    2.7030    0.3830 ha        1 3OP      0.148000
     17 H5          4.8010    0.5880    0.3580 h4        1 3OP      0.027100
     18 H6         -4.5600    1.1320    0.8000 h4        1 3OP      0.027100
     19 H7         -2.2530   -2.2110   -0.1310 h4        1 3OP      0.041100
     20 H8          2.0350   -1.0430   -2.2990 h4        1 3OP      0.041100
     21 H1          0.6570    0.2210    1.6390 ha        1 3OP      0.153000
@<TRIPOS>BOND
     1    1    3 ar  
     2    1    9 ar  
     3    1   10 1   
     4    2    4 ar  
     5    2   11 ar  
     6    2   21 1   
     7    3    5 ar  
     8    3   14 1   
     9    4    6 ar  
    10    4   15 1   
    11    5    7 ar  
    12    5   16 1   
    13    6   12 ar  
    14    6   17 1   
    15    7    8 ar  
    16    7   18 1   
    17    8    9 ar  
    18    9   19 1   
    19   10   11 1   
    20   11   13 ar  
    21   12   13 ar  
    22   13   20 1   
@<TRIPOS>SUBSTRUCTURE
     1 3OP         1 TEMP              0 ****  ****    0 ROOT
