@<TRIPOS>MOLECULE
3OP
   21    16     1     0     0
SMALL
bcc


@<TRIPOS>ATOM
      1 C4          0.6000    0.8400    0.5390 c1        1 3OP      0.002000
      2 C5         -1.9950   -0.1260   -1.2160 c1        1 3OP     -0.104000
      3 C6          1.9260    1.1620    0.4990 c2        1 3OP     -0.104000
      4 C7         -2.6420   -1.2330   -1.6830 c1        1 3OP     -0.124500
      5 C8          2.6070    1.3930    1.6590 c1        1 3OP     -0.159000
      6 C9         -1.9150   -2.3420   -2.0860 c1        1 3OP     -0.124500
      7 C10         1.9510    1.2990    2.8770 c1        1 3OP     -0.098500
      8 N12         0.6280    0.9770    2.9160 n1        1 3OP     -0.114000
      9 C2         -0.0530    0.7460    1.7580 c1        1 3OP     -0.107000
     10 O13         0.0390    1.0510   -0.7310 o         1 3OP     -0.142000
     11 C3         -0.6320   -0.1120   -1.1470 c1        1 3OP      0.002000
     12 N11        -0.5550   -2.3270   -2.0160 n1        1 3OP     -0.114000
     13 C1          0.0930   -1.2230   -1.5510 c1        1 3OP     -0.098500
     14 H1         -2.5060    0.6560   -0.9320 ha        1 3OP      0.157000
     15 H2          2.3870    1.2280   -0.3590 ha        1 3OP      0.157000
     16 H3         -3.6170   -1.2440   -1.7320 ha        1 3OP      0.156000
     17 H4          3.5550    1.6230    1.6310 ha        1 3OP      0.148000
     18 H5         -2.3780   -3.1340   -2.4190 ha        1 3OP      0.156000
     19 H6          2.4380    1.4640    3.7070 ha        1 3OP      0.168500
     20 H7         -1.0010    0.5160    1.7880 ha        1 3OP      0.173000
     21 H8          1.0680   -1.2130   -1.5010 ha        1 3OP      0.168500
@<TRIPOS>BOND
     1    1    3 1   
     2    1    9 1   
     3    2   11 1   
     4    2   14 1   
     5    3    5 1   
     6    3   15 1   
     7    4    6 1   
     8    4   16 1   
     9    5   17 1   
    10    6   18 1   
    11    7    8 1   
    12    7   19 1   
    13    9   20 1   
    14   10   11 1   
    15   12   13 1   
    16   13   21 1   
@<TRIPOS>SUBSTRUCTURE
     1 3OP         1 TEMP              0 ****  ****    0 ROOT
