@<TRIPOS>MOLECULE
3OQ
   42    36     1     0     0
SMALL
bcc


@<TRIPOS>ATOM
      1 C4         -2.0880   -1.7910   -3.6510 c1        1 3OQ      0.053000
      2 C5         -3.0680   -1.8740   -4.7870 c1        1 3OQ     -0.110000
      3 C7         -0.7870   -2.2750   -3.8160 c1        1 3OQ     -0.128000
      4 C8          0.1120   -2.2430   -2.7520 c1        1 3OQ      0.059000
      5 C10         1.5490   -4.1280   -3.4300 c3        1 3OQ      0.025000
      6 C15         0.6090   -0.1470    0.7990 c1        1 3OQ     -0.802000
      7 C17        -0.2500    0.9450    2.7720 c1        1 3OQ     -0.132000
      8 C21        -1.2490    3.4250    3.8350 c3        1 3OQ     -0.253000
      9 C22         1.1760    3.3240    4.3810 c3        1 3OQ      0.428000
     10 C26         1.0980    2.1870    1.2040 c1        1 3OQ     -0.075500
     11 F23         2.4120    3.2720    3.8910 f         1 3OQ     -0.156333
     12 F24         0.9470    2.2570    5.1010 f         1 3OQ     -0.156333
     13 F25         1.0430    4.4290    5.1550 f         1 3OQ     -0.156333
     14 C19         0.1960    3.3750    3.2600 c3        1 3OQ      0.090000
     15 O20         0.4420    4.5820    2.4390 oh        1 3OQ     -0.302000
     16 C18         0.3550    2.1270    2.3920 c1        1 3OQ     -0.063000
     17 C27         1.2270    1.0600    0.4080 c1        1 3OQ     -0.075500
     18 C16        -0.1220   -0.1980    1.9720 c1        1 3OQ     -0.017000
     19 S12         0.8670   -1.6560   -0.1520 s4        1 3OQ      2.094800
     20 O13         2.2690   -1.7760   -0.6200 o         1 3OQ     -0.532400
     21 O14         0.7580   -2.7780    0.6570 o         1 3OQ     -0.532400
     22 C1         -0.2890   -1.7250   -1.5250 c1        1 3OQ     -0.769000
     23 C2         -1.5850   -1.2440   -1.3670 c2        1 3OQ     -0.048000
     24 C3         -2.4830   -1.2810   -2.4430 c1        1 3OQ     -0.118000
     25 N6         -3.8000   -1.9350   -5.6380 n1        1 3OQ     -0.012000
     26 C9          1.3950   -2.6100   -3.4210 c2        1 3OQ     -0.195000
     27 F11         0.6970   -4.6910   -2.4550 f         1 3OQ     -0.158000
     28 H1         -0.5020   -2.6460   -4.6980 ha        1 3OQ      0.149000
     29 H2          2.5270   -4.3750   -3.2190 h1        1 3OQ      0.083000
     30 H3          1.2990   -4.4870   -4.3520 h1        1 3OQ      0.083000
     31 H4         -0.7690    0.9060    3.6030 ha        1 3OQ      0.152000
     32 H5         -1.4680    4.3100    4.0480 hc        1 3OQ      0.106000
     33 H6         -1.2990    2.8770    4.6410 hc        1 3OQ      0.106000
     34 H7         -1.8900    3.0780    3.1560 hc        1 3OQ      0.106000
     35 H8          1.5280    3.0320    0.9350 ha        1 3OQ      0.158000
     36 H9         -0.3580    4.8870    2.0890 ho        1 3OQ      0.220000
     37 H10         1.7960    1.1060   -0.5010 ha        1 3OQ      0.158000
     38 H11        -0.5330   -0.9980    2.2320 ha        1 3OQ      0.154000
     39 H12        -1.8490   -0.9040   -0.5640 ha        1 3OQ      0.170000
     40 H13        -3.4390   -0.9260   -2.3270 ha        1 3OQ      0.156000
     41 H14         1.3880   -2.2860   -4.3180 ha        1 3OQ      0.121000
     42 H15         2.1380   -2.2070   -2.9370 ha        1 3OQ      0.121000
@<TRIPOS>BOND
     1    1    2 1   
     2    1    3 1   
     3    2   25 1   
     4    3   28 1   
     5    4   22 1   
     6    5   26 1   
     7    5   27 1   
     8    5   29 1   
     9    5   30 1   
    10    6   18 1   
    11    6   19 1   
    12    7   16 1   
    13    7   31 1   
    14    8   14 1   
    15    8   32 1   
    16    8   33 1   
    17    8   34 1   
    18    9   11 1   
    19    9   12 1   
    20    9   13 1   
    21    9   14 1   
    22   10   17 1   
    23   10   35 1   
    24   14   15 1   
    25   14   16 1   
    26   15   36 1   
    27   17   37 1   
    28   18   38 1   
    29   19   20 1   
    30   19   21 1   
    31   22   23 1   
    32   23   24 1   
    33   23   39 1   
    34   24   40 1   
    35   26   41 1   
    36   26   42 1   
@<TRIPOS>SUBSTRUCTURE
     1 3OQ         1 TEMP              0 ****  ****    0 ROOT
