@<TRIPOS>MOLECULE
3OQ
   42    43     1     0     0
SMALL
bcc


@<TRIPOS>ATOM
      1 C4         -0.3440   -0.2160    0.4950 ca        1 3OQ      0.050000
      2 C5         -1.2040   -0.2170   -0.6390 cg        1 3OQ      0.218800
      3 C7          0.9680    0.2500    0.3790 ca        1 3OQ     -0.124000
      4 C8          1.8220    0.2590    1.4920 ca        1 3OQ      0.044700
      5 C10         4.1510   -0.3190    0.7960 c3        1 3OQ      0.158900
      6 C15         2.2820    1.3060    4.6480 ca        1 3OQ     -0.363500
      7 C17         1.0930    3.2190    5.5670 ca        1 3OQ     -0.129500
      8 C21         1.1720    6.2090    5.2870 c3        1 3OQ     -0.136100
      9 C22         2.0230    5.5180    7.5680 c3        1 3OQ      0.640900
     10 C26         3.4590    3.3840    5.1070 ca        1 3OQ     -0.129500
     11 F23         2.9270    4.8270    8.3250 f         1 3OQ     -0.227633
     12 F24         0.7930    5.0620    7.9700 f         1 3OQ     -0.227633
     13 F25         2.0820    6.8070    8.0270 f         1 3OQ     -0.227633
     14 C19         2.2580    5.4130    6.0000 c3        1 3OQ      0.169100
     15 O20         3.5280    6.0260    5.8290 oh        1 3OQ     -0.573800
     16 C18         2.2720    3.9750    5.5520 ca        1 3OQ     -0.067300
     17 C27         3.4590    2.0650    4.6620 ca        1 3OQ     -0.018500
     18 C16         1.1060    1.9010    5.1210 ca        1 3OQ     -0.018500
     19 O13         3.6120   -0.6810    3.8340 o         1 3OQ     -0.649800
     20 O14         1.6110   -1.0890    5.0820 o         1 3OQ     -0.649800
     21 C1          1.3650   -0.2060    2.7350 ca        1 3OQ     -0.337500
     22 C2          0.0420   -0.6720    2.8270 ca        1 3OQ     -0.044000
     23 C3         -0.8120   -0.6830    1.7320 ca        1 3OQ     -0.119000
     24 N6         -1.9080   -0.2170   -1.5650 n1        1 3OQ     -0.333800
     25 C9          3.2020    0.7830    1.2880 c3        1 3OQ     -0.098100
     26 F11         5.3160    0.2270    0.2940 f         1 3OQ     -0.243300
     27 H1          1.3380    0.6140   -0.5930 ha        1 3OQ      0.155000
     28 H2          3.6530   -0.9120   -0.0200 h1        1 3OQ      0.065700
     29 H3          4.4080   -1.0030    1.6540 h1        1 3OQ      0.065700
     30 H4          0.1600    3.6590    5.9530 ha        1 3OQ      0.157000
     31 H5          0.1610    5.8430    5.5890 hc        1 3OQ      0.067033
     32 H6          1.2830    6.1050    4.1820 hc        1 3OQ      0.067033
     33 H7          1.2630    7.2880    5.5650 hc        1 3OQ      0.067033
     34 H8          4.4010    3.9580    5.1280 ha        1 3OQ      0.157000
     35 H9          3.6170    6.2390    4.8900 ho        1 3OQ      0.422000
     36 H10         4.4070    1.6010    4.3290 ha        1 3OQ      0.157500
     37 H11         0.1750    1.3080    5.1520 ha        1 3OQ      0.157500
     38 H12        -0.3250   -1.0570    3.7980 ha        1 3OQ      0.172000
     39 H13        -1.8420   -1.0560    1.8320 ha        1 3OQ      0.157000
     40 H14         3.6120    1.2120    2.2410 hc        1 3OQ      0.069200
     41 H15         3.1840    1.6140    0.5330 hc        1 3OQ      0.069200
     42 S12         2.3000   -0.2990    4.1500 sy        1 3OQ      1.433600
@<TRIPOS>BOND
     1    1    2 1   
     2    1    3 ar  
     3    1   23 ar  
     4    2   24 3   
     5    3    4 ar  
     6    3   27 1   
     7    4   21 ar  
     8    4   25 1   
     9    5   25 1   
    10    5   26 1   
    11    5   28 1   
    12    5   29 1   
    13    6   17 ar  
    14    6   18 ar  
    15    6   42 1   
    16    7   16 ar  
    17    7   18 ar  
    18    7   30 1   
    19    8   14 1   
    20    8   31 1   
    21    8   32 1   
    22    8   33 1   
    23    9   11 1   
    24    9   12 1   
    25    9   13 1   
    26    9   14 1   
    27   10   16 ar  
    28   10   17 ar  
    29   10   34 1   
    30   14   15 1   
    31   14   16 1   
    32   15   35 1   
    33   17   36 1   
    34   18   37 1   
    35   19   42 2   
    36   20   42 2   
    37   21   22 ar  
    38   21   42 1   
    39   22   23 ar  
    40   22   38 1   
    41   23   39 1   
    42   25   40 1   
    43   25   41 1   
@<TRIPOS>SUBSTRUCTURE
     1 3OQ         1 TEMP              0 ****  ****    0 ROOT
