@<TRIPOS>MOLECULE
3OQ
   42    43     1     0     0
SMALL
bcc


@<TRIPOS>ATOM
      1 C4         -0.3560   -0.4110    0.6520 ca        1 3OQ      0.051000
      2 C5         -1.2760   -0.4760   -0.4310 cg        1 3OQ      0.217800
      3 C7          0.9240    0.1140    0.4550 ca        1 3OQ     -0.123000
      4 C8          1.8370    0.1850    1.5180 ca        1 3OQ      0.045700
      5 C10         4.1480   -0.2970    0.7030 c3        1 3OQ      0.158900
      6 C15         2.4180    1.3160    4.6270 ca        1 3OQ     -0.362500
      7 C17         1.1920    3.1890    5.5790 ca        1 3OQ     -0.134500
      8 C21         1.3880    6.2510    5.0080 c3        1 3OQ     -0.094100
      9 C22         1.7580    5.5890    7.4280 c3        1 3OQ      0.589900
     10 C26         3.5190    3.4540    4.9910 ca        1 3OQ     -0.134500
     11 F23         2.4950    4.8770    8.3390 f         1 3OQ     -0.232300
     12 F24         0.4580    5.2120    7.6330 f         1 3OQ     -0.232300
     13 F25         1.8190    6.8830    7.8770 f         1 3OQ     -0.232300
     14 C19         2.2870    5.4380    5.9330 c3        1 3OQ      0.180100
     15 O20         3.5610    6.0540    5.9010 oh        1 3OQ     -0.565800
     16 C18         2.3360    3.9940    5.5090 ca        1 3OQ     -0.067300
     17 C27         3.5560    2.1300    4.5610 ca        1 3OQ     -0.016500
     18 C16         1.2410    1.8670    5.1480 ca        1 3OQ     -0.016500
     19 O13         3.7980   -0.6200    3.7750 o         1 3OQ     -0.650300
     20 O14         1.8900   -1.0980    5.1370 o         1 3OQ     -0.650300
     21 C1          1.4720   -0.2760    2.7920 ca        1 3OQ     -0.339500
     22 C2          0.1800   -0.8020    2.9660 ca        1 3OQ     -0.044000
     23 C3         -0.7310   -0.8750    1.9220 ca        1 3OQ     -0.119000
     24 N6         -2.0290   -0.5290   -1.3160 n1        1 3OQ     -0.333800
     25 C9          3.1760    0.7690    1.2280 c3        1 3OQ     -0.098100
     26 F11         5.2600    0.2910    0.1330 f         1 3OQ     -0.243300
     27 H1          1.2220    0.4750   -0.5420 ha        1 3OQ      0.156000
     28 H2          4.4810   -0.9540    1.5570 h1        1 3OQ      0.065200
     29 H3          3.6370   -0.9260   -0.0770 h1        1 3OQ      0.065200
     30 H4          0.2520    3.5960    5.9850 ha        1 3OQ      0.156500
     31 H5          0.3510    5.8410    5.0470 hc        1 3OQ      0.068367
     32 H6          1.3840    7.3190    5.3360 hc        1 3OQ      0.068367
     33 H7          1.7780    6.1960    3.9640 hc        1 3OQ      0.068367
     34 H8          4.4240    4.0770    4.9080 ha        1 3OQ      0.156500
     35 H9          4.1260    5.5920    6.5370 ho        1 3OQ      0.421000
     36 H10         4.5020    1.7090    4.1720 ha        1 3OQ      0.158000
     37 H11         0.3380    1.2370    5.2270 ha        1 3OQ      0.158000
     38 H12        -0.1140   -1.1830    3.9640 ha        1 3OQ      0.171000
     39 H13        -1.7350   -1.2940    2.0860 ha        1 3OQ      0.157000
     40 H14         3.0770    1.5830    0.4600 hc        1 3OQ      0.070200
     41 H15         3.6180    1.2370    2.1480 hc        1 3OQ      0.070200
     42 S12         2.4860   -0.2960    4.1530 sy        1 3OQ      1.433600
@<TRIPOS>BOND
     1    1    2 1   
     2    1    3 ar  
     3    1   23 ar  
     4    2   24 3   
     5    3    4 ar  
     6    3   27 1   
     7    4   21 ar  
     8    4   25 1   
     9    5   25 1   
    10    5   26 1   
    11    5   28 1   
    12    5   29 1   
    13    6   17 ar  
    14    6   18 ar  
    15    6   42 1   
    16    7   16 ar  
    17    7   18 ar  
    18    7   30 1   
    19    8   14 1   
    20    8   31 1   
    21    8   32 1   
    22    8   33 1   
    23    9   11 1   
    24    9   12 1   
    25    9   13 1   
    26    9   14 1   
    27   10   16 ar  
    28   10   17 ar  
    29   10   34 1   
    30   14   15 1   
    31   14   16 1   
    32   15   35 1   
    33   17   36 1   
    34   18   37 1   
    35   19   42 2   
    36   20   42 2   
    37   21   22 ar  
    38   21   42 1   
    39   22   23 ar  
    40   22   38 1   
    41   23   39 1   
    42   25   40 1   
    43   25   41 1   
@<TRIPOS>SUBSTRUCTURE
     1 3OQ         1 TEMP              0 ****  ****    0 ROOT
