@<TRIPOS>MOLECULE
3OQ
   42    43     1     0     0
SMALL
bcc


@<TRIPOS>ATOM
      1 C4          4.2230    2.0160   -0.5180 ca        1 3OQ      0.051000
      2 C5          5.1330    3.0860   -0.2900 cg        1 3OQ      0.217800
      3 C7          3.8630    1.1670    0.5300 ca        1 3OQ     -0.123000
      4 C8          2.9640    0.1110    0.3150 ca        1 3OQ      0.045700
      5 C10         3.6360   -1.8820    1.6630 c3        1 3OQ      0.158900
      6 C15        -0.0900   -0.7790   -0.7650 ca        1 3OQ     -0.362500
      7 C17        -1.9430    0.7940   -0.8640 ca        1 3OQ     -0.134500
      8 C21        -3.6940    2.0220    1.4090 c3        1 3OQ     -0.094100
      9 C22        -4.9870    0.7750   -0.3810 c3        1 3OQ      0.589900
     10 C26        -1.9540   -0.9700    0.7850 ca        1 3OQ     -0.134500
     11 F23        -5.2130   -0.4050   -1.0430 f         1 3OQ     -0.232300
     12 F24        -4.7330    1.7000   -1.3560 f         1 3OQ     -0.232300
     13 F25        -6.2130    1.1250    0.1200 f         1 3OQ     -0.232300
     14 C19        -3.8770    0.6560    0.7560 c3        1 3OQ      0.180100
     15 O20        -4.4170   -0.1960    1.7480 oh        1 3OQ     -0.565800
     16 C18        -2.5740    0.1420    0.2030 ca        1 3OQ     -0.067300
     17 C27        -0.7300   -1.4240    0.3010 ca        1 3OQ     -0.016500
     18 C16        -0.7200    0.3310   -1.3400 ca        1 3OQ     -0.016500
     19 O13         1.7210   -2.5380   -0.6950 o         1 3OQ     -0.650300
     20 O14         1.2880   -1.4370   -2.7740 o         1 3OQ     -0.650300
     21 C1          2.4200   -0.1030   -0.9610 ca        1 3OQ     -0.339500
     22 C2          2.7990    0.7640   -2.0010 ca        1 3OQ     -0.044000
     23 C3          3.6860    1.8120   -1.7980 ca        1 3OQ     -0.119000
     24 N6          5.8770    3.9620   -0.1040 n1        1 3OQ     -0.333800
     25 C9          2.6220   -0.7430    1.4880 c3        1 3OQ     -0.098100
     26 F11         3.5130   -2.4580    2.9120 f         1 3OQ     -0.243300
     27 H1          4.2870    1.3230    1.5350 ha        1 3OQ      0.156000
     28 H2          3.4540   -2.6700    0.8780 h1        1 3OQ      0.065200
     29 H3          4.6810   -1.4790    1.5560 h1        1 3OQ      0.065200
     30 H4         -2.4160    1.6700   -1.3350 ha        1 3OQ      0.156500
     31 H5         -3.3270    2.7500    0.6470 hc        1 3OQ      0.068367
     32 H6         -4.6710    2.3700    1.8240 hc        1 3OQ      0.068367
     33 H7         -2.9560    1.9420    2.2420 hc        1 3OQ      0.068367
     34 H8         -2.4250   -1.4840    1.6390 ha        1 3OQ      0.156500
     35 H9         -4.6050   -1.0490    1.3310 ho        1 3OQ      0.421000
     36 H10        -0.2590   -2.3150    0.7570 ha        1 3OQ      0.158000
     37 H11        -0.2420    0.8420   -2.1940 ha        1 3OQ      0.158000
     38 H12         2.3890    0.5960   -3.0160 ha        1 3OQ      0.171000
     39 H13         3.9670    2.4740   -2.6310 ha        1 3OQ      0.157000
     40 H14         2.6100   -0.1170    2.4210 hc        1 3OQ      0.070200
     41 H15         1.5970   -1.1870    1.3750 hc        1 3OQ      0.070200
     42 S12         1.3640   -1.3650   -1.3750 sy        1 3OQ      1.433600
@<TRIPOS>BOND
     1    1    2 1   
     2    1    3 ar  
     3    1   23 ar  
     4    2   24 3   
     5    3    4 ar  
     6    3   27 1   
     7    4   21 ar  
     8    4   25 1   
     9    5   25 1   
    10    5   26 1   
    11    5   28 1   
    12    5   29 1   
    13    6   17 ar  
    14    6   18 ar  
    15    6   42 1   
    16    7   16 ar  
    17    7   18 ar  
    18    7   30 1   
    19    8   14 1   
    20    8   31 1   
    21    8   32 1   
    22    8   33 1   
    23    9   11 1   
    24    9   12 1   
    25    9   13 1   
    26    9   14 1   
    27   10   16 ar  
    28   10   17 ar  
    29   10   34 1   
    30   14   15 1   
    31   14   16 1   
    32   15   35 1   
    33   17   36 1   
    34   18   37 1   
    35   19   42 2   
    36   20   42 2   
    37   21   22 ar  
    38   21   42 1   
    39   22   23 ar  
    40   22   38 1   
    41   23   39 1   
    42   25   40 1   
    43   25   41 1   
@<TRIPOS>SUBSTRUCTURE
     1 3OQ         1 TEMP              0 ****  ****    0 ROOT
