@<TRIPOS>MOLECULE
3OQ
   42    43     1     0     0
SMALL
bcc


@<TRIPOS>ATOM
      1 C4         -0.1290   -0.1490    0.2340 ca        1 3OQ      0.052000
      2 C5         -0.8530   -0.1320   -0.9910 cg        1 3OQ      0.217800
      3 C7          1.2100    0.2490    0.2620 ca        1 3OQ     -0.123000
      4 C8          1.9320    0.2370    1.4650 ca        1 3OQ      0.046700
      5 C10         4.2910   -0.4700    1.0480 c3        1 3OQ      0.158900
      6 C15         2.0870    1.3260    4.6370 ca        1 3OQ     -0.358500
      7 C17         0.9090    3.3210    5.3850 ca        1 3OQ     -0.132000
      8 C21         0.7800    6.1200    5.9990 c3        1 3OQ     -0.098100
      9 C22         2.8560    5.5970    7.3400 c3        1 3OQ      0.588900
     10 C26         3.3130    3.3490    5.1940 ca        1 3OQ     -0.132000
     11 F23         4.2030    5.3390    7.2970 f         1 3OQ     -0.233300
     12 F24         2.3550    4.7680    8.3060 f         1 3OQ     -0.233300
     13 F25         2.7670    6.8540    7.8750 f         1 3OQ     -0.233300
     14 C19         2.1530    5.4650    5.9130 c3        1 3OQ      0.184100
     15 O20         2.9000    6.2560    5.0080 oh        1 3OQ     -0.563800
     16 C18         2.1180    4.0160    5.4960 ca        1 3OQ     -0.063300
     17 C27         3.2950    2.0230    4.7720 ca        1 3OQ     -0.016000
     18 C16         0.9020    1.9930    4.9630 ca        1 3OQ     -0.016000
     19 O13         3.3920   -0.7450    4.0130 o         1 3OQ     -0.649800
     20 O14         1.2420   -1.0190    5.0290 o         1 3OQ     -0.649800
     21 C1          1.3130   -0.1790    2.6540 ca        1 3OQ     -0.340500
     22 C2         -0.0340   -0.5770    2.6010 ca        1 3OQ     -0.044000
     23 C3         -0.7570   -0.5670    1.4160 ca        1 3OQ     -0.120000
     24 N6         -1.4470   -0.1170   -1.9910 n1        1 3OQ     -0.332800
     25 C9          3.3510    0.6870    1.4130 c3        1 3OQ     -0.098100
     26 F11         5.5350    0.0050    0.6830 f         1 3OQ     -0.243300
     27 H1          1.7070    0.5740   -0.6660 ha        1 3OQ      0.156000
     28 H2          4.4070   -1.1530    1.9370 h1        1 3OQ      0.065200
     29 H3          3.8610   -1.0490    0.1840 h1        1 3OQ      0.065200
     30 H4         -0.0470    3.8070    5.6330 ha        1 3OQ      0.150000
     31 H5          0.2010    5.6680    6.8380 hc        1 3OQ      0.069033
     32 H6          0.9070    7.2150    6.1870 hc        1 3OQ      0.069033
     33 H7          0.2340    5.9860    5.0350 hc        1 3OQ      0.069033
     34 H8          4.2810    3.8630    5.3120 ha        1 3OQ      0.150000
     35 H9          3.7780    5.8600    4.9130 ho        1 3OQ      0.420000
     36 H10         4.2480    1.5060    4.5530 ha        1 3OQ      0.158000
     37 H11        -0.0590    1.4520    4.8940 ha        1 3OQ      0.158000
     38 H12        -0.5290   -0.9220    3.5300 ha        1 3OQ      0.171000
     39 H13        -1.8100   -0.8870    1.4030 ha        1 3OQ      0.157000
     40 H14         3.4620    1.5030    0.6490 hc        1 3OQ      0.070700
     41 H15         3.6730    1.1150    2.4000 hc        1 3OQ      0.070700
     42 S12         2.0750   -0.2900    4.1670 sy        1 3OQ      1.432600
@<TRIPOS>BOND
     1    1    2 1   
     2    1    3 ar  
     3    1   23 ar  
     4    2   24 3   
     5    3    4 ar  
     6    3   27 1   
     7    4   21 ar  
     8    4   25 1   
     9    5   25 1   
    10    5   26 1   
    11    5   28 1   
    12    5   29 1   
    13    6   17 ar  
    14    6   18 ar  
    15    6   42 1   
    16    7   16 ar  
    17    7   18 ar  
    18    7   30 1   
    19    8   14 1   
    20    8   31 1   
    21    8   32 1   
    22    8   33 1   
    23    9   11 1   
    24    9   12 1   
    25    9   13 1   
    26    9   14 1   
    27   10   16 ar  
    28   10   17 ar  
    29   10   34 1   
    30   14   15 1   
    31   14   16 1   
    32   15   35 1   
    33   17   36 1   
    34   18   37 1   
    35   19   42 2   
    36   20   42 2   
    37   21   22 ar  
    38   21   42 1   
    39   22   23 ar  
    40   22   38 1   
    41   23   39 1   
    42   25   40 1   
    43   25   41 1   
@<TRIPOS>SUBSTRUCTURE
     1 3OQ         1 TEMP              0 ****  ****    0 ROOT
