@<TRIPOS>MOLECULE
3OR
   51    50     1     0     0
SMALL
bcc


@<TRIPOS>ATOM
      1 C4          0.2980   -0.7680   -0.6480 c2        1 3OR     -0.116000
      2 C5          1.5810   -1.4370   -0.3100 c3        1 3OR     -0.080000
      3 C6          1.8150   -1.6040    1.1570 c2        1 3OR     -0.148000
      4 C7          3.0920   -1.5490    1.6080 c2        1 3OR      0.017000
      5 C13        -1.1600    2.1760   -0.1650 c2        1 3OR     -0.232000
      6 C15        -4.9280    3.3470    1.6700 c2        1 3OR     -0.542000
      7 C17        -3.6620    2.8110    1.2700 c2        1 3OR     -0.099000
      8 C20         4.7660   -2.3780    3.1290 c2        1 3OR      0.317000
      9 C22         5.3780   -2.5140    4.5040 c3        1 3OR     -0.169000
     10 C24         2.8830   -0.9250    3.9380 c2        1 3OR      0.280000
     11 C26         0.2700   -0.1410   -2.0040 c2        1 3OR      0.298000
     12 C1         -0.7590   -0.7250    0.2060 c2        1 3OR      0.032000
     13 N2         -2.0000   -0.1270   -0.1430 n3        1 3OR     -0.234000
     14 C3         -2.1410    1.2760    0.0510 c2        1 3OR     -0.009000
     15 N8          3.5630   -1.6370    2.9340 n         1 3OR     -0.316000
     16 C9          0.6130   -1.8270    1.9560 c2        1 3OR      0.076000
     17 F10         0.7200   -2.4770    3.1380 f         1 3OR     -0.086000
     18 C11        -0.6180   -1.4030    1.5130 c2        1 3OR      0.013000
     19 F12        -1.7330   -1.6100    2.2500 f         1 3OR     -0.086000
     20 C14        -6.1770    3.0520    1.3600 c1        1 3OR      0.285000
     21 C18        -3.5000    1.7540    0.4320 c2        1 3OR      0.062000
     22 F19        -4.5530    1.0800   -0.0930 f         1 3OR     -0.099000
     23 O21         5.2900   -2.9130    2.1390 o         1 3OR     -0.324000
     24 C23         6.2250   -1.3130    4.8410 c3        1 3OR     -0.210000
     25 O25         3.2240   -0.8980    5.1240 o         1 3OR     -0.312000
     26 O27         1.0870    0.7400   -2.3200 o         1 3OR     -0.318000
     27 N28        -0.6210   -0.7310   -2.9410 n         1 3OR     -0.187000
     28 O29        -0.8860    0.0160   -4.0230 os        1 3OR     -0.209000
     29 C30         0.0060   -0.1950   -5.1400 c3        1 3OR     -0.087000
     30 C31        -2.2110    2.5740   -5.6340 c2        1 3OR      0.137000
     31 O32        -1.7180    2.2770   -6.7210 o         1 3OR     -0.292000
     32 H5          2.4240   -0.8470   -0.7720 hc        1 3OR      0.129000
     33 H7          1.5870   -2.4570   -0.7950 hc        1 3OR      0.129000
     34 H7A         3.9190   -1.4600    0.8670 h4        1 3OR      0.175000
     35 H13        -0.1340    1.8920   -0.4370 ha        1 3OR      0.141500
     36 H17        -2.7600    3.2970    1.6800 ha        1 3OR      0.162000
     37 H22         4.5840   -2.6640    5.2830 hc        1 3OR      0.125000
     38 H22A        6.0190   -3.4380    4.4790 hc        1 3OR      0.125000
     39 H24         5.5880   -0.4010    4.9500 hc        1 3OR      0.087667
     40 H24A        1.9940   -0.3710    3.5510 h5        1 3OR      0.145000
     41 HN2        -2.7690   -0.6340    0.2620 hn        1 3OR      0.211000
     42 H14        -1.3510    3.2540   -0.0980 ha        1 3OR      0.141500
     43 H23         6.9900   -1.1300    4.0490 hc        1 3OR      0.087667
     44 H23A        6.7510   -1.4910    5.8110 hc        1 3OR      0.087667
     45 HN28       -1.5050   -1.0180   -2.5370 hn        1 3OR      0.231000
     46 H30        -0.0210   -1.2580   -5.4750 h1        1 3OR      0.097667
     47 H30A        1.0440    0.1130   -4.8680 h1        1 3OR      0.097667
     48 H31        -0.4290    0.4870   -5.9170 h1        1 3OR      0.097667
     49 H31A       -2.8990    3.4380   -5.5170 h4        1 3OR      0.078500
     50 HO32       -1.9940    1.9930   -4.7110 h4        1 3OR      0.078500
     51 I16        -5.0080    4.8980    2.9930 i         1 3OR      0.209000
@<TRIPOS>BOND
     1    1    2 1   
     2    1   11 1   
     3    1   12 1   
     4    2    3 1   
     5    2   32 1   
     6    2   33 1   
     7    3    4 1   
     8    3   16 1   
     9    4   15 1   
    10    4   34 1   
    11    5   14 1   
    12    5   35 1   
    13    5   42 1   
    14    6    7 1   
    15    6   20 1   
    16    6   51 1   
    17    7   21 1   
    18    7   36 1   
    19    8    9 1   
    20    8   15 1   
    21    8   23 1   
    22    9   24 1   
    23    9   37 1   
    24    9   38 1   
    25   10   15 1   
    26   10   25 1   
    27   10   40 1   
    28   11   26 1   
    29   11   27 1   
    30   12   13 1   
    31   12   18 1   
    32   13   14 1   
    33   13   41 1   
    34   14   21 1   
    35   16   17 1   
    36   16   18 1   
    37   18   19 1   
    38   21   22 1   
    39   24   39 1   
    40   24   43 1   
    41   24   44 1   
    42   27   28 1   
    43   27   45 1   
    44   28   29 1   
    45   29   46 1   
    46   29   47 1   
    47   29   48 1   
    48   30   31 1   
    49   30   49 1   
    50   30   50 1   
@<TRIPOS>SUBSTRUCTURE
     1 3OR         1 TEMP              0 ****  ****    0 ROOT
