@<TRIPOS>MOLECULE
3OR
   52    48     1     0     0
SMALL
bcc


@<TRIPOS>ATOM
      1 C4          0.7770    0.4190    0.3810 ca        1 3OR     -0.176000
      2 C5          2.0610    0.7910    0.7870 ca        1 3OR     -0.014000
      3 C6          2.4610    0.6640    2.1190 ca        1 3OR     -0.073000
      4 C7          3.8180    1.0420    2.5640 c2        1 3OR     -0.044000
      5 C13        -2.2290    1.9360    0.9990 ca        1 3OR     -0.139000
      6 C15        -4.4440    2.5370    0.2240 ca        1 3OR     -0.249000
      7 C17        -4.7000    1.2050   -0.0890 ca        1 3OR     -0.104000
      8 C20         2.0440   -4.1240   -1.9760 c1        1 3OR      0.350000
      9 C22         2.7080   -5.1750   -2.1960 c1        1 3OR     -0.431000
     10 C24         5.4310    1.6210    5.5080 c1        1 3OR      0.158000
     11 C26         0.4560    0.5500   -1.0510 c2        1 3OR      0.326000
     12 C1         -0.1830   -0.0500    1.3080 ca        1 3OR      0.044000
     13 N2         -1.4720   -0.4390    0.8590 nh        1 3OR     -0.257000
     14 C3         -2.4520    0.5840    0.6830 ca        1 3OR     -0.042000
     15 N8          4.7690    1.2450    1.7300 n2        1 3OR     -0.211000
     16 C9          1.5390    0.1640    3.0650 ca        1 3OR      0.146000
     17 F10         1.8810    0.0170    4.3590 f         1 3OR     -0.053000
     18 C11         0.2180   -0.1830    2.6630 ca        1 3OR      0.025000
     19 F12        -0.6490   -0.6540    3.5860 f         1 3OR     -0.064000
     20 C14        -3.2090    2.8960    0.7660 ca        1 3OR     -0.077000
     21 C18        -3.7160    0.2260    0.1280 ca        1 3OR      0.054000
     22 F19        -3.9870   -1.0650   -0.1870 f         1 3OR     -0.100000
     23 C23         3.3940   -6.2590   -2.4280 c2        1 3OR      0.120000
     24 O25         5.8260    1.7530    6.6000 o         1 3OR     -0.162000
     25 O27         0.5650    1.5430   -1.7550 o         1 3OR     -0.165000
     26 N28         0.0120   -0.7220   -1.7310 n4        1 3OR     -0.131000
     27 O29        -1.1530    0.1430   -3.6570 os        1 3OR     -0.317000
     28 C30        -1.2970   -0.6030   -2.4660 c3        1 3OR      0.071000
     29 C31        -0.3100   -0.4070   -4.5970 c1        1 3OR      0.133000
     30 O32        -0.3740    0.3110   -5.6740 oh        1 3OR     -0.195000
     31 H5          2.7750    1.1890    0.0410 ha        1 3OR      0.193000
     32 H7          5.6490    1.4960    2.1300 hn        1 3OR      0.177000
     33 H7A         3.9130    1.1190    3.6760 h4        1 3OR      0.147000
     34 H13        -1.2710    2.2480    1.4470 ha        1 3OR      0.152000
     35 H17        -5.6720    0.8900   -0.5050 ha        1 3OR      0.178000
     36 H22         3.7400   -0.8950    5.8350 ha        1 3OR      0.002500
     37 H22A        4.0950   -0.3770    5.5800 ha        1 3OR      0.002500
     38 H24         4.2540   -6.2720   -3.1200 ha        1 3OR      0.136500
     39 H24A        2.9660    2.1040    5.6420 ha        1 3OR      0.002500
     40 HN2        -1.8480   -1.1860    1.4250 hn        1 3OR      0.225000
     41 H14        -2.9980    3.9480    1.0260 ha        1 3OR      0.168000
     42 H23         2.9780    1.5400    6.0190 ha        1 3OR      0.002500
     43 H23A        3.1500   -7.2220   -1.9450 ha        1 3OR      0.136500
     44 HN28       -0.0670   -1.4810   -1.0390 hn        1 3OR      0.283500
     45 H30         1.9600    0.6620   -4.2870 ha        1 3OR      0.002500
     46 H30A        1.7050    0.6390   -3.6590 ha        1 3OR      0.002500
     47 H31        -2.0400   -0.0270   -1.8370 hx        1 3OR      0.166000
     48 H31A       -1.6480   -1.6510   -2.6970 hx        1 3OR      0.166000
     49 HO32       -0.9860    1.0780   -5.6610 ho        1 3OR      0.248000
     50 I16        -5.8590    3.9370   -0.1000 i         1 3OR      0.208000
     51 H282        0.7440   -0.9980   -2.4130 hn        1 3OR      0.283500
     52 O21         1.4090   -3.1210   -1.7640 o         1 3OR     -0.308000
@<TRIPOS>BOND
     1    1    2 1   
     2    1   11 1   
     3    1   12 1   
     4    2    3 1   
     5    2   31 1   
     6    3    4 1   
     7    3   16 1   
     8    4   15 1   
     9    4   33 1   
    10    5   14 1   
    11    5   20 1   
    12    5   34 1   
    13    6    7 1   
    14    6   20 1   
    15    6   50 1   
    16    7   21 1   
    17    7   35 1   
    18    8    9 1   
    19    8   52 1   
    20    9   23 1   
    21   10   24 1   
    22   11   25 1   
    23   11   26 1   
    24   12   13 1   
    25   12   18 1   
    26   13   14 1   
    27   13   40 1   
    28   14   21 1   
    29   15   32 1   
    30   16   17 1   
    31   16   18 1   
    32   18   19 1   
    33   20   41 1   
    34   21   22 1   
    35   23   38 1   
    36   23   43 1   
    37   26   28 1   
    38   26   44 1   
    39   26   51 1   
    40   27   28 1   
    41   27   29 1   
    42   28   47 1   
    43   28   48 1   
    44   29   30 1   
    45   30   49 1   
    46   36   37 1   
    47   39   42 1   
    48   45   46 1   
@<TRIPOS>SUBSTRUCTURE
     1 3OR         1 TEMP              0 ****  ****    0 ROOT
