@<TRIPOS>MOLECULE
3OR
   51    53     1     0     0
SMALL
bcc


@<TRIPOS>ATOM
      1 C4          1.6390    0.7250    0.0390 ca        1 3OR     -0.197600
      2 C5          2.7880    0.6490    0.8250 ca        1 3OR     -0.058000
      3 C6          3.2340   -0.5630    1.3500 ca        1 3OR     -0.166300
      4 C7          4.4510   -0.6030    2.2270 c3        1 3OR      0.106300
      5 C13        -1.8350   -1.3210    0.4330 ca        1 3OR     -0.167000
      6 C15        -4.1530   -1.5510   -0.2250 ca        1 3OR      0.006900
      7 C17        -3.8610   -0.9890   -1.4640 ca        1 3OR     -0.097000
      8 C20         6.1460    0.6020    0.8880 c         1 3OR      0.661500
      9 C22         7.1710    0.5380   -0.2210 c3        1 3OR     -0.151400
     10 C24         6.3180   -1.8000   -0.4000 c3        1 3OR      0.091400
     11 C26         1.2160    2.0510   -0.4990 c         1 3OR      0.625700
     12 C1          0.8890   -0.4380   -0.2800 ca        1 3OR      0.187600
     13 N2         -0.1950   -0.3830   -1.1640 nh        1 3OR     -0.634000
     14 C3         -1.4980   -0.7580   -0.8150 ca        1 3OR      0.151600
     15 N8          5.7560   -0.5850    1.5650 n         1 3OR     -0.268300
     16 C9          2.5020   -1.7320    1.0730 ca        1 3OR      0.148900
     17 F10         2.8870   -2.9280    1.5670 f         1 3OR     -0.109900
     18 C11         1.3420   -1.6790    0.2530 ca        1 3OR      0.054900
     19 F12         0.6980   -2.8380   -0.0130 f         1 3OR     -0.109900
     20 C14        -3.1380   -1.7140    0.7160 ca        1 3OR     -0.071000
     21 C18        -2.5510   -0.5900   -1.7700 ca        1 3OR      0.071900
     22 F19        -2.2980   -0.0350   -2.9820 f         1 3OR     -0.133900
     23 O21         5.7000    1.6960    1.2790 o         1 3OR     -0.618500
     24 C23         7.4450   -0.8520   -0.7520 c3        1 3OR     -0.108400
     25 O25         6.0790   -1.7660    1.0250 os        1 3OR     -0.229900
     26 O27         0.9350    2.2270   -1.6960 o         1 3OR     -0.560100
     27 N28         1.2740    3.1410    0.4180 n         1 3OR     -0.345400
     28 O29         0.5320    4.2040    0.0840 os        1 3OR     -0.277900
     29 C30         1.2200    5.1850   -0.7460 c3        1 3OR      0.084400
     30 C31         0.2120    6.3180   -0.9000 c3        1 3OR      0.125400
     31 O32         0.0780    7.0650    0.2900 oh        1 3OR     -0.596800
     32 H5          3.3780    1.5620    1.0380 ha        1 3OR      0.185000
     33 H7          4.4470    0.2990    2.9040 h1        1 3OR      0.095200
     34 H7A         4.4260   -1.5410    2.8540 h1        1 3OR      0.095200
     35 H13        -1.0540   -1.4700    1.1950 ha        1 3OR      0.146000
     36 H17        -4.6430   -0.8460   -2.2270 ha        1 3OR      0.163000
     37 H22         6.7950    1.2060   -1.0430 hc        1 3OR      0.086700
     38 H22A        8.1180    0.9960    0.1730 hc        1 3OR      0.086700
     39 H24         5.3800   -1.5550   -0.9590 h1        1 3OR      0.068700
     40 H24A        6.6000   -2.8720   -0.5700 h1        1 3OR      0.068700
     41 HN2        -0.1300    0.3220   -1.8780 hn        1 3OR      0.469800
     42 H14        -3.3560   -2.1570    1.7020 ha        1 3OR      0.150000
     43 H23         7.5760   -0.8200   -1.8640 hc        1 3OR      0.063700
     44 H23A        8.3990   -1.2420   -0.3090 hc        1 3OR      0.063700
     45 HN28        1.0340    2.8790    1.3670 hn        1 3OR      0.306500
     46 H30         2.1500    5.5340   -0.2310 h1        1 3OR      0.067700
     47 H30A        1.4610    4.7220   -1.7370 h1        1 3OR      0.067700
     48 H31         0.5920    7.0500   -1.6620 h1        1 3OR      0.061700
     49 H31A       -0.7830    5.9110   -1.2220 h1        1 3OR      0.061700
     50 HO32       -0.2380    6.4580    0.9710 ho        1 3OR      0.407000
     51 I16        -6.0400   -2.1240    0.2020 i         1 3OR     -0.128900
@<TRIPOS>BOND
     1    1    2 ar  
     2    1   11 1   
     3    1   12 ar  
     4    2    3 ar  
     5    2   32 1   
     6    3    4 1   
     7    3   16 ar  
     8    4   15 1   
     9    4   33 1   
    10    4   34 1   
    11    5   14 ar  
    12    5   20 ar  
    13    5   35 1   
    14    6    7 ar  
    15    6   20 ar  
    16    6   51 1   
    17    7   21 ar  
    18    7   36 1   
    19    8    9 1   
    20    8   15 1   
    21    8   23 2   
    22    9   24 1   
    23    9   37 1   
    24    9   38 1   
    25   10   24 1   
    26   10   25 1   
    27   10   39 1   
    28   10   40 1   
    29   11   26 2   
    30   11   27 1   
    31   12   13 1   
    32   12   18 ar  
    33   13   14 1   
    34   13   41 1   
    35   14   21 ar  
    36   15   25 1   
    37   16   17 1   
    38   16   18 ar  
    39   18   19 1   
    40   20   42 1   
    41   21   22 1   
    42   24   43 1   
    43   24   44 1   
    44   27   28 1   
    45   27   45 1   
    46   28   29 1   
    47   29   30 1   
    48   29   46 1   
    49   29   47 1   
    50   30   31 1   
    51   30   48 1   
    52   30   49 1   
    53   31   50 1   
@<TRIPOS>SUBSTRUCTURE
     1 3OR         1 TEMP              0 ****  ****    0 ROOT
