@<TRIPOS>MOLECULE
3OR
   51    47     1     0     0
SMALL
bcc


@<TRIPOS>ATOM
      1 C4         -0.8150   -1.0110   -0.2000 c1        1 3OR     -0.178000
      2 C5          0.5770   -1.1840   -0.2040 c1        1 3OR     -0.060000
      3 C6          1.2610   -1.3650    0.9940 c1        1 3OR     -0.149000
      4 C7          2.7730   -1.7830    0.9670 c3        1 3OR     -0.005000
      5 C13        -4.5680   -0.8550    2.4660 c1        1 3OR     -0.168000
      6 C15        -6.3850    0.5820    1.8250 c1        1 3OR     -0.280000
      7 C17        -5.5150    1.3260    1.0370 c1        1 3OR     -0.097000
      8 C20         4.3160    0.1170    0.3270 c1        1 3OR      0.263000
      9 C22         5.4580    1.1400    0.9530 c3        1 3OR     -0.180000
     10 C24         4.7900    0.2370    2.1180 c3        1 3OR     -0.027000
     11 C26        -1.5560   -0.8400   -1.5050 c1        1 3OR      0.311000
     12 C1         -1.5050   -1.0200    0.9860 c2        1 3OR      0.109000
     13 N2         -2.9550   -1.0760    0.9710 n3        1 3OR     -0.266000
     14 C3         -3.7040   -0.1160    1.6830 c2        1 3OR      0.072000
     15 N8          3.6130   -0.6390    1.3440 n2        1 3OR     -0.162000
     16 C9          0.5690   -1.3750    2.1870 c1        1 3OR      0.121000
     17 F10         1.2290   -1.6050    3.3500 f         1 3OR     -0.076000
     18 C11        -0.8190   -1.2030    2.1940 c1        1 3OR      0.022000
     19 F12        -1.5050   -1.2830    3.3560 f         1 3OR     -0.075000
     20 C14        -5.9090   -0.5090    2.5390 c1        1 3OR     -0.071000
     21 I16        -8.3810    1.1870    2.0410 i         1 3OR      0.155000
     22 C18        -4.1770    0.9780    0.9660 c2        1 3OR      0.036000
     23 F19        -3.3310    1.7300    0.2670 f         1 3OR     -0.099000
     24 O21         3.7450    0.4000   -0.7480 o         1 3OR     -0.334000
     25 C23         5.5780    1.0270    1.0750 c3        1 3OR     -0.182000
     26 O25         3.5710   -0.5320    1.5020 os        1 3OR     -0.193000
     27 O27        -2.7530   -0.6900   -1.5040 o         1 3OR     -0.336000
     28 N28        -0.8400   -0.8390   -2.7320 n3        1 3OR     -0.197000
     29 O29        -1.3520   -0.1470   -3.8390 os        1 3OR     -0.198000
     30 C30        -0.2750    0.4710   -4.5810 c3        1 3OR     -0.064000
     31 C31        -0.6060    1.8990   -4.8260 c3        1 3OR     -0.045000
     32 O32         0.4960    2.5520   -5.3090 oh        1 3OR     -0.330000
     33 H5          1.0860   -1.1080   -1.0630 ha        1 3OR      0.182000
     34 H7          3.0160   -2.0830    0.0470 h1        1 3OR      0.131500
     35 H7A         2.9240   -2.5320    1.6110 h1        1 3OR      0.131500
     36 H13        -4.2350   -1.6210    2.9680 ha        1 3OR      0.145000
     37 H17        -5.8500    2.1010    0.5300 ha        1 3OR      0.162000
     38 H22         5.9860    1.6250    0.2730 hc        1 3OR      0.124500
     39 H22A        5.0160    1.9110    1.4530 hc        1 3OR      0.124500
     40 H24         5.4040   -0.4250    2.5470 h1        1 3OR      0.103500
     41 H24A        4.4560    0.8700    2.8200 h1        1 3OR      0.103500
     42 HN2        -3.3920   -1.7970    0.5530 hn        1 3OR      0.266000
     43 H14        -6.5110   -1.0290    3.0880 ha        1 3OR      0.150000
     44 H23         6.1010    0.3870    0.5120 hc        1 3OR      0.100000
     45 H23A        6.2020    1.6230    1.5380 hc        1 3OR      0.100000
     46 HN28       -0.1090   -1.3680   -2.8280 hn        1 3OR      0.218000
     47 H30        -0.1640    0.0100   -5.4450 h1        1 3OR      0.113000
     48 H30A        0.5560    0.4090   -4.0680 h1        1 3OR      0.113000
     49 H31        -1.3450    1.9560   -5.4910 h1        1 3OR      0.101500
     50 H31A       -0.8890    2.3170   -3.9880 h1        1 3OR      0.101500
     51 HO32        0.7220    3.1810   -4.7580 ho        1 3OR      0.212000
@<TRIPOS>BOND
     1    1    2 1   
     2    1   12 1   
     3    2   33 1   
     4    3    4 1   
     5    3   16 1   
     6    4   15 1   
     7    4   34 1   
     8    4   35 1   
     9    5   14 1   
    10    5   36 1   
    11    6   20 1   
    12    6   21 1   
    13    7   22 1   
    14    7   37 1   
    15    8    9 1   
    16    8   24 1   
    17    9   25 1   
    18    9   38 1   
    19    9   39 1   
    20   10   25 1   
    21   10   26 1   
    22   10   40 1   
    23   10   41 1   
    24   11   27 1   
    25   11   28 1   
    26   12   13 1   
    27   12   18 1   
    28   13   14 1   
    29   13   42 1   
    30   14   22 1   
    31   15   26 1   
    32   16   17 1   
    33   18   19 1   
    34   20   43 1   
    35   22   23 1   
    36   25   44 1   
    37   25   45 1   
    38   28   29 1   
    39   28   46 1   
    40   29   30 1   
    41   30   31 1   
    42   30   47 1   
    43   30   48 1   
    44   31   32 1   
    45   31   49 1   
    46   31   50 1   
    47   32   51 1   
@<TRIPOS>SUBSTRUCTURE
     1 3OR         1 TEMP              0 ****  ****    0 ROOT
