@<TRIPOS>MOLECULE
3OR
   52    51     1     0     0
SMALL
bcc


@<TRIPOS>ATOM
      1 C4          0.2390   -0.4040    0.4880 cc        1 3OR     -0.215600
      2 C5          1.5040   -0.3250    1.0750 cc        1 3OR     -0.072000
      3 C6          1.6460   -0.0420    2.4320 cd        1 3OR     -0.114200
      4 C7          2.9890    0.0400    3.1000 c3        1 3OR      0.151000
      5 C13        -2.4360    1.9490   -0.0430 ca        1 3OR     -0.154000
      6 C15        -4.6290    2.9390   -0.3140 ca        1 3OR      0.027900
      7 C17        -5.2230    1.7450    0.0840 ca        1 3OR     -0.099000
      8 C20         4.3810   -2.6780   -0.2330 c1        1 3OR      0.572600
      9 C22         5.6140   -2.9010    0.1690 ce        1 3OR     -0.324100
     10 C24         5.8620   -1.0200    1.7920 c2        1 3OR      0.011100
     11 C26         0.1460   -0.6990   -0.9620 c2        1 3OR      0.528100
     12 C1         -0.9460   -0.2330    1.2390 cc        1 3OR      0.279900
     13 N2         -2.2080   -0.4280    0.6070 nu        1 3OR     -0.296200
     14 C3         -3.0030    0.7260    0.3600 ca        1 3OR     -0.061200
     15 N8          4.1440    0.4450    2.3050 n7        1 3OR     -0.538700
     16 C9          0.4850    0.1350    3.2160 cd        1 3OR      0.192500
     17 F10         0.5800    0.3970    4.5340 f         1 3OR     -0.113500
     18 C11        -0.8060    0.0280    2.6270 cc        1 3OR      0.021900
     19 F12        -1.8980    0.1630    3.4090 f         1 3OR     -0.118500
     20 C14        -3.2390    3.0360   -0.3720 ca        1 3OR     -0.096000
     21 C18        -4.4250    0.6400    0.4250 ca        1 3OR      0.096900
     22 F19        -5.0200   -0.5130    0.8180 f         1 3OR     -0.126900
     23 C23         6.3170   -2.1040    1.1390 ce        1 3OR     -0.139000
     24 O25         4.5610   -0.5680    1.5010 os        1 3OR     -0.214400
     25 O27        -0.3940    0.3070   -1.6750 os        1 3OR     -0.322900
     26 N28         0.5810   -1.8360   -1.4840 nv        1 3OR     -0.753600
     27 O29        -1.0200    2.0780   -4.3660 o         1 3OR     -0.447100
     28 C30        -1.4920    1.4720   -3.4130 c         1 3OR      0.557900
     29 C31        -0.8840    0.1140   -3.0320 c3        1 3OR      0.200900
     30 O32         0.2280   -0.2690   -3.7630 oh        1 3OR     -0.608800
     31 H5          2.4040   -0.5050    0.4570 ha        1 3OR      0.179000
     32 H7          2.9340    0.8020    3.9360 h1        1 3OR      0.106700
     33 H7A         3.2050   -0.9660    3.5660 h1        1 3OR      0.106700
     34 H13        -1.3390    2.0520   -0.0920 ha        1 3OR      0.145000
     35 H17        -6.3200    1.6410    0.1490 ha        1 3OR      0.180000
     36 H22         2.6000   -0.1890    5.9210 ha        1 3OR      0.002250
     37 H22A        2.2950    0.0850    6.4600 ha        1 3OR      0.002250
     38 H24         7.3490   -2.4380    1.3500 ha        1 3OR      0.166000
     39 H24A        6.4400   -0.4470    2.5310 h4        1 3OR      0.179000
     40 HN2        -2.7400   -1.1280    1.1070 hn        1 3OR      0.269700
     41 H14        -2.7590    3.9840   -0.6690 ha        1 3OR      0.161000
     42 H23         6.1540   -3.7620   -0.2660 ha        1 3OR      0.198000
     43 H23A        3.8780    1.2040    1.6790 hn        1 3OR      0.372800
     44 HN28        1.0440   -2.5110   -0.8990 hn        1 3OR      0.501800
     45 H30         1.8840   -1.8790   -4.2610 ha        1 3OR      0.002250
     46 H30A        1.3540   -2.1760   -4.5610 ha        1 3OR      0.002250
     47 H31        -2.3370    1.8060   -2.7800 h4        1 3OR      0.072200
     48 H31A       -1.6380   -0.7220   -3.0530 h2        1 3OR      0.126700
     49 HO32        0.6210    0.5020   -4.2090 ho        1 3OR      0.471000
     50 I16        -5.7780    4.5260   -0.7940 i         1 3OR     -0.081900
     51 H282        0.5790   -2.0060   -2.4770 hn        1 3OR      0.501800
     52 O21         3.2600   -2.4940   -0.6140 o         1 3OR     -0.491500
@<TRIPOS>BOND
     1    1    2 1   
     2    1   11 2   
     3    1   12 1   
     4    2    3 2   
     5    2   31 1   
     6    3    4 1   
     7    3   16 1   
     8    4   15 1   
     9    4   32 1   
    10    4   33 1   
    11    5   14 ar  
    12    5   20 ar  
    13    5   34 1   
    14    6    7 ar  
    15    6   20 ar  
    16    6   50 1   
    17    7   21 ar  
    18    7   35 1   
    19    8    9 2   
    20    8   52 2   
    21    9   23 1   
    22    9   42 1   
    23   10   23 2   
    24   10   24 1   
    25   10   39 1   
    26   11   25 1   
    27   11   26 1   
    28   12   13 2   
    29   12   18 1   
    30   13   14 1   
    31   13   40 1   
    32   14   21 ar  
    33   15   24 1   
    34   15   43 1   
    35   16   17 1   
    36   16   18 2   
    37   18   19 1   
    38   20   41 1   
    39   21   22 1   
    40   23   38 1   
    41   25   29 1   
    42   26   44 1   
    43   26   51 1   
    44   27   28 2   
    45   28   29 1   
    46   28   47 1   
    47   29   30 1   
    48   29   48 1   
    49   30   49 1   
    50   36   37 1   
    51   45   46 1   
@<TRIPOS>SUBSTRUCTURE
     1 3OR         1 TEMP              0 ****  ****    0 ROOT
