@<TRIPOS>MOLECULE
3OS
   49    50     1     0     0
SMALL
bcc


@<TRIPOS>ATOM
      1 C4         -0.0300    0.9300    0.2640 ca        1 3OS     -0.210600
      2 C5         -1.3870    1.0420    0.5580 ca        1 3OS     -0.046000
      3 C6         -2.2400   -0.0630    0.5270 ca        1 3OS     -0.173900
      4 C7         -1.7090   -1.3180    0.1710 ca        1 3OS      0.174900
      5 C13         4.5870   -3.3840    1.0170 ca        1 3OS      0.027000
      6 C15         6.2430   -5.2080    1.8620 c1        1 3OS     -0.125500
      7 C17         4.0710   -1.5350   -0.4760 ca        1 3OS      0.093900
      8 C22        -6.8940   -0.7720   -0.1100 c3        1 3OS      0.142400
      9 C1          0.5500   -0.3280   -0.0610 ca        1 3OS      0.202600
     10 N2          1.8970   -0.4280   -0.4150 nh        1 3OS     -0.609000
     11 C3          2.7660   -1.4120    0.0960 ca        1 3OS      0.122600
     12 F8         -2.4790   -2.4240    0.1160 f         1 3OS     -0.101900
     13 C9         -0.3280   -1.4500   -0.1380 ca        1 3OS      0.035900
     14 F10         0.1200   -2.6710   -0.5120 f         1 3OS     -0.111900
     15 C11         2.4250   -2.2890    1.1430 ca        1 3OS     -0.144000
     16 C12         3.3120   -3.2590    1.5900 ca        1 3OS     -0.091000
     17 C14         5.4820   -4.3690    1.4730 cg        1 3OS     -0.128000
     18 C16         4.9630   -2.5140   -0.0140 ca        1 3OS     -0.119000
     19 C19        -3.6480    0.1400    0.8820 ce        1 3OS      0.384800
     20 N20        -4.6160   -0.4360    0.2220 n2        1 3OS     -0.397200
     21 O21        -5.8260   -0.1500    0.6660 os        1 3OS     -0.196300
     22 C23        -8.1780   -0.1940    0.4740 c3        1 3OS      0.121400
     23 O24        -8.5800    0.8690   -0.3740 oh        1 3OS     -0.599800
     24 C25         0.8220    2.1520    0.3140 c         1 3OS      0.619700
     25 O26         1.9370    2.1720    0.8610 o         1 3OS     -0.554100
     26 N27         0.2340    3.3460   -0.2080 n         1 3OS     -0.350400
     27 O28         1.1060    4.3090   -0.5310 os        1 3OS     -0.279900
     28 C29         1.4340    5.2200    0.5580 c3        1 3OS      0.084400
     29 C30         2.3320    6.2680   -0.0860 c3        1 3OS      0.125400
     30 O31         1.6010    7.1430   -0.9200 oh        1 3OS     -0.596800
     31 H5         -1.8100    2.0220    0.8390 ha        1 3OS      0.160000
     32 H15         6.9170   -5.9520    2.2050 ha        1 3OS      0.169500
     33 H22        -6.7890   -0.5100   -1.1940 h1        1 3OS      0.067700
     34 H22A       -6.8510   -1.8800    0.0380 h1        1 3OS      0.067700
     35 HN2         2.3600    0.4480   -0.5800 hn        1 3OS      0.448800
     36 H11         1.4320   -2.2150    1.6150 ha        1 3OS      0.147000
     37 H12         3.0120   -3.9350    2.4060 ha        1 3OS      0.148000
     38 H16         5.9600   -2.5890   -0.4740 ha        1 3OS      0.159000
     39 H19        -3.8190    0.8290    1.7360 h4        1 3OS      0.012800
     40 H23        -8.9740   -0.9860    0.4810 h1        1 3OS      0.042200
     41 H23A       -8.0050    0.1730    1.5210 h1        1 3OS      0.042200
     42 HO24       -9.2450    1.3740    0.1080 ho        1 3OS      0.405000
     43 HN27       -0.3490    3.1750   -1.0200 hn        1 3OS      0.305500
     44 H29         0.4990    5.6810    0.9650 h1        1 3OS      0.066200
     45 H29A        1.9800    4.6550    1.3560 h1        1 3OS      0.066200
     46 H30         2.7680    6.9250    0.7140 h1        1 3OS      0.061700
     47 H30A        3.1550    5.7710   -0.6650 h1        1 3OS      0.061700
     48 HO31        1.2100    6.6050   -1.6190 ho        1 3OS      0.408000
     49 F18         4.4720   -0.6970   -1.4640 f         1 3OS     -0.136900
@<TRIPOS>BOND
     1    1    2 ar  
     2    1    9 ar  
     3    1   24 1   
     4    2    3 ar  
     5    2   31 1   
     6    3    4 ar  
     7    3   19 1   
     8    4   12 1   
     9    4   13 ar  
    10    5   16 ar  
    11    5   17 1   
    12    5   18 ar  
    13    6   17 3   
    14    6   32 1   
    15    7   11 ar  
    16    7   18 ar  
    17    7   49 1   
    18    8   21 1   
    19    8   22 1   
    20    8   33 1   
    21    8   34 1   
    22    9   10 1   
    23    9   13 ar  
    24   10   11 1   
    25   10   35 1   
    26   11   15 ar  
    27   13   14 1   
    28   15   16 ar  
    29   15   36 1   
    30   16   37 1   
    31   18   38 1   
    32   19   20 2   
    33   19   39 1   
    34   20   21 1   
    35   22   23 1   
    36   22   40 1   
    37   22   41 1   
    38   23   42 1   
    39   24   25 2   
    40   24   26 1   
    41   26   27 1   
    42   26   43 1   
    43   27   28 1   
    44   28   29 1   
    45   28   44 1   
    46   28   45 1   
    47   29   30 1   
    48   29   46 1   
    49   29   47 1   
    50   30   48 1   
@<TRIPOS>SUBSTRUCTURE
     1 3OS         1 TEMP              0 ****  ****    0 ROOT
