@<TRIPOS>MOLECULE
3OS
   49    43     1     0     0
SMALL
bcc


@<TRIPOS>ATOM
      1 C4          0.1220    1.1560   -0.4490 c1        1 3OS     -0.198000
      2 C5          1.5230    1.1260   -0.4150 c1        1 3OS     -0.037000
      3 C6          2.1820    1.1060    0.7940 c1        1 3OS     -0.130000
      4 C7          1.4550    1.1160    1.9860 c2        1 3OS      0.147000
      5 C13        -5.3020   -0.4000    2.5970 c1        1 3OS      0.036000
      6 C15        -7.6280   -1.1910    3.8090 c1        1 3OS     -0.180000
      7 C17        -3.6880    1.2980    2.1120 c1        1 3OS      0.063000
      8 C22         4.6410   -1.9020    2.4070 c3        1 3OS     -0.043000
      9 C1         -0.5990    1.1660    0.7330 c1        1 3OS      0.133000
     10 N2         -2.0420    1.2710    0.6990 n3        1 3OS     -0.243000
     11 C3         -2.8630    0.3640    1.5380 c2        1 3OS      0.037000
     12 F8          2.0320    1.5470    3.1270 f         1 3OS     -0.065000
     13 C9          0.0680    1.1460    1.9550 c1        1 3OS     -0.006000
     14 F10        -0.6190    1.3050    3.0900 f         1 3OS     -0.077000
     15 C11        -3.2500   -0.9580    1.4870 c2        1 3OS     -0.140000
     16 C12        -4.4690   -1.3430    2.0170 c1        1 3OS     -0.093000
     17 C14        -6.6260   -0.8510    3.2870 c1        1 3OS     -0.134000
     18 C16        -4.9200    0.9080    2.6460 c1        1 3OS     -0.121000
     19 F18        -3.5300    2.6280    2.1420 f         1 3OS     -0.101000
     20 C19         3.6840    1.1730    0.8300 c1        1 3OS     -0.098000
     21 N20         4.4000    0.1000    1.2460 n1        1 3OS     -0.033000
     22 O21         3.7450   -1.0530    1.6350 o         1 3OS     -0.202000
     23 C23         5.5980   -2.5630    1.4980 c3        1 3OS     -0.051000
     24 O24         5.8580   -3.8100    1.9490 oh        1 3OS     -0.317000
     25 C25        -0.6290    1.1980   -1.8220 c2        1 3OS      0.307000
     26 O26        -1.8730    1.2700   -1.8480 o         1 3OS     -0.325000
     27 N27         0.1180    1.2040   -3.0580 n         1 3OS     -0.205000
     28 O28        -0.5360    1.0080   -4.2590 os        1 3OS     -0.198000
     29 C29         0.3810    0.9000   -5.2770 c3        1 3OS     -0.063000
     30 C30         0.0130   -0.2280   -6.1540 c3        1 3OS     -0.039000
     31 O31         0.8800   -0.2660   -7.2510 oh        1 3OS     -0.328000
     32 H5          2.0430    1.1190   -1.2680 ha        1 3OS      0.157000
     33 H15        -8.4290   -1.4620    4.2250 DU        1 3OS      0.227000
     34 H22         4.0990   -2.6070    2.8960 h1        1 3OS      0.107500
     35 H22A        5.1250   -1.3630    3.0490 h1        1 3OS      0.107500
     36 HN2        -2.4240    1.9670    0.2990 hn        1 3OS      0.246000
     37 H11        -2.6660   -1.6200    1.0810 ha        1 3OS      0.148000
     38 H12        -4.7440   -2.2820    1.9810 ha        1 3OS      0.149000
     39 H16        -5.5100    1.5750    3.0570 ha        1 3OS      0.159000
     40 H19         4.1250    1.9570    0.5640 ha        1 3OS      0.165000
     41 H23         6.4320   -2.0450    1.4670 h1        1 3OS      0.099500
     42 H23A        5.2210   -2.6130    0.6220 h1        1 3OS      0.099500
     43 HO24        6.1800   -3.7630    2.7870 ho        1 3OS      0.197000
     44 HN27        1.0710    1.3050   -3.0420 hn        1 3OS      0.214000
     45 H29         0.3870    1.7360   -5.8020 h1        1 3OS      0.109500
     46 H29A        1.3030    0.7380   -4.8870 h1        1 3OS      0.109500
     47 H30         0.0810   -1.0560   -5.6590 h1        1 3OS      0.092000
     48 H30A       -0.9030   -0.1110   -6.4670 h1        1 3OS      0.092000
     49 HO31        0.4830    0.1000   -7.9520 ho        1 3OS      0.224000
@<TRIPOS>BOND
     1    1    9 1   
     2    1   25 1   
     3    2    3 1   
     4    2   32 1   
     5    3    4 1   
     6    4   12 1   
     7    4   13 1   
     8    5   17 1   
     9    5   18 1   
    10    6   17 1   
    11    7   11 1   
    12    7   19 1   
    13    8   22 1   
    14    8   23 1   
    15    8   34 1   
    16    8   35 1   
    17    9   10 1   
    18   10   11 1   
    19   10   36 1   
    20   11   15 1   
    21   13   14 1   
    22   15   16 1   
    23   15   37 1   
    24   16   38 1   
    25   18   39 1   
    26   20   21 1   
    27   20   40 1   
    28   23   24 1   
    29   23   41 1   
    30   23   42 1   
    31   24   43 1   
    32   25   26 1   
    33   25   27 1   
    34   27   28 1   
    35   27   44 1   
    36   28   29 1   
    37   29   30 1   
    38   29   45 1   
    39   29   46 1   
    40   30   31 1   
    41   30   47 1   
    42   30   48 1   
    43   31   49 1   
@<TRIPOS>SUBSTRUCTURE
     1 3OS         1 TEMP              0 ****  ****    0 ROOT
