@<TRIPOS>MOLECULE
3OS
   51    52     1     0     0
SMALL
bcc


@<TRIPOS>ATOM
      1 C4         -0.7620    0.4170    0.0060 ca        1 3OS     -0.166600
      2 C5          0.5960    0.7280    0.0280 ca        1 3OS     -0.059000
      3 C6          1.3100    0.8630    1.2310 ca        1 3OS     -0.050900
      4 C7          0.6270    0.6990    2.4540 ca        1 3OS      0.203900
      5 C13        -3.9470   -4.1600    1.8970 ca        1 3OS      0.170000
      6 C15        -4.6580   -6.6310    2.2950 c1        1 3OS      0.042500
      7 C17        -3.2130   -2.3930    0.3980 ca        1 3OS      0.149900
      8 C1         -1.4710    0.2490    1.2260 ca        1 3OS     -0.019400
      9 N2         -2.9090   -0.0520    1.2640 n4        1 3OS     -0.492800
     10 C3         -3.2170   -1.4710    1.4790 ca        1 3OS     -0.124400
     11 F8          1.2300    0.8340    3.6420 f         1 3OS     -0.041900
     12 C9         -0.7740    0.3950    2.4450 ca        1 3OS      0.134900
     13 F10        -1.4170    0.2700    3.6240 f         1 3OS     -0.083900
     14 C11        -3.5650   -1.9210    2.7670 ca        1 3OS     -0.063000
     15 C12        -3.9260   -3.2460    2.9680 ca        1 3OS     -0.100000
     16 C14        -4.3260   -5.4930    2.1070 cg        1 3OS     -0.236000
     17 C16        -3.5840   -3.7260    0.6090 ca        1 3OS     -0.128000
     18 C19         2.7320    1.1880    1.1470 ce        1 3OS      0.294800
     19 N20         3.5950    0.6610    1.9830 n2        1 3OS     -0.316200
     20 O21         4.8280    1.0360    1.8220 os        1 3OS     -0.153300
     21 C23         6.1520   -1.0200    1.8840 c3        1 3OS      0.097400
     22 O24         5.0800   -1.9380    1.9320 oh        1 3OS     -0.600800
     23 C25        -1.4800    0.3480   -1.2780 c         1 3OS      0.582700
     24 O26        -2.5870    0.7960   -1.5330 o         1 3OS     -0.392100
     25 N27        -0.7720   -0.4070   -2.4000 n4        1 3OS     -0.453300
     26 O28        -0.8910    0.3410   -3.5410 os        1 3OS     -0.195100
     27 C29         0.1750    0.2390   -4.5220 c3        1 3OS      0.071400
     28 C30         1.4470    0.9170   -4.0380 c3        1 3OS      0.087400
     29 O31         1.9480    0.1890   -2.9270 oh        1 3OS     -0.676800
     30 H5          1.1570    0.9010   -0.9140 ha        1 3OS      0.194000
     31 H15        -4.9540   -7.6420    2.4630 ha        1 3OS      0.201500
     32 H22         5.4490    0.1050    3.6420 h1        1 3OS      0.092200
     33 H22A        6.6830    0.9900    2.5910 h1        1 3OS      0.092200
     34 HN2        -3.3230    0.4870    2.0460 hn        1 3OS      0.484300
     35 H11        -3.5540   -1.2290    3.6290 ha        1 3OS      0.174000
     36 H12        -4.2050   -3.5880    3.9820 ha        1 3OS      0.195000
     37 H16        -3.5970   -4.4300   -0.2410 ha        1 3OS      0.194000
     38 H19         3.0140    1.8900    0.3350 h4        1 3OS      0.038800
     39 H23         7.0830   -1.4540    2.3360 h1        1 3OS      0.074200
     40 H23A        6.3190   -0.8330    0.7880 h1        1 3OS      0.074200
     41 HO24        5.0500   -2.3030    2.8250 ho        1 3OS      0.410000
     42 HN27       -1.2700   -1.3070   -2.5490 hn        1 3OS      0.486800
     43 H29         0.3390   -0.8310   -4.8110 h1        1 3OS      0.125700
     44 H29A       -0.2960    0.8140   -5.3750 h1        1 3OS      0.125700
     45 H30         1.2280    1.9580   -3.6720 h1        1 3OS      0.096700
     46 H30A        2.1840    0.9670   -4.8830 h1        1 3OS      0.096700
     47 HO31        2.8410   -0.1190   -3.1300 ho        1 3OS      0.461000
     48 H221       -3.3610    0.2570    0.3880 hn        1 3OS      0.484300
     49 H272        0.2230   -0.5890   -2.1590 hn        1 3OS      0.486800
     50 F18        -2.8570   -1.9790   -0.8460 f         1 3OS     -0.170900
     51 C22         5.8140    0.2790    2.5990 c3        1 3OS      0.103400
@<TRIPOS>BOND
     1    1    2 ar  
     2    1    8 ar  
     3    1   23 1   
     4    2    3 ar  
     5    2   30 1   
     6    3    4 ar  
     7    3   18 1   
     8    4   11 1   
     9    4   12 ar  
    10    5   15 ar  
    11    5   16 1   
    12    5   17 ar  
    13    6   16 3   
    14    6   31 1   
    15    7   10 ar  
    16    7   17 ar  
    17    7   50 1   
    18    8    9 1   
    19    8   12 ar  
    20    9   10 1   
    21    9   34 1   
    22    9   48 1   
    23   10   14 ar  
    24   12   13 1   
    25   14   15 ar  
    26   14   35 1   
    27   15   36 1   
    28   17   37 1   
    29   18   19 2   
    30   18   38 1   
    31   19   20 1   
    32   20   51 1   
    33   21   22 1   
    34   21   39 1   
    35   21   40 1   
    36   21   51 1   
    37   22   41 1   
    38   23   24 2   
    39   23   25 1   
    40   25   26 1   
    41   25   42 1   
    42   25   49 1   
    43   26   27 1   
    44   27   28 1   
    45   27   43 1   
    46   27   44 1   
    47   28   29 1   
    48   28   45 1   
    49   28   46 1   
    50   29   47 1   
    51   32   51 1   
    52   33   51 1   
@<TRIPOS>SUBSTRUCTURE
     1 3OS         1 TEMP              0 ****  ****    0 ROOT
