@<TRIPOS>MOLECULE
3OT
   66    70     1     0     0
SMALL
bcc


@<TRIPOS>ATOM
      1 N3          0.0400    0.0650   -0.0420 n3        1 3OT     -0.729600
      2 C4         -4.7190   -3.2480   -6.4530 cc        1 3OT      0.037800
      3 N2         -2.6800    0.3410   -2.6250 na        1 3OT     -0.168300
      4 C7         -6.1660   -4.5300   -8.9010 cc        1 3OT     -0.240200
      5 C6         -6.6510   -3.6750   -7.9850 cd        1 3OT     -0.061000
      6 C9         -4.1700   -2.3590   -5.4130 ca        1 3OT     -0.089800
      7 C13        -3.5040   -0.1690   -4.6890 ca        1 3OT      0.066400
      8 C20         2.1070    0.3770    1.3060 c3        1 3OT      0.125900
      9 C21         1.4630    0.3850   -0.0850 c3        1 3OT      0.131800
     10 C8         -4.7630   -4.8830   -9.1130 c         1 3OT      0.580500
     11 C18        -0.2250   -1.1360    0.7410 c3        1 3OT      0.131800
     12 C16        -2.0770    0.2510   -1.3310 c3        1 3OT      0.042300
     13 C19         0.4600   -1.1080    2.1120 c3        1 3OT      0.125900
     14 C26        -2.6950    7.2310   -2.3870 ca        1 3OT     -0.127500
     15 C1         -2.3100   -6.6700   -7.0490 c3        1 3OT      0.106700
     16 C2         -3.9550   -5.1480   -7.8890 cd        1 3OT      0.048900
     17 C3         -3.9250   -4.4090   -6.7560 cc        1 3OT     -0.207000
     18 C5         -5.9230   -2.9370   -6.9970 cd        1 3OT     -0.157000
     19 O2         -4.2760   -5.0130  -10.2410 o         1 3OT     -0.503100
     20 C10        -3.8070   -2.8930   -4.1570 ca        1 3OT     -0.104000
     21 C11        -3.2920   -2.1000   -3.1430 ca        1 3OT     -0.134000
     22 C12        -3.1330   -0.7340   -3.4030 ca        1 3OT     -0.068200
     23 C14        -4.0280   -0.9990   -5.6860 ca        1 3OT     -0.052000
     24 N1         -3.2510    1.2170   -4.6810 nc        1 3OT     -0.563100
     25 C15        -2.7480    1.4920   -3.4610 cd        1 3OT      0.423800
     26 C17        -0.5450    0.0110   -1.3730 c3        1 3OT      0.144800
     27 O3          1.8520   -0.8400    1.9970 os        1 3OT     -0.412600
     28 C22        -2.3350    2.8500   -2.9890 c3        1 3OT     -0.094700
     29 C23        -3.4720    3.5300   -2.2430 c3        1 3OT     -0.036100
     30 C24        -3.0910    4.9070   -1.8270 ca        1 3OT     -0.087300
     31 C25        -3.0410    5.9380   -2.7730 ca        1 3OT     -0.125500
     32 C27        -2.3960    7.5060   -1.0520 ca        1 3OT     -0.129000
     33 C28        -2.4450    6.4840   -0.1050 ca        1 3OT     -0.127500
     34 C29        -2.7910    5.1890   -0.4890 ca        1 3OT     -0.125500
     35 H7         -6.8510   -5.0080   -9.6250 ha        1 3OT      0.153000
     36 H6         -7.7400   -3.4720   -7.9910 ha        1 3OT      0.132000
     37 H19         3.2240    0.4180    1.2130 h1        1 3OT      0.055950
     38 H20         1.7380    1.2420    1.9190 h1        1 3OT      0.055950
     39 H21         2.0290   -0.3350   -0.7440 h1        1 3OT      0.041950
     40 H22         1.5720    1.4170   -0.5210 h1        1 3OT      0.041950
     41 H16         0.1060   -2.0680    0.1960 h1        1 3OT      0.041950
     42 H15        -1.3370   -1.2040    0.9010 h1        1 3OT      0.041950
     43 H12        -2.2890    1.2100   -0.7770 h1        1 3OT      0.069200
     44 H11        -2.5720   -0.5980   -0.7780 h1        1 3OT      0.069200
     45 H17         0.4080   -2.1210    2.5900 h1        1 3OT      0.055950
     46 H18        -0.0170   -0.3410    2.7780 h1        1 3OT      0.055950
     47 H28        -2.6590    8.0350   -3.1360 ha        1 3OT      0.132500
     48 H2         -1.5460   -5.8800   -6.8530 h1        1 3OT      0.047700
     49 H1         -1.8260   -7.5950   -7.4550 h1        1 3OT      0.047700
     50 H3         -2.8850   -6.9020   -6.1200 h1        1 3OT      0.047700
     51 H4         -3.1970   -4.6760   -5.9660 ha        1 3OT      0.141000
     52 H5         -6.4420   -2.0320   -6.6250 ha        1 3OT      0.139000
     53 H8         -3.9500   -3.9690   -3.9740 ha        1 3OT      0.135000
     54 H9         -3.0210   -2.5290   -2.1700 ha        1 3OT      0.135000
     55 H10        -4.3160   -0.5850   -6.6630 ha        1 3OT      0.156000
     56 H13        -0.0740    0.8200   -2.0010 h1        1 3OT      0.046700
     57 H14        -0.3460   -0.9760   -1.8840 h1        1 3OT      0.046700
     58 H23        -2.0440    3.4740   -3.8770 hc        1 3OT      0.072700
     59 H24        -1.4340    2.7640   -2.3240 hc        1 3OT      0.072700
     60 H25        -3.7520    2.9170   -1.3440 hc        1 3OT      0.058700
     61 H26        -4.3760    3.5760   -2.9090 hc        1 3OT      0.058700
     62 H27        -3.2800    5.7210   -3.8260 ha        1 3OT      0.133000
     63 H29        -2.1240    8.5270   -0.7480 ha        1 3OT      0.132000
     64 H30        -2.2120    6.6990    0.9480 ha        1 3OT      0.132500
     65 H31        -2.8300    4.3870    0.2630 ha        1 3OT      0.133000
     66 O1         -3.1860   -6.2740   -8.0980 os        1 3OT     -0.306900
@<TRIPOS>BOND
     1    1    9 1   
     2    1   11 1   
     3    1   26 1   
     4    2    6 1   
     5    2   17 1   
     6    2   18 2   
     7    3   12 1   
     8    3   22 1   
     9    3   25 1   
    10    4    5 2   
    11    4   10 1   
    12    4   35 1   
    13    5   18 1   
    14    5   36 1   
    15    6   20 ar  
    16    6   23 ar  
    17    7   22 ar  
    18    7   23 ar  
    19    7   24 1   
    20    8    9 1   
    21    8   27 1   
    22    8   37 1   
    23    8   38 1   
    24    9   39 1   
    25    9   40 1   
    26   10   16 1   
    27   10   19 2   
    28   11   13 1   
    29   11   41 1   
    30   11   42 1   
    31   12   26 1   
    32   12   43 1   
    33   12   44 1   
    34   13   27 1   
    35   13   45 1   
    36   13   46 1   
    37   14   31 ar  
    38   14   32 ar  
    39   14   47 1   
    40   15   48 1   
    41   15   49 1   
    42   15   50 1   
    43   15   66 1   
    44   16   17 2   
    45   16   66 1   
    46   17   51 1   
    47   18   52 1   
    48   20   21 ar  
    49   20   53 1   
    50   21   22 ar  
    51   21   54 1   
    52   23   55 1   
    53   24   25 2   
    54   25   28 1   
    55   26   56 1   
    56   26   57 1   
    57   28   29 1   
    58   28   58 1   
    59   28   59 1   
    60   29   30 1   
    61   29   60 1   
    62   29   61 1   
    63   30   31 ar  
    64   30   34 ar  
    65   31   62 1   
    66   32   33 ar  
    67   32   63 1   
    68   33   34 ar  
    69   33   64 1   
    70   34   65 1   
@<TRIPOS>SUBSTRUCTURE
     1 3OT         1 TEMP              0 ****  ****    0 ROOT
