@<TRIPOS>MOLECULE
3OT
   66    89     1     0     0
SMALL
bcc


@<TRIPOS>ATOM
      1 N3          0.0000    0.0000    0.0000 nx        1 3OT      0.174000
      2 C4         -4.6480   -3.2760   -6.4070 c2        1 3OT      0.376000
      3 N2         -2.5610    0.3630   -2.6920 n3        1 3OT      0.331000
      4 C7         -6.4680   -4.7800   -8.4770 c3        1 3OT     -0.278000
      5 C6         -6.7820   -3.7160   -7.6580 c2        1 3OT     -0.222000
      6 C9         -4.0880   -2.3710   -5.3780 DU        1 3OT      0.023000
      7 C13        -3.4290   -0.1680   -4.6710 c3        1 3OT     -0.100000
      8 C20         1.9760    0.0000    1.4450 DU        1 3OT      0.219000
      9 C21         1.4710    0.0000    0.0000 DU        1 3OT     -0.311000
     10 C8         -5.2460   -5.4640   -8.5900 c2        1 3OT      0.537000
     11 C18        -0.5210   -1.1730    0.7170 DU        1 3OT     -0.455000
     12 C16        -2.0350    0.3070   -1.3260 DU        1 3OT     -0.393000
     13 C19         0.0040   -1.1600    2.1550 c3        1 3OT     -0.235000
     14 C26        -2.8690    7.2850   -2.4300 c2        1 3OT      0.427000
     15 C1         -1.7390   -5.7980   -7.4530 c3        1 3OT     -0.025000
     16 C2         -4.0040   -5.2130   -7.8590 c2        1 3OT     -0.075000
     17 C3         -3.7640   -4.2460   -6.9050 c2        1 3OT     -0.394000
     18 C5         -5.9790   -3.0500   -6.7430 c2        1 3OT     -0.088000
     19 O2         -5.2180   -6.3840   -9.3970 o         1 3OT     -0.278000
     20 C10        -3.6910   -2.8850   -4.1400 c3        1 3OT     -0.269000
     21 C11        -3.1720   -2.0620   -3.1810 c2        1 3OT     -0.365000
     22 C12        -3.0350   -0.7010   -3.4310 c2        1 3OT     -0.183000
     23 C14        -3.9580   -1.0130   -5.6460 c2        1 3OT     -0.074000
     24 N1         -3.1880    1.1680   -4.6220 n2        1 3OT      0.087000
     25 C15        -2.6770    1.4770   -3.4670 c3        1 3OT     -0.203000
     26 C17        -0.5260    0.0570   -1.3700 DU        1 3OT     -0.309000
     27 O3          1.4340   -1.1300    2.1340 os        1 3OT     -0.246000
     28 C22        -2.2770    2.8670   -3.0420 DU        1 3OT     -0.273000
     29 C23        -3.4680    3.5580   -2.3740 c3        1 3OT     -0.484000
     30 C24        -3.0680    4.9480   -1.9510 c3        1 3OT     -0.089000
     31 C25        -3.2360    6.0100   -2.8190 c3        1 3OT     -0.305000
     32 C27        -2.3310    7.4970   -1.1760 DU        1 3OT      0.049000
     33 C28        -2.1620    6.4350   -0.3070 c3        1 3OT     -0.293000
     34 C29        -2.5340    5.1610   -0.6930 c2        1 3OT     -0.475000
     35 H7         -5.4800   -5.1950   -8.3180 hc        1 3OT      0.041000
     36 H6         -7.0350   -4.4510   -8.4130 DU        1 3OT      0.247000
     37 H19         1.2100   -0.2620    0.7250 DU        1 3OT      0.038000
     38 H20         1.6580    0.9100    1.9380 ha        1 3OT      0.111000
     39 H21         2.2720   -0.0310    0.7290 DU        1 3OT      0.038000
     40 H22         1.8310   -0.8860   -0.5080 hx        1 3OT      0.115000
     41 H16         0.2380   -0.5080    0.3220 DU        1 3OT      0.162000
     42 H15        -1.6040   -1.1370    0.7280 hx        1 3OT      0.174000
     43 H12        -1.4440   -0.4560   -0.8330 DU        1 3OT      0.237000
     44 H11        -2.2310    1.2470   -0.8240 ha        1 3OT      0.120000
     45 H17        -0.6920   -0.9780    1.3450 DU        1 3OT      0.163000
     46 H18        -0.3300   -2.0530    2.6690 h1        1 3OT      0.114000
     47 H28        -2.5830    6.4190   -1.8460 DU        1 3OT      0.436000
     48 H2         -1.8330   -4.7680   -7.1320 h1        1 3OT      0.075667
     49 H1         -1.7910   -5.8600   -6.3730 h1        1 3OT      0.075667
     50 H3         -0.9710   -6.4690   -7.8170 h1        1 3OT      0.075667
     51 H4         -2.7790   -4.4810   -7.2890 ha        1 3OT      0.220000
     52 H5         -4.9650   -3.4230   -6.6620 ha        1 3OT     -0.119000
     53 H8         -4.5430   -2.6850   -4.7780 DU        1 3OT      0.248000
     54 H9         -3.4900   -3.0230   -3.5670 DU        1 3OT      0.242000
     55 H10        -3.6530   -1.4200   -4.6890 DU        1 3OT      0.200000
     56 H13        -1.1690   -0.0520   -2.2350 DU        1 3OT      0.237000
     57 H14        -0.0430    0.8620   -1.9090 hx        1 3OT      0.064000
     58 H23        -1.7960    1.9400   -2.7540 DU        1 3OT      0.294000
     59 H24        -1.4530    2.8080   -2.3410 ha        1 3OT      0.206000
     60 H25        -2.7140    3.4980   -3.1500 DU        1 3OT      0.304000
     61 H26        -3.7730    2.9890   -1.5040 hc        1 3OT      0.111000
     62 H27        -3.6720    5.0240   -2.9250 DU        1 3OT      0.371000
     63 H29        -2.7570    6.9670   -2.0190 DU        1 3OT     -0.664000
     64 H30        -2.1010    7.4790   -0.5930 DU        1 3OT      0.142000
     65 H31        -2.1330    5.8900    0.0010 DU        1 3OT      0.248000
     66 O1         -2.9620   -6.0270   -8.1560 os        1 3OT     -0.130000
@<TRIPOS>BOND
     1    1    9 1   
     2    1   11 1   
     3    1   26 1   
     4    1   41 1   
     5    2    6 1   
     6    2   17 1   
     7    2   18 1   
     8    3   12 1   
     9    3   22 1   
    10    3   25 1   
    11    4    5 1   
    12    4   10 1   
    13    4   35 1   
    14    4   36 1   
    15    5   18 1   
    16    5   36 1   
    17    6   20 1   
    18    6   23 1   
    19    6   53 1   
    20    6   55 1   
    21    7   22 1   
    22    7   23 1   
    23    7   24 1   
    24    7   55 1   
    25    8    9 1   
    26    8   27 1   
    27    8   37 1   
    28    8   38 1   
    29    8   39 1   
    30    9   37 1   
    31    9   39 1   
    32    9   40 1   
    33   10   16 1   
    34   10   19 1   
    35   11   13 1   
    36   11   41 1   
    37   11   42 1   
    38   11   45 1   
    39   12   26 1   
    40   12   43 1   
    41   12   44 1   
    42   12   56 1   
    43   13   27 1   
    44   13   45 1   
    45   13   46 1   
    46   14   31 1   
    47   14   32 1   
    48   14   47 1   
    49   15   48 1   
    50   15   49 1   
    51   15   50 1   
    52   15   66 1   
    53   16   17 1   
    54   16   66 1   
    55   17   51 1   
    56   18   52 1   
    57   20   21 1   
    58   20   53 1   
    59   20   54 1   
    60   21   22 1   
    61   21   54 1   
    62   23   55 1   
    63   24   25 1   
    64   25   28 1   
    65   25   58 1   
    66   26   43 1   
    67   26   56 1   
    68   26   57 1   
    69   28   29 1   
    70   28   58 1   
    71   28   59 1   
    72   28   60 1   
    73   29   30 1   
    74   29   60 1   
    75   29   61 1   
    76   30   31 1   
    77   30   34 1   
    78   30   62 1   
    79   31   47 1   
    80   31   62 1   
    81   32   33 1   
    82   32   47 1   
    83   32   63 1   
    84   32   64 1   
    85   33   34 1   
    86   33   64 1   
    87   33   65 1   
    88   34   65 1   
    89   47   63 1   
@<TRIPOS>SUBSTRUCTURE
     1 3OT         1 TEMP              0 ****  ****    0 ROOT
