@<TRIPOS>MOLECULE
3OU
   81    86     1     0     0
SMALL
bcc


@<TRIPOS>ATOM
      1 C1         -1.0320   -0.2670    0.3540 c         1 3OU      0.667700
      2 C2          0.3920   -0.0540   -0.0230 cc        1 3OU     -0.023200
      3 C3          1.3680   -0.0790    0.9420 cd        1 3OU     -0.037000
      4 C4          1.0170   -0.2480    2.3170 cd        1 3OU     -0.138200
      5 C5         -0.3050   -0.4130    2.6630 cc        1 3OU      0.023600
      6 N6         -1.3150   -0.4350    1.7260 n         1 3OU     -0.331000
      7 C7         -2.6770   -0.6000    2.1730 c3        1 3OU      0.058300
      8 O8         -1.9610   -0.3200   -0.4780 o         1 3OU     -0.641500
      9 N9          0.6790    0.0700   -1.4010 nu        1 3OU     -0.688700
     10 C10         1.1260    1.3030   -1.9210 ca        1 3OU      0.657200
     11 C11         1.7880    2.2680   -1.1050 ca        1 3OU     -0.303300
     12 C12         2.3170    3.4080   -1.6960 ca        1 3OU     -0.014000
     13 C13         2.1980    3.5880   -3.0790 ca        1 3OU     -0.307900
     14 C14         1.5000    2.6070   -3.8110 ca        1 3OU      0.467200
     15 N15         0.9700    1.5020   -3.2760 nb        1 3OU     -0.718000
     16 C16         2.7190    4.8290   -3.7030 c         1 3OU      0.679700
     17 O17         2.5260    5.9380   -3.1640 o         1 3OU     -0.599100
     18 N18         3.3620    4.7490   -4.9420 n         1 3OU     -0.456800
     19 C19         3.8480    5.9620   -5.5710 c3        1 3OU      0.046000
     20 C20         5.3780    6.0660   -5.6080 c3        1 3OU      0.100900
     21 O21         5.9720    4.8820   -6.1330 os        1 3OU     -0.412600
     22 C22         5.5830    3.7160   -5.4170 c3        1 3OU      0.100900
     23 C23         4.0550    3.5550   -5.3710 c3        1 3OU      0.046000
     24 C24         2.0670   -0.2630    3.3390 ca        1 3OU     -0.030800
     25 C25         2.5390   -1.5020    3.7890 ca        1 3OU     -0.118000
     26 C26         3.5380   -1.5620    4.7550 ca        1 3OU     -0.126000
     27 C27         4.0760   -0.3940    5.2830 ca        1 3OU     -0.118000
     28 C28         3.6150    0.8650    4.8440 ca        1 3OU      0.074600
     29 C29         2.6000    0.9280    3.8590 ca        1 3OU     -0.058300
     30 C30         2.1230    2.2540    3.3490 c3        1 3OU      0.164700
     31 N31         4.1830    2.0340    5.4240 n         1 3OU     -0.397000
     32 C32         3.5790    2.4940    6.6570 c3        1 3OU      0.102000
     33 C33         4.5120    3.3410    7.5220 c3        1 3OU     -0.055100
     34 C34         5.0190    2.8790    4.6900 c         1 3OU      0.726100
     35 C35         5.5010    4.1100    5.3630 ca        1 3OU     -0.194600
     36 C36         5.2520    4.3520    6.7210 ca        1 3OU     -0.000300
     37 C37         5.7200    5.5150    7.3260 ca        1 3OU     -0.211000
     38 C38         6.4470    6.4810    6.5840 ca        1 3OU      0.202600
     39 C39         6.7020    6.2090    5.2150 ca        1 3OU     -0.213000
     40 C40         6.2320    5.0460    4.6240 ca        1 3OU     -0.032000
     41 N41         6.8430    7.6900    7.1690 nh        1 3OU     -0.664000
     42 C42         7.7990    8.5030    6.4640 c3        1 3OU      0.190600
     43 C43         6.8400    7.7830    8.6050 c3        1 3OU      0.190600
     44 O44         5.3640    2.5870    3.5260 o         1 3OU     -0.645500
     45 O45         1.4240    2.9150    4.3970 oh        1 3OU     -0.603800
     46 H1          2.4350    0.0360    0.6860 ha        1 3OU      0.165000
     47 H2         -0.6180   -0.5320    3.7180 h4        1 3OU      0.166000
     48 H3         -3.3710   -0.5800    1.2900 h1        1 3OU      0.063700
     49 H4         -2.9510    0.2320    2.8760 h1        1 3OU      0.063700
     50 H5         -2.7850   -1.5820    2.7050 h1        1 3OU      0.063700
     51 H6          0.0040   -0.4060   -1.9770 hn        1 3OU      0.447800
     52 H7          1.8750    2.1250   -0.0190 ha        1 3OU      0.150000
     53 H8          2.8200    4.1750   -1.0840 ha        1 3OU      0.156000
     54 H9          1.3400    2.7200   -4.9020 h4        1 3OU      0.033100
     55 H10         3.4340    6.8640   -5.0370 h1        1 3OU      0.069700
     56 H11         3.4610    5.9600   -6.6300 h1        1 3OU      0.069700
     57 H12         5.7910    6.2700   -4.5850 h1        1 3OU      0.056950
     58 H13         5.6930    6.8730   -6.3190 h1        1 3OU      0.056950
     59 H14         6.0410    2.8690   -5.9920 h1        1 3OU      0.056950
     60 H15         6.0110    3.7530   -4.3800 h1        1 3OU      0.056950
     61 H16         3.8120    2.6880   -4.6980 h1        1 3OU      0.069700
     62 H17         3.6900    3.3130   -6.4110 h1        1 3OU      0.069700
     63 H18         2.1190   -2.4290    3.3700 ha        1 3OU      0.139000
     64 H19         3.9090   -2.5390    5.1010 ha        1 3OU      0.137000
     65 H20         4.8720   -0.4550    6.0420 ha        1 3OU      0.144000
     66 H21         1.4310    2.1240    2.4710 h1        1 3OU      0.045200
     67 H22         3.0060    2.8700    3.0190 h1        1 3OU      0.045200
     68 H23         2.6510    3.0920    6.4110 h1        1 3OU      0.056700
     69 H24         3.2590    1.5900    7.2500 h1        1 3OU      0.056700
     70 H25         5.2590    2.6800    8.0410 hc        1 3OU      0.063200
     71 H26         3.8930    3.8380    8.3150 hc        1 3OU      0.063200
     72 H27         5.5080    5.6700    8.3950 ha        1 3OU      0.136000
     73 H28         7.2740    6.9170    4.5970 ha        1 3OU      0.139000
     74 H29         6.4370    4.8430    3.5590 ha        1 3OU      0.157000
     75 H30         8.0650    9.4010    7.0810 h1        1 3OU      0.040367
     76 H31         7.3390    8.8620    5.5040 h1        1 3OU      0.040367
     77 H32         8.7410    7.9400    6.2240 h1        1 3OU      0.040367
     78 H33         7.2690    8.7680    8.9270 h1        1 3OU      0.040367
     79 H34         5.7810    7.7240    8.9740 h1        1 3OU      0.040367
     80 H35         7.4340    6.9580    9.0850 h1        1 3OU      0.040367
     81 H36         1.2520    3.8110    4.0830 ho        1 3OU      0.403000
@<TRIPOS>BOND
     1    1    2 1   
     2    1    6 1   
     3    1    8 2   
     4    2    3 2   
     5    2    9 1   
     6    3    4 1   
     7    3   46 1   
     8    4    5 2   
     9    4   24 1   
    10    5    6 1   
    11    5   47 1   
    12    6    7 1   
    13    7   48 1   
    14    7   49 1   
    15    7   50 1   
    16    9   10 1   
    17    9   51 1   
    18   10   11 ar  
    19   10   15 ar  
    20   11   12 ar  
    21   11   52 1   
    22   12   13 ar  
    23   12   53 1   
    24   13   14 ar  
    25   13   16 1   
    26   14   15 ar  
    27   14   54 1   
    28   16   17 2   
    29   16   18 1   
    30   18   19 1   
    31   18   23 1   
    32   19   20 1   
    33   19   55 1   
    34   19   56 1   
    35   20   21 1   
    36   20   57 1   
    37   20   58 1   
    38   21   22 1   
    39   22   23 1   
    40   22   59 1   
    41   22   60 1   
    42   23   61 1   
    43   23   62 1   
    44   24   25 ar  
    45   24   29 ar  
    46   25   26 ar  
    47   25   63 1   
    48   26   27 ar  
    49   26   64 1   
    50   27   28 ar  
    51   27   65 1   
    52   28   29 ar  
    53   28   31 1   
    54   29   30 1   
    55   30   45 1   
    56   30   66 1   
    57   30   67 1   
    58   31   32 1   
    59   31   34 1   
    60   32   33 1   
    61   32   68 1   
    62   32   69 1   
    63   33   36 1   
    64   33   70 1   
    65   33   71 1   
    66   34   35 1   
    67   34   44 2   
    68   35   36 ar  
    69   35   40 ar  
    70   36   37 ar  
    71   37   38 ar  
    72   37   72 1   
    73   38   39 ar  
    74   38   41 1   
    75   39   40 ar  
    76   39   73 1   
    77   40   74 1   
    78   41   42 1   
    79   41   43 1   
    80   42   75 1   
    81   42   76 1   
    82   42   77 1   
    83   43   78 1   
    84   43   79 1   
    85   43   80 1   
    86   45   81 1   
@<TRIPOS>SUBSTRUCTURE
     1 3OU         1 TEMP              0 ****  ****    0 ROOT
