@<TRIPOS>MOLECULE
3OU
   81    86     1     0     0
SMALL
bcc


@<TRIPOS>ATOM
      1 C1         -1.0260   -0.2720    0.3450 c         1 3OU      0.667700
      2 C2          0.4020   -0.0590   -0.0170 cc        1 3OU     -0.023200
      3 C3          1.3680   -0.0900    0.9570 cd        1 3OU     -0.037000
      4 C4          1.0030   -0.2660    2.3280 cd        1 3OU     -0.138200
      5 C5         -0.3220   -0.4310    2.6600 cc        1 3OU      0.023600
      6 N6         -1.3220   -0.4490    1.7120 n         1 3OU     -0.331000
      7 C7         -2.6890   -0.6150    2.1450 c3        1 3OU      0.058300
      8 O8         -1.9460   -0.3200   -0.4970 o         1 3OU     -0.641500
      9 N9          0.7030    0.0720   -1.3910 nh        1 3OU     -0.688700
     10 C10         1.1570    1.3060   -1.9010 ca        1 3OU      0.657200
     11 C11         1.8170    2.2640   -1.0740 ca        1 3OU     -0.304300
     12 C12         2.3530    3.4070   -1.6540 ca        1 3OU     -0.014000
     13 C13         2.2430    3.5970   -3.0370 ca        1 3OU     -0.307900
     14 C14         1.5460    2.6210   -3.7800 ca        1 3OU      0.467200
     15 N15         1.0100    1.5150   -3.2560 nb        1 3OU     -0.718000
     16 C16         2.7710    4.8400   -3.6500 c         1 3OU      0.679700
     17 O17         2.5780    5.9460   -3.1030 o         1 3OU     -0.600100
     18 N18         3.4200    4.7670   -4.8850 n         1 3OU     -0.456800
     19 C19         3.9120    5.9830   -5.5030 c3        1 3OU      0.046000
     20 C20         5.4420    6.0820   -5.5340 c3        1 3OU      0.100900
     21 O21         6.0350    4.9010   -6.0650 os        1 3OU     -0.412600
     22 C22         5.6400    3.7310   -5.3580 c3        1 3OU      0.100900
     23 C23         4.1120    3.5740   -5.3200 c3        1 3OU      0.046000
     24 C24         2.0420   -0.2850    3.3620 ca        1 3OU     -0.030800
     25 C25         2.4850   -1.5260    3.8340 ca        1 3OU     -0.118000
     26 C26         3.4740   -1.5920    4.8110 ca        1 3OU     -0.126000
     27 C27         4.0310   -0.4270    5.3260 ca        1 3OU     -0.118000
     28 C28         3.5990    0.8340    4.8640 ca        1 3OU      0.074600
     29 C29         2.5930    0.9030    3.8690 ca        1 3OU     -0.058300
     30 C30         2.1460    2.2300    3.3370 c3        1 3OU      0.164700
     31 N31         4.1860    2.0000    5.4310 n         1 3OU     -0.397000
     32 C32         3.5830    2.4890    6.6540 c3        1 3OU      0.102000
     33 C33         4.5270    3.3270    7.5150 c3        1 3OU     -0.056100
     34 C34         5.0450    2.8170    4.6930 c         1 3OU      0.726100
     35 C35         5.5530    4.0440    5.3540 ca        1 3OU     -0.194600
     36 C36         5.2980    4.3090    6.7080 ca        1 3OU     -0.000300
     37 C37         5.7870    5.4690    7.3010 ca        1 3OU     -0.212000
     38 C38         6.5600    6.3980    6.5580 ca        1 3OU      0.203600
     39 C39         6.8010    6.1140    5.1880 ca        1 3OU     -0.213000
     40 C40         6.3090    4.9540    4.6090 ca        1 3OU     -0.032000
     41 N41         7.1190    7.5260    7.1720 nh        1 3OU     -0.665000
     42 C42         7.6540    8.5630    6.3300 c3        1 3OU      0.191100
     43 C43         6.6060    7.9250    8.4550 c3        1 3OU      0.191100
     44 O44         5.3890    2.5040    3.5340 o         1 3OU     -0.645500
     45 O45         1.4550    2.9200    4.3720 oh        1 3OU     -0.603800
     46 H1          2.4380    0.0250    0.7140 ha        1 3OU      0.165000
     47 H2         -0.6460   -0.5570    3.7110 h4        1 3OU      0.166000
     48 H3         -2.9710    0.2130    2.8490 h1        1 3OU      0.063700
     49 H4         -3.3740   -0.5930    1.2540 h1        1 3OU      0.063700
     50 H5         -2.8020   -1.6000    2.6710 h1        1 3OU      0.063700
     51 H6          0.0340   -0.4010   -1.9760 hn        1 3OU      0.447800
     52 H7          1.8960    2.1140    0.0110 ha        1 3OU      0.150000
     53 H8          2.8540    4.1680   -1.0340 ha        1 3OU      0.156000
     54 H9          1.3940    2.7420   -4.8710 h4        1 3OU      0.033100
     55 H10         3.5290    5.9890   -6.5640 h1        1 3OU      0.069700
     56 H11         3.4980    6.8820   -4.9660 h1        1 3OU      0.069700
     57 H12         5.8520    6.2790   -4.5090 h1        1 3OU      0.057200
     58 H13         5.7620    6.8940   -6.2390 h1        1 3OU      0.057200
     59 H14         6.0980    2.8870   -5.9380 h1        1 3OU      0.057200
     60 H15         6.0640    3.7600   -4.3200 h1        1 3OU      0.057200
     61 H16         3.7500    3.3400   -6.3630 h1        1 3OU      0.069700
     62 H17         3.8640    2.7030   -4.6540 h1        1 3OU      0.069700
     63 H18         2.0510   -2.4510    3.4250 ha        1 3OU      0.139000
     64 H19         3.8220   -2.5710    5.1750 ha        1 3OU      0.137000
     65 H20         4.8180   -0.4930    6.0930 ha        1 3OU      0.144000
     66 H21         3.0440    2.8240    3.0050 h1        1 3OU      0.044700
     67 H22         1.4570    2.1010    2.4570 h1        1 3OU      0.044700
     68 H23         2.6700    3.1030    6.3930 h1        1 3OU      0.056200
     69 H24         3.2380    1.6010    7.2570 h1        1 3OU      0.056200
     70 H25         5.2540    2.6580    8.0500 hc        1 3OU      0.063700
     71 H26         3.9120    3.8500    8.2950 hc        1 3OU      0.063700
     72 H27         5.5660    5.6460    8.3640 ha        1 3OU      0.136000
     73 H28         7.3870    6.8040    4.5640 ha        1 3OU      0.139000
     74 H29         6.5120    4.7350    3.5460 ha        1 3OU      0.157000
     75 H30         8.0010    9.4250    6.9580 h1        1 3OU      0.040367
     76 H31         6.8990    8.9400    5.5870 h1        1 3OU      0.040367
     77 H32         8.5400    8.1590    5.7690 h1        1 3OU      0.040367
     78 H33         5.4900    8.0620    8.4430 h1        1 3OU      0.040367
     79 H34         6.8630    7.1380    9.2150 h1        1 3OU      0.040367
     80 H35         7.0810    8.8890    8.7760 h1        1 3OU      0.040367
     81 H36         1.2870    3.8090    4.0360 ho        1 3OU      0.403000
@<TRIPOS>BOND
     1    1    2 1   
     2    1    6 1   
     3    1    8 2   
     4    2    3 2   
     5    2    9 1   
     6    3    4 1   
     7    3   46 1   
     8    4    5 2   
     9    4   24 1   
    10    5    6 1   
    11    5   47 1   
    12    6    7 1   
    13    7   48 1   
    14    7   49 1   
    15    7   50 1   
    16    9   10 1   
    17    9   51 1   
    18   10   11 ar  
    19   10   15 ar  
    20   11   12 ar  
    21   11   52 1   
    22   12   13 ar  
    23   12   53 1   
    24   13   14 ar  
    25   13   16 1   
    26   14   15 ar  
    27   14   54 1   
    28   16   17 2   
    29   16   18 1   
    30   18   19 1   
    31   18   23 1   
    32   19   20 1   
    33   19   55 1   
    34   19   56 1   
    35   20   21 1   
    36   20   57 1   
    37   20   58 1   
    38   21   22 1   
    39   22   23 1   
    40   22   59 1   
    41   22   60 1   
    42   23   61 1   
    43   23   62 1   
    44   24   25 ar  
    45   24   29 ar  
    46   25   26 ar  
    47   25   63 1   
    48   26   27 ar  
    49   26   64 1   
    50   27   28 ar  
    51   27   65 1   
    52   28   29 ar  
    53   28   31 1   
    54   29   30 1   
    55   30   45 1   
    56   30   66 1   
    57   30   67 1   
    58   31   32 1   
    59   31   34 1   
    60   32   33 1   
    61   32   68 1   
    62   32   69 1   
    63   33   36 1   
    64   33   70 1   
    65   33   71 1   
    66   34   35 1   
    67   34   44 2   
    68   35   36 ar  
    69   35   40 ar  
    70   36   37 ar  
    71   37   38 ar  
    72   37   72 1   
    73   38   39 ar  
    74   38   41 1   
    75   39   40 ar  
    76   39   73 1   
    77   40   74 1   
    78   41   42 1   
    79   41   43 1   
    80   42   75 1   
    81   42   76 1   
    82   42   77 1   
    83   43   78 1   
    84   43   79 1   
    85   43   80 1   
    86   45   81 1   
@<TRIPOS>SUBSTRUCTURE
     1 3OU         1 TEMP              0 ****  ****    0 ROOT
