@<TRIPOS>MOLECULE
3OV
   79    84     1     0     0
SMALL
bcc


@<TRIPOS>ATOM
      1 C1         -1.0240    0.2640    0.6910 c         1 3OV      0.666700
      2 C2          0.2620    0.3580   -0.0510 cc        1 3OV     -0.025200
      3 C3          1.4400    0.5030    0.6380 cd        1 3OV     -0.036000
      4 C4          1.4360    0.6270    2.0620 cd        1 3OV     -0.157200
      5 C5          0.2340    0.5810    2.7390 cc        1 3OV      0.033600
      6 N6         -0.9670    0.4000    2.0950 n         1 3OV     -0.327000
      7 C7         -2.1830    0.3660    2.8730 c3        1 3OV      0.058300
      8 O8         -2.1230    0.0560    0.1370 o         1 3OV     -0.636500
      9 N9          0.2120    0.1900   -1.4530 nh        1 3OV     -0.689700
     10 C10         0.4790    1.2830   -2.3040 ca        1 3OV      0.655200
     11 C11         1.2570    2.3980   -1.8740 ca        1 3OV     -0.306300
     12 C12         1.5950    3.3860   -2.7910 ca        1 3OV     -0.028000
     13 C13         1.1650    3.2730   -4.1160 ca        1 3OV     -0.307900
     14 C14         0.3630    2.1590   -4.4550 ca        1 3OV      0.481200
     15 N15         0.0230    1.1890   -3.6020 nb        1 3OV     -0.715000
     16 C16         1.4260    4.3040   -5.1490 c         1 3OV      0.678700
     17 O17         0.5090    4.6930   -5.9020 o         1 3OV     -0.597100
     18 N18         2.6920    4.8920   -5.2200 n         1 3OV     -0.457800
     19 C19         2.9430    5.9240   -6.2070 c3        1 3OV      0.046500
     20 C20         3.8920    5.4840   -7.3300 c3        1 3OV      0.100900
     21 O21         5.0830    4.8980   -6.8120 os        1 3OV     -0.412600
     22 C22         4.8160    3.8010   -5.9470 c3        1 3OV      0.100900
     23 C23         3.8860    4.1980   -4.7900 c3        1 3OV      0.046500
     24 C24         2.7050    0.7560    2.7760 ca        1 3OV     -0.005800
     25 C25         3.7190   -0.1640    2.4720 ca        1 3OV     -0.119000
     26 C26         4.9380   -0.1170    3.1390 ca        1 3OV     -0.118000
     27 C27         5.1610    0.8400    4.1230 ca        1 3OV     -0.129000
     28 C28         4.1560    1.7760    4.4390 ca        1 3OV      0.042600
     29 C29         2.9220    1.7510    3.7460 ca        1 3OV     -0.090300
     30 C30         1.8750    2.7910    4.0150 c3        1 3OV      0.159700
     31 N31         4.4040    2.7270    5.4780 n         1 3OV     -0.300200
     32 C32         4.5220    2.2520    6.7780 cc        1 3OV      0.011600
     33 C33         4.8640    3.0480    7.8270 cd        1 3OV     -0.221200
     34 C34         4.7160    4.0780    5.1710 c         1 3OV      0.720100
     35 C35         5.0820    4.9480    6.3000 ca        1 3OV     -0.247600
     36 C36         5.1560    4.4440    7.6160 ca        1 3OV      0.076200
     37 C37         5.5110    5.2710    8.6840 ca        1 3OV     -0.238000
     38 C38         5.7950    6.6410    8.4790 ca        1 3OV      0.243600
     39 C39         5.7340    7.1480    7.1540 ca        1 3OV     -0.268000
     40 C40         5.3800    6.3160    6.0880 ca        1 3OV      0.238900
     41 N41         6.0780    7.4870    9.5510 nh        1 3OV     -0.671000
     42 C42         6.5800    8.8070    9.2830 c3        1 3OV      0.195100
     43 C43         6.3690    6.9070   10.8340 c3        1 3OV      0.195100
     44 O44         4.6500    4.4670    3.9920 o         1 3OV     -0.605500
     45 O45         1.0580    2.4500    5.1230 oh        1 3OV     -0.607800
     46 F46         5.3300    6.8440    4.8460 f         1 3OV     -0.111900
     47 H1          2.4100    0.5430    0.1140 ha        1 3OV      0.157000
     48 H2          0.1900    0.7020    3.8420 h4        1 3OV      0.186000
     49 H3         -3.0690    0.4820    2.1920 h1        1 3OV      0.065367
     50 H4         -2.2600   -0.6180    3.4090 h1        1 3OV      0.065367
     51 H5         -2.1790    1.1990    3.6250 h1        1 3OV      0.065367
     52 H6         -0.5630   -0.3840   -1.7420 hn        1 3OV      0.447800
     53 H7          1.5780    2.4900   -0.8270 ha        1 3OV      0.152000
     54 H8          2.1900    4.2550   -2.4670 ha        1 3OV      0.149000
     55 H9         -0.0400    2.0580   -5.4820 h4        1 3OV      0.041100
     56 H10         1.9720    6.2640   -6.6630 h1        1 3OV      0.068950
     57 H11         3.4100    6.7930   -5.6610 h1        1 3OV      0.068950
     58 H12         4.2500    6.3780   -7.9050 h1        1 3OV      0.056450
     59 H13         3.3870    4.7590   -8.0200 h1        1 3OV      0.056450
     60 H14         4.3770    2.9550   -6.5380 h1        1 3OV      0.056450
     61 H15         5.8220    3.5100   -5.5470 h1        1 3OV      0.056450
     62 H16         4.4480    4.8950   -4.1020 h1        1 3OV      0.068950
     63 H17         3.6220    3.2680   -4.2150 h1        1 3OV      0.068950
     64 H18         3.5410   -0.9320    1.7030 ha        1 3OV      0.144000
     65 H19         5.7300   -0.8400    2.8910 ha        1 3OV      0.141000
     66 H20         6.1280    0.8650    4.6490 ha        1 3OV      0.145000
     67 H21         2.3480    3.7990    4.1670 h1        1 3OV      0.071700
     68 H22         1.1550    2.8700    3.1530 h1        1 3OV      0.071700
     69 H23         4.3060    1.1740    6.9090 h4        1 3OV      0.157000
     70 H24         4.9230    2.6400    8.8440 ha        1 3OV      0.152000
     71 H25         5.5570    4.8280    9.6890 ha        1 3OV      0.142000
     72 H26         5.9570    8.2020    6.9330 ha        1 3OV      0.155000
     73 H27         7.5130    8.7800    8.6560 h1        1 3OV      0.043033
     74 H28         6.8090    9.3350   10.2460 h1        1 3OV      0.043033
     75 H29         5.7960    9.3980    8.7350 h1        1 3OV      0.043033
     76 H30         7.2180    6.1710   10.7770 h1        1 3OV      0.043033
     77 H31         6.6400    7.7100   11.5670 h1        1 3OV      0.043033
     78 H32         5.4560    6.3740   11.2160 h1        1 3OV      0.043033
     79 H33         1.6110    2.4870    5.9120 ho        1 3OV      0.405000
@<TRIPOS>BOND
     1    1    2 1   
     2    1    6 1   
     3    1    8 2   
     4    2    3 2   
     5    2    9 1   
     6    3    4 1   
     7    3   47 1   
     8    4    5 2   
     9    4   24 1   
    10    5    6 1   
    11    5   48 1   
    12    6    7 1   
    13    7   49 1   
    14    7   50 1   
    15    7   51 1   
    16    9   10 1   
    17    9   52 1   
    18   10   11 ar  
    19   10   15 ar  
    20   11   12 ar  
    21   11   53 1   
    22   12   13 ar  
    23   12   54 1   
    24   13   14 ar  
    25   13   16 1   
    26   14   15 ar  
    27   14   55 1   
    28   16   17 2   
    29   16   18 1   
    30   18   19 1   
    31   18   23 1   
    32   19   20 1   
    33   19   56 1   
    34   19   57 1   
    35   20   21 1   
    36   20   58 1   
    37   20   59 1   
    38   21   22 1   
    39   22   23 1   
    40   22   60 1   
    41   22   61 1   
    42   23   62 1   
    43   23   63 1   
    44   24   25 ar  
    45   24   29 ar  
    46   25   26 ar  
    47   25   64 1   
    48   26   27 ar  
    49   26   65 1   
    50   27   28 ar  
    51   27   66 1   
    52   28   29 ar  
    53   28   31 1   
    54   29   30 1   
    55   30   45 1   
    56   30   67 1   
    57   30   68 1   
    58   31   32 1   
    59   31   34 1   
    60   32   33 2   
    61   32   69 1   
    62   33   36 1   
    63   33   70 1   
    64   34   35 1   
    65   34   44 2   
    66   35   36 ar  
    67   35   40 ar  
    68   36   37 ar  
    69   37   38 ar  
    70   37   71 1   
    71   38   39 ar  
    72   38   41 1   
    73   39   40 ar  
    74   39   72 1   
    75   40   46 1   
    76   41   42 1   
    77   41   43 1   
    78   42   73 1   
    79   42   74 1   
    80   42   75 1   
    81   43   76 1   
    82   43   77 1   
    83   43   78 1   
    84   45   79 1   
@<TRIPOS>SUBSTRUCTURE
     1 3OV         1 TEMP              0 ****  ****    0 ROOT
