@<TRIPOS>MOLECULE
3OV
   79    84     1     0     0
SMALL
bcc


@<TRIPOS>ATOM
      1 C1         -1.0180    0.2790    0.6350 c         1 3OV      0.666700
      2 C2          0.2870    0.3510   -0.0750 cc        1 3OV     -0.025200
      3 C3          1.4480    0.4980    0.6410 cd        1 3OV     -0.036000
      4 C4          1.4100    0.6440    2.0630 cd        1 3OV     -0.157200
      5 C5          0.1910    0.6180    2.7090 cc        1 3OV      0.033600
      6 N6         -0.9950    0.4370    2.0380 n         1 3OV     -0.327000
      7 C7         -2.2310    0.4240    2.7850 c3        1 3OV      0.058300
      8 O8         -2.1040    0.0710    0.0570 o         1 3OV     -0.636500
      9 N9          0.2710    0.1610   -1.4750 nu        1 3OV     -0.689700
     10 C10         0.5690    1.2380   -2.3360 ca        1 3OV      0.655200
     11 C11         1.3460    2.3530   -1.9040 ca        1 3OV     -0.306300
     12 C12         1.7160    3.3230   -2.8270 ca        1 3OV     -0.028000
     13 C13         1.3190    3.1920   -4.1610 ca        1 3OV     -0.307900
     14 C14         0.5170    2.0800   -4.5030 ca        1 3OV      0.481200
     15 N15         0.1460    1.1270   -3.6440 nb        1 3OV     -0.715000
     16 C16         1.6150    4.2050   -5.2030 c         1 3OV      0.678700
     17 O17         0.7220    4.5880   -5.9860 o         1 3OV     -0.597100
     18 N18         2.8890    4.7800   -5.2510 n         1 3OV     -0.457800
     19 C19         3.1740    5.7940   -6.2480 c3        1 3OV      0.046500
     20 C20         4.1470    5.3290   -7.3380 c3        1 3OV      0.100900
     21 O21         5.3190    4.7410   -6.7810 os        1 3OV     -0.412600
     22 C22         5.0210    3.6610   -5.9050 c3        1 3OV      0.100900
     23 C23         4.0640    4.0840   -4.7790 c3        1 3OV      0.046500
     24 C24         2.6610    0.7740    2.8070 ca        1 3OV     -0.005800
     25 C25         3.6750   -0.1590    2.5430 ca        1 3OV     -0.119000
     26 C26         4.8770   -0.1110    3.2390 ca        1 3OV     -0.117000
     27 C27         5.0830    0.8600    4.2140 ca        1 3OV     -0.129000
     28 C28         4.0780    1.8080    4.4890 ca        1 3OV      0.042600
     29 C29         2.8620    1.7820    3.7670 ca        1 3OV     -0.091300
     30 C30         1.8170    2.8340    3.9930 c3        1 3OV      0.159700
     31 N31         4.3070    2.7740    5.5200 n         1 3OV     -0.300200
     32 C32         4.3890    2.3170    6.8300 cc        1 3OV      0.011600
     33 C33         4.7100    3.1280    7.8750 cd        1 3OV     -0.221200
     34 C34         4.6380    4.1170    5.2010 c         1 3OV      0.720100
     35 C35         4.9810    5.0010    6.3250 ca        1 3OV     -0.247600
     36 C36         5.0190    4.5180    7.6500 ca        1 3OV      0.076200
     37 C37         5.3520    5.3590    8.7140 ca        1 3OV     -0.238000
     38 C38         5.6520    6.7230    8.4960 ca        1 3OV      0.243600
     39 C39         5.6290    7.2100    7.1620 ca        1 3OV     -0.268000
     40 C40         5.2960    6.3640    6.1000 ca        1 3OV      0.238900
     41 N41         5.9130    7.5840    9.5620 nh        1 3OV     -0.671000
     42 C42         6.4320    8.8960    9.2860 c3        1 3OV      0.195100
     43 C43         6.1670    7.0210   10.8600 c3        1 3OV      0.195100
     44 O44         4.6060    4.4880    4.0140 o         1 3OV     -0.605500
     45 O45         0.9700    2.5170    5.0850 oh        1 3OV     -0.607800
     46 F46         5.2820    6.8730    4.8490 f         1 3OV     -0.111900
     47 H1          2.4320    0.5210    0.1410 ha        1 3OV      0.157000
     48 H2          0.1190    0.7560    3.8090 h4        1 3OV      0.186000
     49 H3         -2.3300   -0.5500    3.3350 h1        1 3OV      0.065367
     50 H4         -3.0980    0.5360    2.0800 h1        1 3OV      0.065367
     51 H5         -2.2390    1.2680    3.5250 h1        1 3OV      0.065367
     52 H6         -0.5010   -0.4110   -1.7750 hn        1 3OV      0.447800
     53 H7          1.6410    2.4590   -0.8510 ha        1 3OV      0.152000
     54 H8          2.3100    4.1930   -2.5030 ha        1 3OV      0.149000
     55 H9          0.1400    1.9650   -5.5380 h4        1 3OV      0.041100
     56 H10         3.6340    6.6680   -5.7030 h1        1 3OV      0.068950
     57 H11         2.2170    6.1350   -6.7340 h1        1 3OV      0.068950
     58 H12         4.5280    6.2100   -7.9180 h1        1 3OV      0.056450
     59 H13         3.6540    4.5960   -8.0300 h1        1 3OV      0.056450
     60 H14         6.0140    3.3680   -5.4750 h1        1 3OV      0.056450
     61 H15         4.5900    2.8090   -6.4940 h1        1 3OV      0.056450
     62 H16         3.7780    3.1660   -4.1960 h1        1 3OV      0.068950
     63 H17         4.6140    4.7870   -4.0880 h1        1 3OV      0.068950
     64 H18         3.5100   -0.9370    1.7810 ha        1 3OV      0.144000
     65 H19         5.6700   -0.8430    3.0230 ha        1 3OV      0.141000
     66 H20         6.0370    0.8850    4.7640 ha        1 3OV      0.145000
     67 H21         1.1200    2.9060    3.1120 h1        1 3OV      0.071700
     68 H22         2.2940    3.8410    4.1420 h1        1 3OV      0.071700
     69 H23         4.1610    1.2440    6.9720 h4        1 3OV      0.157000
     70 H24         4.7400    2.7340    8.8990 ha        1 3OV      0.152000
     71 H25         5.3690    4.9310    9.7270 ha        1 3OV      0.142000
     72 H26         5.8650    8.2590    6.9310 ha        1 3OV      0.155000
     73 H27         6.6400    9.4370   10.2460 h1        1 3OV      0.043033
     74 H28         5.6680    9.4840    8.7090 h1        1 3OV      0.043033
     75 H29         7.3810    8.8530    8.6850 h1        1 3OV      0.043033
     76 H30         6.4250    7.8340   11.5880 h1        1 3OV      0.043033
     77 H31         5.2410    6.5010   11.2260 h1        1 3OV      0.043033
     78 H32         7.0110    6.2790   10.8360 h1        1 3OV      0.043033
     79 H33         1.5030    2.5620    5.8870 ho        1 3OV      0.405000
@<TRIPOS>BOND
     1    1    2 1   
     2    1    6 1   
     3    1    8 2   
     4    2    3 2   
     5    2    9 1   
     6    3    4 1   
     7    3   47 1   
     8    4    5 2   
     9    4   24 1   
    10    5    6 1   
    11    5   48 1   
    12    6    7 1   
    13    7   49 1   
    14    7   50 1   
    15    7   51 1   
    16    9   10 1   
    17    9   52 1   
    18   10   11 ar  
    19   10   15 ar  
    20   11   12 ar  
    21   11   53 1   
    22   12   13 ar  
    23   12   54 1   
    24   13   14 ar  
    25   13   16 1   
    26   14   15 ar  
    27   14   55 1   
    28   16   17 2   
    29   16   18 1   
    30   18   19 1   
    31   18   23 1   
    32   19   20 1   
    33   19   56 1   
    34   19   57 1   
    35   20   21 1   
    36   20   58 1   
    37   20   59 1   
    38   21   22 1   
    39   22   23 1   
    40   22   60 1   
    41   22   61 1   
    42   23   62 1   
    43   23   63 1   
    44   24   25 ar  
    45   24   29 ar  
    46   25   26 ar  
    47   25   64 1   
    48   26   27 ar  
    49   26   65 1   
    50   27   28 ar  
    51   27   66 1   
    52   28   29 ar  
    53   28   31 1   
    54   29   30 1   
    55   30   45 1   
    56   30   67 1   
    57   30   68 1   
    58   31   32 1   
    59   31   34 1   
    60   32   33 2   
    61   32   69 1   
    62   33   36 1   
    63   33   70 1   
    64   34   35 1   
    65   34   44 2   
    66   35   36 ar  
    67   35   40 ar  
    68   36   37 ar  
    69   37   38 ar  
    70   37   71 1   
    71   38   39 ar  
    72   38   41 1   
    73   39   40 ar  
    74   39   72 1   
    75   40   46 1   
    76   41   42 1   
    77   41   43 1   
    78   42   73 1   
    79   42   74 1   
    80   42   75 1   
    81   43   76 1   
    82   43   77 1   
    83   43   78 1   
    84   45   79 1   
@<TRIPOS>SUBSTRUCTURE
     1 3OV         1 TEMP              0 ****  ****    0 ROOT
