@<TRIPOS>MOLECULE
3OZ
   54    57     1     0     0
SMALL
bcc


@<TRIPOS>ATOM
      1 C1         -3.4740    0.7580    0.1420 ca        1 3OZ      0.095600
      2 C2         -3.3950    1.9400    0.9290 ca        1 3OZ     -0.038600
      3 C3         -4.6370    0.5760   -0.6430 ca        1 3OZ     -0.155000
      4 C4         -4.4230    2.8820    0.9280 ca        1 3OZ     -0.092000
      5 C5         -5.6590    1.5170   -0.6410 ca        1 3OZ     -0.097000
      6 C6         -5.5560    2.6680    0.1430 ca        1 3OZ     -0.014600
      7 CL7        -6.8120    3.8150    0.1430 cl        1 3OZ     -0.101400
      8 CL8        -2.0340    2.2530    1.9060 cl        1 3OZ     -0.085400
      9 N9         -2.4280   -0.1680    0.1830 n         1 3OZ     -0.445100
     10 C10        -2.3200   -1.3450   -0.5390 c         1 3OZ      0.683100
     11 C11        -1.0590   -2.2090   -0.3060 c3        1 3OZ      0.149800
     12 O12        -3.1920   -1.7620   -1.3230 o         1 3OZ     -0.608100
     13 C13        -1.1880   -2.9650    0.9960 ca        1 3OZ     -0.120300
     14 C14        -0.0760   -2.6550    1.8150 ca        1 3OZ     -0.092300
     15 C15         0.8090   -1.6770    1.0920 c3        1 3OZ      0.194100
     16 N16         0.1830   -1.4080   -0.2180 n3        1 3OZ     -0.725600
     17 C17         1.0610   -1.6070   -1.3670 c3        1 3OZ      0.227100
     18 C18        -2.1590   -3.8540    1.4190 ca        1 3OZ     -0.098000
     19 C19        -2.0150   -4.4380    2.6870 ca        1 3OZ     -0.139000
     20 C20        -0.9240   -4.1310    3.4950 ca        1 3OZ     -0.123000
     21 C21         0.0630   -3.2310    3.0640 ca        1 3OZ     -0.113000
     22 C22         4.8000   -1.1320   -0.9180 ca        1 3OZ     -0.124300
     23 C23         4.9070    0.2810   -1.0230 ca        1 3OZ      0.171100
     24 C24         3.5440   -1.7200   -1.0220 ca        1 3OZ     -0.100000
     25 C25         3.7570    1.0580   -1.2370 ca        1 3OZ     -0.225000
     26 C26         2.3960   -0.9450   -1.2320 ca        1 3OZ     -0.176300
     27 C27         2.5130    0.4420   -1.3400 ca        1 3OZ     -0.072000
     28 C30         6.3060    2.2080   -0.9380 c3        1 3OZ     -0.013600
     29 C31         7.8110    2.5270   -0.6870 c         1 3OZ      0.926600
     30 O32         8.4650    2.9430   -1.6780 o         1 3OZ     -0.817800
     31 O33         8.2420    2.4060    0.4880 o         1 3OZ     -0.817800
     32 H3         -4.7450   -0.3220   -1.2760 ha        1 3OZ      0.183000
     33 H4         -4.3350    3.7910    1.5450 ha        1 3OZ      0.159000
     34 H5         -6.5510    1.3470   -1.2640 ha        1 3OZ      0.147000
     35 HN9        -1.6350    0.0960    0.7350 hn        1 3OZ      0.349500
     36 H11        -1.0360   -2.9350   -1.1740 h1        1 3OZ      0.091700
     37 H15         0.8600   -0.6990    1.6470 h1        1 3OZ      0.077200
     38 H15A        1.8560   -2.0760    0.9890 h1        1 3OZ      0.077200
     39 H17         1.2180   -2.7070   -1.5800 h1        1 3OZ      0.036700
     40 H17A        0.5180   -1.1650   -2.2530 h1        1 3OZ      0.036700
     41 H18        -3.0220   -4.0970    0.7840 ha        1 3OZ      0.144000
     42 H19        -2.7780   -5.1460    3.0420 ha        1 3OZ      0.130000
     43 H20        -0.8290   -4.5990    4.4860 ha        1 3OZ      0.130000
     44 H21         0.9230   -2.9950    3.7070 ha        1 3OZ      0.142000
     45 H24         3.4540   -2.8140   -0.9400 ha        1 3OZ      0.116000
     46 H25         3.8360    2.1500   -1.3240 ha        1 3OZ      0.145000
     47 H27         1.6140    1.0530   -1.5060 ha        1 3OZ      0.124000
     48 H28         6.6120   -1.5160    0.1470 hc        1 3OZ      0.045700
     49 H28A        5.7720   -3.0060   -0.4840 hc        1 3OZ      0.045700
     50 H28B        6.6680   -1.8980   -1.6150 hc        1 3OZ      0.045700
     51 H30         5.9870    2.5830   -1.9430 h1        1 3OZ      0.023200
     52 H30A        5.6800    2.6630   -0.1300 h1        1 3OZ      0.023200
     53 C28         6.0200   -1.9400   -0.7040 c3        1 3OZ     -0.040800
     54 O29         6.1720    0.7810   -0.9040 os        1 3OZ     -0.282900
@<TRIPOS>BOND
     1    1    2 ar  
     2    1    3 ar  
     3    1    9 1   
     4    2    4 ar  
     5    2    8 1   
     6    3    5 ar  
     7    3   32 1   
     8    4    6 ar  
     9    4   33 1   
    10    5    6 ar  
    11    5   34 1   
    12    6    7 1   
    13    9   10 1   
    14    9   35 1   
    15   10   11 1   
    16   10   12 2   
    17   11   13 1   
    18   11   16 1   
    19   11   36 1   
    20   13   14 ar  
    21   13   18 ar  
    22   14   15 1   
    23   14   21 ar  
    24   15   16 1   
    25   15   37 1   
    26   15   38 1   
    27   16   17 1   
    28   17   26 1   
    29   17   39 1   
    30   17   40 1   
    31   18   19 ar  
    32   18   41 1   
    33   19   20 ar  
    34   19   42 1   
    35   20   21 ar  
    36   20   43 1   
    37   21   44 1   
    38   22   23 ar  
    39   22   24 ar  
    40   22   53 1   
    41   23   25 ar  
    42   23   54 1   
    43   24   26 ar  
    44   24   45 1   
    45   25   27 ar  
    46   25   46 1   
    47   26   27 ar  
    48   27   47 1   
    49   28   29 1   
    50   28   51 1   
    51   28   52 1   
    52   28   54 1   
    53   29   30 1   
    54   29   31 1   
    55   48   53 1   
    56   49   53 1   
    57   50   53 1   
@<TRIPOS>SUBSTRUCTURE
     1 3OZ         1 TEMP              0 ****  ****    0 ROOT
