@<TRIPOS>MOLECULE
3OZ
   54    49     1     0     0
SMALL
bcc


@<TRIPOS>ATOM
      1 C1          2.3960   -2.5530    2.2600 c1        1 3OZ      0.101000
      2 C2          1.8560   -3.4120    3.2170 c2        1 3OZ     -0.117000
      3 C3          3.6930   -2.0500    2.4230 c1        1 3OZ     -0.148000
      4 C4          2.6080   -3.7710    4.3350 c1        1 3OZ     -0.093000
      5 C5          4.4440   -2.4100    3.5430 c1        1 3OZ     -0.095000
      6 C6          3.9040   -3.2690    4.4980 c1        1 3OZ     -0.091000
      7 CL7         4.8300   -3.6810    5.9370 cl        1 3OZ     -0.019000
      8 CL8         0.3820   -4.1750    2.9220 cl        1 3OZ     -0.015000
      9 N9          1.6460   -2.2840    0.9910 n2        1 3OZ     -0.318000
     10 C10         0.2550   -2.0680    1.0260 c2        1 3OZ      0.296000
     11 C11        -0.4550   -1.9910   -0.1610 c3        1 3OZ      0.008000
     12 O12        -0.3530   -2.0990    2.1150 o         1 3OZ     -0.346000
     13 C13         0.2370   -2.8660   -1.2240 c2        1 3OZ     -0.122000
     14 C14         1.0080   -2.0390   -2.0290 c2        1 3OZ     -0.081000
     15 C15         0.7210   -0.6200   -1.6400 c3        1 3OZ     -0.046000
     16 N16        -0.3400   -0.6290   -0.7080 n3        1 3OZ     -0.242000
     17 C17        -0.0360    0.3110    0.3800 c3        1 3OZ     -0.020000
     18 C18        -0.0390   -4.1730   -1.6290 c1        1 3OZ     -0.101000
     19 C19         0.4590   -4.6430   -2.8370 c1        1 3OZ     -0.130500
     20 C20         1.2360   -3.8050   -3.6470 c1        1 3OZ     -0.130500
     21 C21         1.5080   -2.5120   -3.2440 c1        1 3OZ     -0.114000
     22 C22        -1.5410    3.3580   -1.4040 c1        1 3OZ     -0.117000
     23 C23        -2.0830    4.0570   -0.3460 c1        1 3OZ      0.125000
     24 C24        -0.8780    2.1550   -1.1770 c1        1 3OZ     -0.100000
     25 C25        -1.9660    3.5540    0.9620 c1        1 3OZ     -0.226000
     26 C26        -0.7620    1.6550    0.1270 c1        1 3OZ     -0.164000
     27 C27        -1.3050    2.3550    1.1870 c1        1 3OZ     -0.071000
     28 C28        -1.5980    3.9390   -2.8120 c3        1 3OZ     -0.166000
     29 O29        -2.6720    5.3260   -0.5660 os        1 3OZ     -0.167000
     30 C30        -3.9220    5.4760    0.0350 c3        1 3OZ     -0.113000
     31 C31        -4.6540    6.7090   -0.5790 c2        1 3OZ      0.346000
     32 O32        -4.0440    7.8190   -0.6920 o         1 3OZ     -0.553500
     33 O33        -5.8790    6.6230   -0.9030 o         1 3OZ     -0.553500
     34 H3          4.0830   -1.4290    1.7310 ha        1 3OZ      0.184000
     35 H4          2.2320   -4.3710    5.0030 ha        1 3OZ      0.158000
     36 H5          5.3720   -2.0530    3.6600 ha        1 3OZ      0.151000
     37 HN9         2.0890   -2.2130    0.2120 hn        1 3OZ      0.251000
     38 H11        -1.3950   -2.2940    0.1540 h1        1 3OZ      0.149000
     39 H15         1.4960   -0.2330   -1.2400 h1        1 3OZ      0.114000
     40 H15A        0.4530   -0.0830   -2.4600 h1        1 3OZ      0.114000
     41 H17         0.9900    0.4730    0.4180 h1        1 3OZ      0.078500
     42 H17A       -0.3260   -0.0500    1.1960 h1        1 3OZ      0.078500
     43 H18        -0.6280   -4.7650   -1.0610 ha        1 3OZ      0.139000
     44 H19         0.2240   -5.5340   -3.1450 ha        1 3OZ      0.130500
     45 H20         1.5980   -4.1440   -4.5250 ha        1 3OZ      0.130500
     46 H21         2.0990   -1.9440   -3.7860 ha        1 3OZ      0.143000
     47 H24        -0.3720    1.7550   -1.8820 ha        1 3OZ      0.115000
     48 H25        -2.3460    4.0450    1.7080 ha        1 3OZ      0.145000
     49 H27        -1.1140    2.0640    2.1200 ha        1 3OZ      0.126000
     50 H28        -1.5700    3.2120   -3.4670 hc        1 3OZ      0.084333
     51 H28A       -0.8430    4.5260   -2.9490 hc        1 3OZ      0.084333
     52 H28B       -2.4430    4.4550   -2.9250 hc        1 3OZ      0.084333
     53 H30        -3.8070    5.6110    0.9950 h1        1 3OZ      0.062500
     54 H30A       -4.4470    4.6860   -0.1180 h1        1 3OZ      0.062500
@<TRIPOS>BOND
     1    1    2 1   
     2    1    3 1   
     3    2    4 1   
     4    2    8 1   
     5    3   34 1   
     6    4   35 1   
     7    5    6 1   
     8    5   36 1   
     9    6    7 1   
    10    9   10 1   
    11    9   37 1   
    12   10   11 1   
    13   10   12 1   
    14   11   13 1   
    15   11   16 1   
    16   11   38 1   
    17   13   14 1   
    18   13   18 1   
    19   14   15 1   
    20   14   21 1   
    21   15   16 1   
    22   15   39 1   
    23   15   40 1   
    24   16   17 1   
    25   17   26 1   
    26   17   41 1   
    27   17   42 1   
    28   18   43 1   
    29   19   20 1   
    30   19   44 1   
    31   20   45 1   
    32   21   46 1   
    33   22   24 1   
    34   22   28 1   
    35   23   25 1   
    36   23   29 1   
    37   24   47 1   
    38   25   48 1   
    39   26   27 1   
    40   27   49 1   
    41   28   50 1   
    42   28   51 1   
    43   28   52 1   
    44   29   30 1   
    45   30   31 1   
    46   30   53 1   
    47   30   54 1   
    48   31   32 1   
    49   31   33 1   
@<TRIPOS>SUBSTRUCTURE
     1 3OZ         1 TEMP              0 ****  ****    0 ROOT
