@<TRIPOS>MOLECULE
3OZ
   54    53     1     0     0
SMALL
bcc


@<TRIPOS>ATOM
      1 C1          0.4310    0.2630   -0.3180 c2        1 3OZ      0.154000
      2 C2          1.9280    0.5380   -0.2050 c3        1 3OZ     -0.094000
      3 C3         -0.3460    0.4540    0.8250 c2        1 3OZ     -0.312000
      4 C4          2.4480    1.0080    1.0810 c1        1 3OZ     -0.125000
      5 C5          0.2200    0.8760    2.0380 c2        1 3OZ      0.062000
      6 C6          1.5850    1.1010    2.1630 c2        1 3OZ     -0.225000
      7 CL7         2.2100    1.5680    3.6840 cl        1 3OZ     -0.049000
      8 CL8         2.4200    1.6750   -1.4560 cl        1 3OZ     -0.022000
      9 N9         -0.0220   -0.2140   -1.5140 n         1 3OZ     -0.281000
     10 C10        -1.3190   -0.6970   -1.8110 c2        1 3OZ      0.376000
     11 C11        -1.5020   -1.3720   -3.1120 c2        1 3OZ     -0.277000
     12 O12        -2.2230   -0.6570   -0.9460 o         1 3OZ     -0.407000
     13 C13        -0.7140   -1.1890   -4.2310 c2        1 3OZ      0.053000
     14 C14        -6.3320    0.1560    0.2460 c1        1 3OZ     -0.132000
     15 C15        -5.1070   -0.1110    0.5930 c2        1 3OZ     -0.142500
     16 N16        -2.5590   -2.3290   -3.1390 n3        1 3OZ     -0.199000
     17 C17        -3.5800   -2.1890   -4.0370 c2        1 3OZ      0.071000
     18 C18         0.1770   -0.1340   -4.5280 c2        1 3OZ     -0.382000
     19 C19         0.0730    1.1760   -4.1930 c1        1 3OZ     -0.318000
     20 C20        -8.7450    0.6890   -0.4500 c2        1 3OZ     -0.142500
     21 C21        -7.5230    0.4180   -0.0950 c1        1 3OZ     -0.132000
     22 C22        -6.9640   -3.2940   -5.0800 c2        1 3OZ     -0.261000
     23 C23        -7.5850   -4.0280   -3.9700 c2        1 3OZ      0.375000
     24 C24        -5.7170   -2.7680   -5.0510 c2        1 3OZ      0.014000
     25 C25        -7.4630   -3.4250   -2.6270 c2        1 3OZ     -0.533000
     26 C26        -4.7700   -2.8700   -3.9880 c2        1 3OZ     -0.367000
     27 C27        -7.9420   -3.8880   -1.4980 c1        1 3OZ      0.214000
     28 C30        -9.7720   -6.4410   -1.6490 cx        1 3OZ     -0.093000
     29 C31       -10.1750   -7.7420   -1.1550 cu        1 3OZ      0.281000
     30 O32       -10.1920   -8.8790   -0.7490 o         1 3OZ     -0.243000
     31 O33       -11.1810   -6.8340   -1.3990 os        1 3OZ     -0.284000
     32 H3         -1.4360    0.2870    0.7940 ha        1 3OZ      0.176000
     33 H4          2.4790   -0.4270   -0.4210 h1        1 3OZ      0.165000
     34 H5         -0.4600    1.0310    2.8950 ha        1 3OZ      0.133000
     35 HN9         0.6170   -0.1690   -2.2960 hn        1 3OZ      0.284000
     36 H11        -0.7290    1.5170   -3.5240 ha        1 3OZ      0.015000
     37 H15        -4.2690   -0.1070   -0.1260 ha        1 3OZ      0.136750
     38 H15A       -2.7790   -2.7330   -2.2520 hn        1 3OZ      0.218000
     39 H17        -3.3560   -1.5160   -4.8930 h4        1 3OZ      0.145000
     40 H17A       -4.8390   -0.3590    1.6310 ha        1 3OZ      0.136750
     41 H18        -0.8270   -1.9480   -5.0370 ha        1 3OZ      0.097000
     42 H19         0.9610   -0.4070   -5.2600 ha        1 3OZ      0.103000
     43 H20        -9.5780    0.6820    0.2680 ha        1 3OZ      0.136750
     44 H21        -9.0120    0.9380   -1.4870 ha        1 3OZ      0.136750
     45 H24        -5.3730   -2.2160   -5.9490 ha        1 3OZ      0.115000
     46 H25        -6.8990   -2.4630   -2.6080 ha        1 3OZ      0.229000
     47 H27        -5.0050   -3.5340   -3.1440 ha        1 3OZ      0.131000
     48 H28        -8.6620   -2.4720   -6.1040 hc        1 3OZ      0.076333
     49 H28A       -8.2510   -4.1810   -6.5460 hc        1 3OZ      0.076333
     50 H28B       -7.2330   -2.8100   -7.1660 hc        1 3OZ      0.076333
     51 H30        -9.5230   -6.2820   -2.7190 h1        1 3OZ      0.168500
     52 H30A       -9.3880   -5.6610   -0.9600 h1        1 3OZ      0.168500
     53 C28        -7.8170   -3.1820   -6.2890 c3        1 3OZ     -0.156000
     54 O29        -8.2330   -5.0750   -4.1330 o         1 3OZ     -0.348000
@<TRIPOS>BOND
     1    1    2 1   
     2    1    3 1   
     3    1    9 1   
     4    2    4 1   
     5    2    8 1   
     6    2   33 1   
     7    3    5 1   
     8    3   32 1   
     9    4    6 1   
    10    5    6 1   
    11    5   34 1   
    12    6    7 1   
    13    9   10 1   
    14    9   35 1   
    15   10   11 1   
    16   10   12 1   
    17   11   13 1   
    18   11   16 1   
    19   13   18 1   
    20   13   41 1   
    21   14   15 1   
    22   14   21 1   
    23   15   37 1   
    24   15   40 1   
    25   16   17 1   
    26   16   38 1   
    27   17   26 1   
    28   17   39 1   
    29   18   19 1   
    30   18   42 1   
    31   19   36 1   
    32   20   21 1   
    33   20   43 1   
    34   20   44 1   
    35   22   23 1   
    36   22   24 1   
    37   22   53 1   
    38   23   25 1   
    39   23   54 1   
    40   24   26 1   
    41   24   45 1   
    42   25   27 1   
    43   25   46 1   
    44   26   47 1   
    45   28   29 1   
    46   28   31 1   
    47   28   51 1   
    48   28   52 1   
    49   29   30 1   
    50   29   31 1   
    51   48   53 1   
    52   49   53 1   
    53   50   53 1   
@<TRIPOS>SUBSTRUCTURE
     1 3OZ         1 TEMP              0 ****  ****    0 ROOT
