@<TRIPOS>MOLECULE
3OZ
   54    54     1     0     0
SMALL
bcc


@<TRIPOS>ATOM
      1 C1          0.4280   -0.4030    0.3690 c2        1 3OZ      0.138000
      2 C2          1.4960    0.6560    0.1200 c3        1 3OZ     -0.075000
      3 C3          0.7920   -1.5020    1.1560 c2        1 3OZ     -0.315000
      4 C4          2.7790    0.5280    0.8150 c1        1 3OZ     -0.146000
      5 C5          2.0640   -1.6050    1.7300 c2        1 3OZ      0.068000
      6 C6          3.0340   -0.6220    1.5370 c2        1 3OZ     -0.228000
      7 CL7         4.5670   -0.8260    2.2660 cl        1 3OZ     -0.048000
      8 CL8         0.8360    2.2670    0.4410 cl        1 3OZ     -0.078000
      9 N9         -0.7820   -0.2550   -0.2330 n         1 3OZ     -0.303000
     10 C10        -1.8990   -1.1370   -0.2560 c2        1 3OZ      0.120000
     11 C11        -3.9940   -0.1780   -1.7780 c1        1 3OZ     -0.273000
     12 O12        -1.8790   -2.2160    0.3410 o         1 3OZ     -0.347000
     13 C13        -3.9170    1.0660   -2.3080 c2        1 3OZ     -0.080000
     14 C14        -4.9980    1.7390   -3.0550 c2        1 3OZ     -0.002000
     15 C15        -6.0670    2.2630   -2.4380 c2        1 3OZ     -0.218000
     16 N16        -5.0890   -1.0400   -1.9050 n3        1 3OZ     -0.009000
     17 C17        -5.7850   -1.2650   -2.9900 c2        1 3OZ      0.041000
     18 C18        -2.7430    1.8270   -2.1400 c1        1 3OZ     -0.077000
     19 C19        -1.7500    2.4850   -2.0030 c1        1 3OZ     -0.255000
     20 C20        -5.6670    2.2260   -5.4120 c1        1 3OZ      0.177000
     21 C21        -4.8180    1.8130   -4.4980 c2        1 3OZ     -0.446000
     22 C22        -7.2910   -4.4200   -4.4150 cx        1 3OZ     -0.143000
     23 C23        -7.3990   -5.1390   -3.1250 c2        1 3OZ      0.134000
     24 C24        -7.0060   -2.9310   -4.3780 cx        1 3OZ     -0.166000
     25 C25        -7.0690   -4.4810   -1.9090 c2        1 3OZ     -0.297000
     26 C26        -6.8980   -2.2710   -3.0290 c3        1 3OZ     -0.074000
     27 C27        -6.7700   -3.1660   -1.8560 c1        1 3OZ     -0.325000
     28 C30        -7.7060   -7.2900   -2.2260 c2        1 3OZ     -0.505000
     29 C31        -8.5070   -8.4430   -2.3990 c2        1 3OZ      0.368000
     30 O32        -8.6530   -9.3940   -1.6080 o         1 3OZ     -0.415000
     31 O33        -9.2410   -8.6280   -3.5590 oh        1 3OZ     -0.334000
     32 H3          0.0620   -2.3070    1.3470 ha        1 3OZ      0.180000
     33 H4          1.7490    0.6370   -0.9840 h1        1 3OZ      0.163000
     34 H5          2.2760   -2.4880    2.3600 ha        1 3OZ      0.136000
     35 HN9        -0.9360    0.6110   -0.7170 hn        1 3OZ      0.242000
     36 H11        -2.8380   -0.7150   -0.9270 h5        1 3OZ      0.314000
     37 H15        -6.8740    2.7710   -2.9820 ha        1 3OZ      0.121000
     38 H15A       -5.2920   -1.6410   -1.0960 hn        1 3OZ      0.314000
     39 H17        -5.5580   -0.6890   -3.9110 h4        1 3OZ      0.158000
     40 H17A       -6.1870    2.2160   -1.3480 ha        1 3OZ      0.121000
     41 H18        -1.8050    0.6280   -5.6480 ha        1 3OZ      0.001500
     42 H19        -2.0790    0.9050   -6.2010 ha        1 3OZ      0.001500
     43 H20        -0.8760    3.0710   -1.8710 ha        1 3OZ      0.226000
     44 H21        -3.8100    1.4920   -4.8570 ha        1 3OZ      0.206000
     45 H24        -6.3260   -2.5260   -5.1510 hc        1 3OZ      0.112000
     46 H25        -7.0470   -5.0800   -0.9860 ha        1 3OZ      0.153000
     47 H27        -7.8510   -1.6750   -2.8510 hc        1 3OZ      0.137000
     48 H28        -9.2240   -3.2830   -4.1470 hc        1 3OZ      0.115000
     49 H28A       -6.8220   -5.0310   -5.2130 hc        1 3OZ      0.136000
     50 H28B       -8.6340   -3.3660   -5.8810 hc        1 3OZ      0.115000
     51 H30        -9.1020   -7.8790   -4.1490 ho        1 3OZ      0.202000
     52 H30A       -7.1510   -7.0640   -1.3240 h4        1 3OZ      0.172000
     53 C28        -8.3560   -3.4330   -4.8150 cx        1 3OZ     -0.192000
     54 O29        -7.6650   -6.4270   -3.2970 os        1 3OZ     -0.019000
@<TRIPOS>BOND
     1    1    2 1   
     2    1    3 1   
     3    1    9 1   
     4    2    4 1   
     5    2    8 1   
     6    2   33 1   
     7    3    5 1   
     8    3   32 1   
     9    4    6 1   
    10    5    6 1   
    11    5   34 1   
    12    6    7 1   
    13    9   10 1   
    14    9   35 1   
    15   10   12 1   
    16   10   36 1   
    17   11   13 1   
    18   11   16 1   
    19   13   14 1   
    20   13   18 1   
    21   14   15 1   
    22   14   21 1   
    23   15   37 1   
    24   15   40 1   
    25   16   17 1   
    26   16   38 1   
    27   17   26 1   
    28   17   39 1   
    29   18   19 1   
    30   19   43 1   
    31   20   21 1   
    32   21   44 1   
    33   22   23 1   
    34   22   24 1   
    35   22   49 1   
    36   22   53 1   
    37   23   25 1   
    38   23   54 1   
    39   24   26 1   
    40   24   45 1   
    41   24   53 1   
    42   25   27 1   
    43   25   46 1   
    44   26   27 1   
    45   26   47 1   
    46   28   29 1   
    47   28   52 1   
    48   28   54 1   
    49   29   30 1   
    50   29   31 1   
    51   31   51 1   
    52   41   42 1   
    53   48   53 1   
    54   50   53 1   
@<TRIPOS>SUBSTRUCTURE
     1 3OZ         1 TEMP              0 ****  ****    0 ROOT
