@<TRIPOS>MOLECULE
3OZ
   54    56     1     0     0
SMALL
bcc


@<TRIPOS>ATOM
      1 C1         -1.8890    0.5320    0.8300 c2        1 3OZ      0.162000
      2 C2         -0.9200   -0.6470    0.9260 c3        1 3OZ     -0.012000
      3 C3         -1.4550    1.7410    1.4600 c2        1 3OZ     -0.383000
      4 C4          0.4380   -0.3890    1.3970 c1        1 3OZ     -0.213000
      5 C5         -0.1960    1.8760    2.0050 c2        1 3OZ      0.059000
      6 C6          0.7340    0.8160    1.9670 c2        1 3OZ     -0.233000
      7 Cl7         2.2900    1.0980    2.6270 cl        1 3OZ     -0.074000
      8 Cl8        -0.8390   -1.5150   -0.6270 cl        1 3OZ     -0.130000
      9 N9         -3.0440    0.3420    0.2130 n2        1 3OZ     -0.443000
     10 C10        -4.0880    1.2540    0.2440 c2        1 3OZ      0.243000
     11 C11        -3.8680   -1.0270   -3.3000 cx        1 3OZ     -0.110000
     12 O12        -5.0000    1.1820   -0.6030 o         1 3OZ     -0.394000
     13 C13        -3.2160   -0.0030   -4.1650 cx        1 3OZ     -0.065000
     14 C14        -1.7720    0.2860   -3.9030 c2        1 3OZ     -0.060000
     15 C15        -1.0230   -0.9590   -4.1760 c2        1 3OZ     -0.090000
     16 N16        -3.7220   -1.4330   -1.9140 ny        1 3OZ     -0.107000
     17 C17        -5.0990   -1.2360   -2.5030 cx        1 3OZ      0.069000
     18 C18        -3.2680   -1.4920   -4.5870 cx        1 3OZ     -0.090000
     19 C19        -1.8560   -1.9630   -4.5410 c2        1 3OZ     -0.177000
     20 C20        -0.7630    2.5470   -3.1110 c2        1 3OZ     -0.157000
     21 C21        -1.2710    1.4270   -3.5170 c1        1 3OZ     -0.097000
     22 C22        -8.0970   -3.5840   -2.2880 c2        1 3OZ     -0.274000
     23 C23        -7.8260   -4.8040   -2.8690 c2        1 3OZ      0.230000
     24 C24        -7.1430   -2.5350   -2.1190 c2        1 3OZ      0.054000
     25 C25        -6.5020   -5.3120   -3.2070 c2        1 3OZ     -0.232000
     26 C26        -5.9450   -2.4020   -2.7330 c2        1 3OZ     -0.343000
     27 C27        -6.3330   -6.0850   -4.2550 c1        1 3OZ     -0.114000
     28 C30        -6.3820   -6.9520   -5.2140 c2        1 3OZ     -0.153000
     29 C31        -6.9850   -8.3450   -4.9380 c2        1 3OZ      0.373000
     30 O32        -6.4120   -9.3370   -5.4420 o         1 3OZ     -0.534000
     31 O33        -8.0440   -8.3470   -4.2480 o         1 3OZ     -0.534000
     32 H3         -2.1350    2.6040    1.4780 ha        1 3OZ      0.119000
     33 H4         -1.3730   -1.3870    1.6510 h1        1 3OZ      0.153000
     34 H5          0.0880    2.8430    2.4550 ha        1 3OZ      0.119000
     35 HN9        -1.5900   -2.9870   -4.8050 ha        1 3OZ      0.161000
     36 H11        -4.1390    2.0120    1.0660 h5        1 3OZ      0.089000
     37 H15         0.0620   -1.0060   -4.0650 ha        1 3OZ      0.162000
     38 H15A       -3.3720   -0.7430   -1.2080 hn        1 3OZ      0.281500
     39 H17        -3.3890   -2.3700   -1.7320 hn        1 3OZ      0.281500
     40 H17A       -5.6220   -0.3380   -2.0770 hx        1 3OZ      0.194000
     41 H18        -3.8280    0.7950   -4.6120 hc        1 3OZ      0.158000
     42 H19        -3.9260   -1.8970   -5.3700 hc        1 3OZ      0.162000
     43 H20        -0.6350    2.7770   -2.0410 ha        1 3OZ      0.145000
     44 H21        -0.4260    3.3280   -3.8090 ha        1 3OZ      0.145000
     45 H24        -7.4670   -1.7320   -1.4230 ha        1 3OZ      0.115000
     46 H25        -5.6890   -5.0710   -2.5050 ha        1 3OZ      0.144000
     47 H27        -5.5800   -3.1320   -3.4710 ha        1 3OZ      0.152000
     48 H28       -10.0170   -2.6580   -2.5670 hc        1 3OZ      0.071667
     49 H28A       -9.4500   -2.7270   -0.8460 hc        1 3OZ      0.071667
     50 H28B      -10.0590   -4.2270   -1.6640 hc        1 3OZ      0.071667
     51 H30        -6.0720   -6.7690   -6.2500 ha        1 3OZ      0.149000
     52 H30A       -8.5760   -6.5040   -3.4360 ho        1 3OZ      0.297000
     53 C28        -9.4750   -3.2850   -1.8150 c3        1 3OZ     -0.146000
     54 O29        -8.8850   -5.6380   -3.0690 oh        1 3OZ     -0.268000
@<TRIPOS>BOND
     1    1    2 1   
     2    1    3 1   
     3    1    9 1   
     4    2    4 1   
     5    2    8 1   
     6    2   33 1   
     7    3    5 1   
     8    3   32 1   
     9    4    6 1   
    10    5    6 1   
    11    5   34 1   
    12    6    7 1   
    13    9   10 1   
    14   10   12 1   
    15   10   36 1   
    16   11   13 1   
    17   11   16 1   
    18   11   17 1   
    19   11   18 1   
    20   13   14 1   
    21   13   18 1   
    22   13   41 1   
    23   14   15 1   
    24   14   21 1   
    25   15   19 1   
    26   15   37 1   
    27   16   17 1   
    28   16   38 1   
    29   16   39 1   
    30   17   26 1   
    31   17   40 1   
    32   18   19 1   
    33   18   42 1   
    34   19   35 1   
    35   20   21 1   
    36   20   43 1   
    37   20   44 1   
    38   22   23 1   
    39   22   24 1   
    40   22   53 1   
    41   23   25 1   
    42   23   54 1   
    43   24   26 1   
    44   24   45 1   
    45   25   27 1   
    46   25   46 1   
    47   26   47 1   
    48   27   28 1   
    49   28   29 1   
    50   28   51 1   
    51   29   30 1   
    52   29   31 1   
    53   48   53 1   
    54   49   53 1   
    55   50   53 1   
    56   52   54 1   
@<TRIPOS>SUBSTRUCTURE
     1 3OZ         1 TEMP              0 ****  ****    0 ROOT
