@<TRIPOS>MOLECULE
3P0
   85    90     1     0     0
SMALL
bcc


@<TRIPOS>ATOM
      1 C1         -0.0390    0.0380    0.1240 c2        1 3P0     -0.077000
      2 C2          1.3250   -0.0090   -0.0230 c2        1 3P0     -0.085000
      3 C3          2.1820   -0.1210    1.1160 c2        1 3P0     -0.149000
      4 C4          1.6210   -0.2100    2.3680 c2        1 3P0      0.011000
      5 C5         -0.6410   -0.0470    1.4810 c2        1 3P0      0.337000
      6 N6          0.2580   -0.1900    2.5660 n         1 3P0     -0.236000
      7 N7         -0.9260    0.2790   -0.9630 nh        1 3P0     -0.175000
      8 C8          3.6350   -0.1760    0.9390 ca        1 3P0     -0.010000
      9 C9          4.2660   -1.4230    1.0280 ca        1 3P0     -0.117000
     10 C10         5.6440   -1.5270    0.8620 ca        1 3P0     -0.126000
     11 C11         6.4080   -0.3940    0.6060 ca        1 3P0     -0.120000
     12 C12         5.7920    0.8720    0.5150 ca        1 3P0      0.076000
     13 C13         4.3910    0.9800    0.6810 ca        1 3P0     -0.050000
     14 N14         6.6170    2.0080    0.2720 n         1 3P0     -0.293000
     15 C15         7.2100    2.6300    1.4370 c3        1 3P0     -0.017000
     16 C16         8.4880    3.4060    1.1240 c3        1 3P0     -0.144000
     17 C17         6.5800    2.6820   -0.9480 c2        1 3P0      0.355000
     18 C18         7.4070    3.9160   -1.0690 ca        1 3P0     -0.154000
     19 C19         8.3300    4.2730   -0.0740 ca        1 3P0     -0.004000
     20 C20         9.1120    5.4190   -0.2120 ca        1 3P0     -0.154000
     21 C21         8.9940    6.2340   -1.3470 ca        1 3P0     -0.020000
     22 C22         8.0780    5.8990   -2.3400 ca        1 3P0     -0.182000
     23 C23         7.2810    4.7420   -2.2070 ca        1 3P0      0.158000
     24 O24         5.9160    2.2480   -1.9070 o         1 3P0     -0.339000
     25 C25         3.7120    2.3080    0.5470 c3        1 3P0      0.005000
     26 O26         4.1440    3.1490    1.6130 oh        1 3P0     -0.335000
     27 C27        -0.2460   -0.2560    3.9160 c3        1 3P0     -0.093000
     28 O28        -1.8610   -0.0050    1.7320 o         1 3P0     -0.356000
     29 C29        -1.7000   -0.8620   -1.3900 c2        1 3P0     -0.008000
     30 C30        -2.9680   -1.0880   -0.7970 c2        1 3P0     -0.102000
     31 C31        -3.7550   -2.1400   -1.2480 c2        1 3P0     -0.147000
     32 C32        -3.2970   -2.9760   -2.2940 c2        1 3P0      0.029000
     33 C33        -2.0000   -2.6710   -2.8130 c2        1 3P0     -0.133000
     34 N34        -1.2290   -1.6660   -2.3890 n2        1 3P0     -0.151000
     35 N35        -4.1140   -3.9840   -2.8310 nh        1 3P0     -0.252000
     36 C36        -4.8670   -4.8150   -1.8710 c3        1 3P0      0.076000
     37 C37        -5.7720   -5.7850   -2.5070 c2        1 3P0     -0.729000
     38 N38        -5.2600   -6.5540   -3.5910 n4        1 3P0      0.179000
     39 C39        -4.5820   -5.6730   -4.6080 c3        1 3P0     -0.179000
     40 C40        -3.5610   -4.7320   -3.9420 c3        1 3P0     -0.041000
     41 C41         9.8430    7.4780   -1.4470 c3        1 3P0      0.082000
     42 C42        11.2000    7.1780   -0.9880 c1        1 3P0     -0.138000
     43 C43         9.9340    8.0110   -2.8770 c3        1 3P0     -0.208500
     44 C44         9.2430    8.5620   -0.5460 c3        1 3P0     -0.208500
     45 N45        12.2840    6.9540   -0.6320 n1        1 3P0     -0.041000
     46 C46        -6.2970   -7.3880   -4.2340 c3        1 3P0     -0.167000
     47 F47         6.3980    4.4520   -3.1850 f         1 3P0     -0.073000
     48 H1          1.7980    0.0450   -1.0180 ha        1 3P0      0.155000
     49 H2          2.2440   -0.3000    3.2780 h4        1 3P0      0.159000
     50 H3         -0.4070    0.6580   -1.7410 hn        1 3P0      0.184000
     51 H4          3.6640   -2.3230    1.2220 ha        1 3P0      0.140000
     52 H5          6.1320   -2.5110    0.9260 ha        1 3P0      0.136000
     53 H6          7.4960   -0.4900    0.4690 ha        1 3P0      0.142000
     54 H7          7.4510    1.8210    2.1840 h1        1 3P0      0.101000
     55 H8          6.4540    3.3250    1.9110 h1        1 3P0      0.101000
     56 H9          9.3380    2.6940    0.9400 hc        1 3P0      0.108000
     57 H10         8.7520    4.0220    2.0240 hc        1 3P0      0.108000
     58 H11         9.8310    5.6830    0.5790 ha        1 3P0      0.148000
     59 H12         7.9530    6.5140   -3.2430 ha        1 3P0      0.157000
     60 H13         2.5940    2.1950    0.5880 h1        1 3P0      0.088000
     61 H14         3.9910    2.7770   -0.4390 h1        1 3P0      0.088000
     62 H15         3.6210    3.9560    1.5440 ho        1 3P0      0.201000
     63 H16        -0.0500    0.7140    4.4460 h1        1 3P0      0.098667
     64 H17         0.2620   -1.0880    4.4710 h1        1 3P0      0.098667
     65 H18        -1.3530   -0.4450    3.8980 h1        1 3P0      0.098667
     66 H19        -3.3170   -0.4380    0.0230 ha        1 3P0      0.179000
     67 H20        -4.7410   -2.3030   -0.7860 ha        1 3P0      0.147000
     68 H21        -1.5460   -3.2730   -3.6200 h4        1 3P0      0.149000
     69 H22        -5.4890   -4.1370   -1.2230 h1        1 3P0      0.063500
     70 H23        -4.1170   -5.3400   -1.2030 h1        1 3P0      0.063500
     71 H24        -4.5310   -7.1750   -3.2170 hn        1 3P0      0.196000
     72 H25        -6.8490   -5.6350   -2.4780 hx        1 3P0      0.140000
     73 H27        -5.3800   -5.0660   -5.1140 hx        1 3P0      0.107000
     74 H28        -4.0510   -6.3010   -5.3730 hx        1 3P0      0.107000
     75 H29        -2.6660   -5.3460   -3.6240 h1        1 3P0      0.077500
     76 H30        -3.2200   -4.0110   -4.7390 h1        1 3P0      0.077500
     77 H31         8.9470    8.4230   -3.1940 hc        1 3P0      0.091667
     78 H32        10.6900    8.8320   -2.9280 hc        1 3P0      0.091667
     79 H33        10.2370    7.1990   -3.5800 hc        1 3P0      0.091667
     80 H34         8.2070    8.7990   -0.8870 hc        1 3P0      0.091667
     81 H35         9.8620    9.4880   -0.5980 hc        1 3P0      0.091667
     82 H36         9.2040    8.2090    0.5120 hc        1 3P0      0.091667
     83 H37        -7.0930   -6.7270   -4.6650 hx        1 3P0      0.112333
     84 H38        -5.8340   -8.0040   -5.0470 hx        1 3P0      0.112333
     85 H39        -6.7560   -8.0550   -3.4570 hx        1 3P0      0.112333
@<TRIPOS>BOND
     1    1    2 1   
     2    1    5 1   
     3    1    7 1   
     4    2    3 1   
     5    2   48 1   
     6    3    4 1   
     7    3    8 1   
     8    4    6 1   
     9    4   49 1   
    10    5    6 1   
    11    5   28 1   
    12    6   27 1   
    13    7   29 1   
    14    7   50 1   
    15    8    9 1   
    16    8   13 1   
    17    9   10 1   
    18    9   51 1   
    19   10   11 1   
    20   10   52 1   
    21   11   12 1   
    22   11   53 1   
    23   12   13 1   
    24   12   14 1   
    25   13   25 1   
    26   14   15 1   
    27   14   17 1   
    28   15   16 1   
    29   15   54 1   
    30   15   55 1   
    31   16   19 1   
    32   16   56 1   
    33   16   57 1   
    34   17   18 1   
    35   17   24 1   
    36   18   19 1   
    37   18   23 1   
    38   19   20 1   
    39   20   21 1   
    40   20   58 1   
    41   21   22 1   
    42   21   41 1   
    43   22   23 1   
    44   22   59 1   
    45   23   47 1   
    46   25   26 1   
    47   25   60 1   
    48   25   61 1   
    49   26   62 1   
    50   27   63 1   
    51   27   64 1   
    52   27   65 1   
    53   29   30 1   
    54   29   34 1   
    55   30   31 1   
    56   30   66 1   
    57   31   32 1   
    58   31   67 1   
    59   32   33 1   
    60   32   35 1   
    61   33   34 1   
    62   33   68 1   
    63   35   36 1   
    64   35   40 1   
    65   36   37 1   
    66   36   69 1   
    67   36   70 1   
    68   37   38 1   
    69   37   72 1   
    70   38   39 1   
    71   38   46 1   
    72   38   71 1   
    73   39   40 1   
    74   39   73 1   
    75   39   74 1   
    76   40   75 1   
    77   40   76 1   
    78   41   42 1   
    79   41   43 1   
    80   41   44 1   
    81   42   45 1   
    82   43   77 1   
    83   43   78 1   
    84   43   79 1   
    85   44   80 1   
    86   44   81 1   
    87   44   82 1   
    88   46   83 1   
    89   46   84 1   
    90   46   85 1   
@<TRIPOS>SUBSTRUCTURE
     1 3P0         1 TEMP              0 ****  ****    0 ROOT
