@<TRIPOS>MOLECULE
3P1
   52    47     1     0     0
SMALL
bcc


@<TRIPOS>ATOM
      1 N1         -1.3190   -0.9510   -5.6910 n1        1 3P1     -0.261000
      2 C2          0.0380   -1.0410   -5.6640 c1        1 3P1      0.015000
      3 N3          0.7020   -1.0420   -4.4680 n1        1 3P1     -0.229000
      4 C4         -2.0080   -0.8630   -4.5490 c1        1 3P1      0.227000
      5 N5          0.4060   -0.8860   -1.9960 n2        1 3P1     -0.186500
      6 C6         -0.7040   -0.7550   -1.2310 c1        1 3P1      0.121000
      7 N7         -1.7860   -0.7420   -2.0590 n2        1 3P1     -0.186500
      8 C8         -1.3420   -0.8640   -3.3400 c1        1 3P1     -0.073000
      9 C9          0.0080   -0.9540   -3.3100 c1        1 3P1     -0.073000
     10 C10         1.6200   -0.6630   -1.2420 c2        1 3P1      0.150000
     11 O11         2.1490    0.8240   -1.4910 os        1 3P1     -0.287000
     12 C12         3.4310    0.8020   -1.2340 c3        1 3P1     -0.049000
     13 C13         3.8720   -0.6410   -1.5080 c3        1 3P1     -0.026000
     14 C14         2.5570   -1.4570   -1.6580 c3        1 3P1      0.029000
     15 N15        -3.4190   -1.0280   -4.8860 n3        1 3P1     -0.354000
     16 N16        -0.9840   -0.5230    0.1690 n2        1 3P1     -0.248000
     17 C17        -2.2490   -0.0620    0.5640 c3        1 3P1     -0.001000
     18 C18        -2.3060    0.0410    2.1640 c2        1 3P1     -0.007000
     19 N19        -1.7690    1.1460    2.8000 n2        1 3P1     -0.140000
     20 C20        -3.1950   -0.7600    4.2570 c1        1 3P1     -0.093500
     21 C21        -3.0270   -0.9210    2.9050 c1        1 3P1     -0.173000
     22 C22        -2.6500    0.3600    4.9030 c1        1 3P1     -0.081000
     23 C23        -1.9370    1.3120    4.1670 c1        1 3P1      0.009000
     24 C24        -1.3550    2.4510    4.8350 c1        1 3P1     -0.100000
     25 C25        -1.5040    2.6020    6.2190 c1        1 3P1     -0.123000
     26 C26        -2.2260    1.6380    6.9610 c1        1 3P1     -0.123000
     27 C27        -2.8010    0.5140    6.3020 c1        1 3P1     -0.093500
     28 C28         4.1710    1.7660   -2.1650 c3        1 3P1     -0.034000
     29 O29         3.9700    3.1020   -1.7140 oh        1 3P1     -0.322000
     30 O30         4.6070   -1.1110   -0.4690 oh        1 3P1     -0.329000
     31 O31         2.6100   -2.6740   -0.8180 oh        1 3P1     -0.322000
     32 H2          0.5200   -1.1020   -6.4710 ha        1 3P1      0.187000
     33 H10         1.4470   -0.8140   -0.2370 h4        1 3P1      0.169000
     34 H12         3.5990    1.0390   -0.2850 h1        1 3P1      0.129000
     35 H13         4.3800   -0.6830   -2.3180 h1        1 3P1      0.119000
     36 H14         2.4090   -1.7000   -2.6140 h1        1 3P1      0.134000
     37 HN15       -3.8740   -0.3470   -5.3540 hn        1 3P1      0.241000
     38 HN1A       -3.8880   -1.7580   -4.5600 hn        1 3P1      0.241000
     39 HN16       -0.3510   -0.7530    0.8130 hn        1 3P1      0.223000
     40 H17        -2.9240   -0.6740    0.2590 h1        1 3P1      0.107500
     41 H17A       -2.4100    0.8200    0.1740 h1        1 3P1      0.107500
     42 H20        -3.6890   -1.4190    4.7650 ha        1 3P1      0.138000
     43 H21        -3.3320   -1.7430    2.4700 ha        1 3P1      0.148000
     44 H24        -0.8340    3.1440    4.3000 ha        1 3P1      0.151000
     45 H25        -1.0940    3.4040    6.6900 ha        1 3P1      0.136500
     46 H26        -2.3320    1.7450    7.9360 ha        1 3P1      0.136500
     47 H27        -3.3270   -0.1870    6.8430 ha        1 3P1      0.138000
     48 H28         5.0810    1.5690   -2.1570 h1        1 3P1      0.095500
     49 H28A        3.8150    1.6700   -3.1020 h1        1 3P1      0.095500
     50 HO29        4.6800    3.6070   -1.9400 ho        1 3P1      0.212000
     51 HO30        5.5060   -1.1090   -0.6990 ho        1 3P1      0.218000
     52 HO31        3.0550   -3.3280   -1.2660 ho        1 3P1      0.234000
@<TRIPOS>BOND
     1    1    4 1   
     2    2    3 1   
     3    2   32 1   
     4    4   15 1   
     5    5    6 1   
     6    5    9 1   
     7    6    7 1   
     8    7    8 1   
     9    8    9 1   
    10   10   11 1   
    11   10   14 1   
    12   10   33 1   
    13   11   12 1   
    14   12   13 1   
    15   12   28 1   
    16   12   34 1   
    17   13   14 1   
    18   13   30 1   
    19   13   35 1   
    20   14   31 1   
    21   14   36 1   
    22   15   37 1   
    23   15   38 1   
    24   16   17 1   
    25   16   39 1   
    26   17   18 1   
    27   17   40 1   
    28   17   41 1   
    29   18   19 1   
    30   18   21 1   
    31   19   23 1   
    32   20   22 1   
    33   20   42 1   
    34   21   43 1   
    35   22   27 1   
    36   23   24 1   
    37   24   44 1   
    38   25   26 1   
    39   25   45 1   
    40   26   46 1   
    41   27   47 1   
    42   28   29 1   
    43   28   48 1   
    44   28   49 1   
    45   29   50 1   
    46   30   51 1   
    47   31   52 1   
@<TRIPOS>SUBSTRUCTURE
     1 3P1         1 TEMP              0 ****  ****    0 ROOT
