@<TRIPOS>MOLECULE
3P1
   52    56     1     0     0
SMALL
bcc


@<TRIPOS>ATOM
      1 N1          0.0280   -1.2600    0.9480 nb        1 3P1     -0.789000
      2 C2          1.1970   -1.8200    1.3530 ca        1 3P1      0.681900
      3 N3          2.0000   -1.5070    2.3980 nb        1 3P1     -0.758000
      4 C4         -0.4600   -0.2090    1.6900 ca        1 3P1      0.750200
      5 N5          2.0270    0.1450    4.3040 na        1 3P1     -0.289000
      6 C6          1.1300    1.2510    4.5840 cc        1 3P1      0.590700
      7 N7          0.0760    1.2940    3.7240 nd        1 3P1     -0.559100
      8 C8          0.2930    0.2450    2.8250 ca        1 3P1     -0.210200
      9 C9          1.5250   -0.4610    3.1410 ca        1 3P1      0.459800
     10 C10         3.2730   -0.0900    4.9860 c3        1 3P1      0.208800
     11 O11         4.2950    0.8140    4.5340 os        1 3P1     -0.436600
     12 C12         5.2510    0.1410    3.6990 c3        1 3P1      0.092100
     13 C13         5.0440   -1.3740    3.8710 c3        1 3P1      0.087100
     14 C14         3.8590   -1.5290    4.8530 c3        1 3P1      0.095100
     15 N15        -1.6630    0.3740    1.3790 nv        1 3P1     -0.951500
     16 N16         1.3790    2.2130    5.5950 nu        1 3P1     -0.729200
     17 C17         0.3520    2.3510    6.6020 c3        1 3P1      0.121500
     18 C18         0.2470    1.2720    7.6660 ca        1 3P1      0.387600
     19 N19         1.1300    0.2830    7.7110 nb        1 3P1     -0.686000
     20 C20        -0.9850    0.4550    9.5770 ca        1 3P1     -0.071000
     21 C21        -0.8430    1.3990    8.5940 ca        1 3P1     -0.245300
     22 C22        -0.0610   -0.6260    9.6550 ca        1 3P1     -0.148300
     23 C23         0.9910   -0.6800    8.6890 ca        1 3P1      0.405600
     24 C24         1.9190   -1.7710    8.7460 ca        1 3P1     -0.170300
     25 C25         1.7910   -2.7310    9.7190 ca        1 3P1     -0.119000
     26 C26         0.7520   -2.6660   10.6760 ca        1 3P1     -0.125000
     27 C27        -0.1570   -1.6360   10.6450 ca        1 3P1     -0.111000
     28 C28         5.0730    0.5940    2.2520 c3        1 3P1      0.119400
     29 O29         5.3200    1.9770    2.1220 oh        1 3P1     -0.593800
     30 O30         6.2310   -1.8970    4.4420 oh        1 3P1     -0.595800
     31 O31         4.2930   -1.9840    6.1150 oh        1 3P1     -0.591800
     32 H2          1.5480   -2.6660    0.7230 h5        1 3P1      0.050100
     33 H10         3.1310    0.1570    6.0830 h2        1 3P1      0.120700
     34 H12         6.2570    0.4640    4.0880 h1        1 3P1      0.102700
     35 H13         4.8240   -1.8770    2.8940 h1        1 3P1      0.083700
     36 H14         3.1100   -2.2940    4.5220 h1        1 3P1      0.128700
     37 HN15       -1.9060    1.2170    1.8390 hn        1 3P1      0.444300
     38 HN1A       -2.1220    0.1410    0.5330 hn        1 3P1      0.444300
     39 HN16        2.2970    2.1150    5.9910 hn        1 3P1      0.408800
     40 H17        -0.6530    2.4320    6.0970 h1        1 3P1      0.085700
     41 H17A        0.5640    3.3250    7.1340 h1        1 3P1      0.085700
     42 H20        -1.8030    0.5120   10.3120 ha        1 3P1      0.141000
     43 H21        -1.5360    2.2440    8.4940 ha        1 3P1      0.146000
     44 H24         2.7250   -1.8300    7.9930 ha        1 3P1      0.162000
     45 H25         2.5020   -3.5710    9.7620 ha        1 3P1      0.139000
     46 H26         0.6810   -3.4520   11.4430 ha        1 3P1      0.136000
     47 H27        -0.9720   -1.5780   11.3820 ha        1 3P1      0.135000
     48 H28         4.0400    0.3470    1.8880 h1        1 3P1      0.059200
     49 H28A        5.8400    0.0970    1.5990 h1        1 3P1      0.059200
     50 HO29        4.7130    2.4310    2.7220 ho        1 3P1      0.412000
     51 HO30        6.0630   -2.8300    4.6270 ho        1 3P1      0.418000
     52 HO31        5.0550   -1.4470    6.3780 ho        1 3P1      0.419000
@<TRIPOS>BOND
     1    1    2 ar  
     2    1    4 ar  
     3    2    3 ar  
     4    2   32 1   
     5    3    9 ar  
     6    4    8 ar  
     7    4   15 1   
     8    5    6 1   
     9    5    9 1   
    10    5   10 1   
    11    6    7 2   
    12    6   16 1   
    13    7    8 1   
    14    8    9 ar  
    15   10   11 1   
    16   10   14 1   
    17   10   33 1   
    18   11   12 1   
    19   12   13 1   
    20   12   28 1   
    21   12   34 1   
    22   13   14 1   
    23   13   30 1   
    24   13   35 1   
    25   14   31 1   
    26   14   36 1   
    27   15   37 1   
    28   15   38 1   
    29   16   17 1   
    30   16   39 1   
    31   17   18 1   
    32   17   40 1   
    33   17   41 1   
    34   18   19 ar  
    35   18   21 ar  
    36   19   23 ar  
    37   20   21 ar  
    38   20   22 ar  
    39   20   42 1   
    40   21   43 1   
    41   22   23 ar  
    42   22   27 ar  
    43   23   24 ar  
    44   24   25 ar  
    45   24   44 1   
    46   25   26 ar  
    47   25   45 1   
    48   26   27 ar  
    49   26   46 1   
    50   27   47 1   
    51   28   29 1   
    52   28   48 1   
    53   28   49 1   
    54   29   50 1   
    55   30   51 1   
    56   31   52 1   
@<TRIPOS>SUBSTRUCTURE
     1 3P1         1 TEMP              0 ****  ****    0 ROOT
