@<TRIPOS>MOLECULE
3P1
   52    56     1     0     0
SMALL
bcc


@<TRIPOS>ATOM
      1 N1          0.5130   -0.0230   -0.0990 nb        1 3P1     -0.782000
      2 C2          1.7020   -0.6550    0.0720 ca        1 3P1      0.675900
      3 N3          2.3770   -0.9500    1.2090 nb        1 3P1     -0.753000
      4 C4         -0.1510    0.3940    1.0320 ca        1 3P1      0.741200
      5 N5          2.0610   -0.6930    3.7000 na        1 3P1     -0.291000
      6 C6          1.0260    0.0230    4.4260 cc        1 3P1      0.606700
      7 N7          0.0420    0.4960    3.6080 nd        1 3P1     -0.597100
      8 C8          0.4540    0.1630    2.3120 ca        1 3P1     -0.196200
      9 C9          1.7290   -0.5360    2.3380 ca        1 3P1      0.453800
     10 C10         3.3210   -1.0980    4.2710 c3        1 3P1      0.208800
     11 O11         4.1870    0.0260    4.4900 os        1 3P1     -0.424600
     12 C12         5.2580    0.0430    3.5360 c3        1 3P1      0.054100
     13 C13         5.2900   -1.3240    2.8260 c3        1 3P1      0.085100
     14 C14         4.1350   -2.1460    3.4410 c3        1 3P1      0.142100
     15 N15        -1.3890    0.9840    0.9460 nh        1 3P1     -0.951500
     16 N16         1.1050    0.2490    5.8110 nh        1 3P1     -0.758200
     17 C17        -0.1600    0.4780    6.4840 c3        1 3P1      0.141500
     18 C18        -0.0930    0.3430    7.9940 ca        1 3P1      0.413600
     19 N19         0.5720   -0.6650    8.5460 nb        1 3P1     -0.672000
     20 C20        -0.8340    1.2180   10.1210 ca        1 3P1     -0.074000
     21 C21        -0.8200    1.3210    8.7550 ca        1 3P1     -0.239300
     22 C22        -0.1320    0.1530   10.7540 ca        1 3P1     -0.147300
     23 C23         0.5670   -0.7760    9.9220 ca        1 3P1      0.403600
     24 C24         1.2780   -1.8500   10.5500 ca        1 3P1     -0.166300
     25 C25         1.2780   -1.9730   11.9170 ca        1 3P1     -0.120000
     26 C26         0.5820   -1.0480   12.7320 ca        1 3P1     -0.124000
     27 C27        -0.1080   -0.0070   12.1620 ca        1 3P1     -0.110000
     28 C28         5.0540    1.2090    2.5690 c3        1 3P1      0.118400
     29 O29         5.1550    2.4450    3.2420 oh        1 3P1     -0.595800
     30 O30         6.4950   -2.0120    3.1100 oh        1 3P1     -0.593800
     31 O31         4.5610   -3.1740    4.3010 oh        1 3P1     -0.574800
     32 H2          2.1980   -0.9750   -0.8700 h5        1 3P1      0.050100
     33 H10         3.1200   -1.5180    5.3030 h2        1 3P1      0.102700
     34 H12         6.1890    0.2090    4.1470 h1        1 3P1      0.089700
     35 H13         5.1460   -1.2140    1.7190 h1        1 3P1      0.083700
     36 H14         3.5230   -2.6690    2.6580 h1        1 3P1      0.127700
     37 HN15       -1.7440    1.2540    0.0620 hn        1 3P1      0.442300
     38 HN1A       -1.7560    1.4140    1.7600 hn        1 3P1      0.442300
     39 HN16        1.7280   -0.3710    6.2910 hn        1 3P1      0.425800
     40 H17        -0.9680   -0.2260    6.1220 h1        1 3P1      0.071200
     41 H17A       -0.4800    1.5300    6.2260 h1        1 3P1      0.071200
     42 H20        -1.3770    1.9450   10.7450 ha        1 3P1      0.142000
     43 H21        -1.3450    2.1320    8.2310 ha        1 3P1      0.149000
     44 H24         1.8200   -2.5730    9.9190 ha        1 3P1      0.151000
     45 H25         1.8240   -2.7990   12.3980 ha        1 3P1      0.138000
     46 H26         0.6040   -1.1760   13.8240 ha        1 3P1      0.137000
     47 H27        -0.6530    0.7190   12.7850 ha        1 3P1      0.136000
     48 H28         4.0590    1.1230    2.0590 h1        1 3P1      0.056200
     49 H28A        5.8760    1.2240    1.8050 h1        1 3P1      0.056200
     50 HO29        4.4910    2.4400    3.9440 ho        1 3P1      0.416000
     51 HO30        7.1940   -1.5660    2.6170 ho        1 3P1      0.416000
     52 HO31        5.3420   -2.8690    4.7820 ho        1 3P1      0.422000
@<TRIPOS>BOND
     1    1    2 ar  
     2    1    4 ar  
     3    2    3 ar  
     4    2   32 1   
     5    3    9 ar  
     6    4    8 ar  
     7    4   15 1   
     8    5    6 1   
     9    5    9 1   
    10    5   10 1   
    11    6    7 2   
    12    6   16 1   
    13    7    8 1   
    14    8    9 ar  
    15   10   11 1   
    16   10   14 1   
    17   10   33 1   
    18   11   12 1   
    19   12   13 1   
    20   12   28 1   
    21   12   34 1   
    22   13   14 1   
    23   13   30 1   
    24   13   35 1   
    25   14   31 1   
    26   14   36 1   
    27   15   37 1   
    28   15   38 1   
    29   16   17 1   
    30   16   39 1   
    31   17   18 1   
    32   17   40 1   
    33   17   41 1   
    34   18   19 ar  
    35   18   21 ar  
    36   19   23 ar  
    37   20   21 ar  
    38   20   22 ar  
    39   20   42 1   
    40   21   43 1   
    41   22   23 ar  
    42   22   27 ar  
    43   23   24 ar  
    44   24   25 ar  
    45   24   44 1   
    46   25   26 ar  
    47   25   45 1   
    48   26   27 ar  
    49   26   46 1   
    50   27   47 1   
    51   28   29 1   
    52   28   48 1   
    53   28   49 1   
    54   29   50 1   
    55   30   51 1   
    56   31   52 1   
@<TRIPOS>SUBSTRUCTURE
     1 3P1         1 TEMP              0 ****  ****    0 ROOT
