@<TRIPOS>MOLECULE
3P1
   54    58     1     0     0
SMALL
bcc


@<TRIPOS>ATOM
      1 N1          0.0210    0.4720   -0.1190 nb        1 3P1     -0.651000
      2 C2          1.3700    0.7420   -0.0090 ca        1 3P1      0.701900
      3 N3          2.1500    0.6680    1.0870 nb        1 3P1     -0.561000
      4 C4         -0.6210    0.0810    0.9920 ca        1 3P1      0.568200
      5 N5          1.9370    0.0930    3.5310 na        1 3P1     -0.226000
      6 C6          0.7950   -0.3410    4.2630 cc        1 3P1      0.482700
      7 N7         -0.3450   -0.4300    3.5130 nd        1 3P1     -0.513100
      8 C8          0.0520   -0.0480    2.2370 ca        1 3P1     -0.177200
      9 C9          1.4900    0.2800    2.2190 ca        1 3P1      0.487800
     10 C10         3.2550    0.3510    4.1250 c3        1 3P1      0.205800
     11 O11         4.0570    1.1440    3.2760 os        1 3P1     -0.351600
     12 C12         5.3560    0.5370    3.0700 c3        1 3P1      0.064100
     13 C13         5.4940   -0.6260    4.0730 c3        1 3P1      0.101100
     14 C14         4.0380   -0.9650    4.4630 c3        1 3P1      0.105100
     15 N15        -2.0640   -0.2250    0.9220 n4        1 3P1     -0.825300
     16 N16         0.8450   -0.6630    5.6920 n4        1 3P1     -0.696000
     17 C17         0.3450    0.4880    6.5280 c3        1 3P1      0.083500
     18 C18         0.3940    0.1840    8.0070 ca        1 3P1      0.336600
     19 N19         0.2850   -1.0790    8.4180 nb        1 3P1     -0.694000
     20 C20         0.4900    1.0760   10.2370 ca        1 3P1     -0.035000
     21 C21         0.5060    1.3070    8.8790 ca        1 3P1     -0.244300
     22 C22         0.3750   -0.2530   10.7240 ca        1 3P1     -0.123300
     23 C23         0.2780   -1.3220    9.7710 ca        1 3P1      0.405600
     24 C24         0.1650   -2.6660   10.2580 ca        1 3P1     -0.177300
     25 C25         0.1470   -2.9080   11.6080 ca        1 3P1     -0.087000
     26 C26         0.2420   -1.8470   12.5440 ca        1 3P1     -0.088000
     27 C27         0.3550   -0.5480   12.1120 ca        1 3P1     -0.109000
     28 C28         5.4990    0.0670    1.6230 c3        1 3P1      0.122400
     29 O29         5.1990    1.0880    0.7040 oh        1 3P1     -0.569800
     30 O30         6.1440   -0.1930    5.2490 oh        1 3P1     -0.601800
     31 O31         3.8030   -1.2780    5.8110 oh        1 3P1     -0.628800
     32 H2          1.8710    1.0620   -0.9590 h5        1 3P1      0.128100
     33 H10         3.0610    0.9670    5.0590 h2        1 3P1      0.097700
     34 H12         6.0790    1.3700    3.3000 h1        1 3P1      0.119700
     35 H13         6.0060   -1.5120    3.6130 h1        1 3P1      0.098700
     36 H14         3.6750   -1.8470    3.8670 h1        1 3P1      0.101700
     37 HN15       -2.2160   -1.1900    1.2450 hn        1 3P1      0.488133
     38 HN1A       -2.5720    0.4250    1.5360 hn        1 3P1      0.488133
     39 HN16        1.8140   -0.9090    5.9830 hn        1 3P1      0.506800
     40 H17        -0.7210    0.7000    6.2230 hx        1 3P1      0.115200
     41 H17A        0.9880    1.3870    6.3010 hx        1 3P1      0.115200
     42 H20         0.5670    1.9100   10.9540 ha        1 3P1      0.171000
     43 H21         0.5920    2.3240    8.4720 ha        1 3P1      0.155000
     44 H24         0.0870   -3.4960    9.5380 ha        1 3P1      0.154000
     45 H25         0.0570   -3.9410   11.9850 ha        1 3P1      0.163000
     46 H26         0.2240   -2.0810   13.6210 ha        1 3P1      0.166000
     47 H27         0.4280    0.2830   12.8320 ha        1 3P1      0.160000
     48 H28         4.7590   -0.7470    1.3950 h1        1 3P1      0.061700
     49 H28A        6.5450   -0.3190    1.4760 h1        1 3P1      0.061700
     50 HO29        5.8830    1.7670    0.7830 ho        1 3P1      0.417000
     51 HO30        7.0750   -0.4510    5.1940 ho        1 3P1      0.453000
     52 HO31        4.5540   -0.9820    6.3540 ho        1 3P1      0.476000
     53 H153       -2.4180   -0.1280   -0.0440 hn        1 3P1      0.488133
     54 H162        0.2450   -1.4920    5.8650 hn        1 3P1      0.506800
@<TRIPOS>BOND
     1    1    2 ar  
     2    1    4 ar  
     3    2    3 ar  
     4    2   32 1   
     5    3    9 ar  
     6    4    8 ar  
     7    4   15 1   
     8    5    6 1   
     9    5    9 1   
    10    5   10 1   
    11    6    7 2   
    12    6   16 1   
    13    7    8 1   
    14    8    9 ar  
    15   10   11 1   
    16   10   14 1   
    17   10   33 1   
    18   11   12 1   
    19   12   13 1   
    20   12   28 1   
    21   12   34 1   
    22   13   14 1   
    23   13   30 1   
    24   13   35 1   
    25   14   31 1   
    26   14   36 1   
    27   15   37 1   
    28   15   38 1   
    29   15   53 1   
    30   16   17 1   
    31   16   39 1   
    32   16   54 1   
    33   17   18 1   
    34   17   40 1   
    35   17   41 1   
    36   18   19 ar  
    37   18   21 ar  
    38   19   23 ar  
    39   20   21 ar  
    40   20   22 ar  
    41   20   42 1   
    42   21   43 1   
    43   22   23 ar  
    44   22   27 ar  
    45   23   24 ar  
    46   24   25 ar  
    47   24   44 1   
    48   25   26 ar  
    49   25   45 1   
    50   26   27 ar  
    51   26   46 1   
    52   27   47 1   
    53   28   29 1   
    54   28   48 1   
    55   28   49 1   
    56   29   50 1   
    57   30   51 1   
    58   31   52 1   
@<TRIPOS>SUBSTRUCTURE
     1 3P1         1 TEMP              0 ****  ****    0 ROOT
