@<TRIPOS>MOLECULE
3P1
   52    56     1     0     0
SMALL
bcc


@<TRIPOS>ATOM
      1 N1         -4.7480    2.6920    0.4110 nb        1 3P1     -0.782000
      2 C2         -4.8780    1.4400    0.9190 ca        1 3P1      0.673900
      3 N3         -3.9600    0.4530    1.0510 nb        1 3P1     -0.752000
      4 C4         -3.5040    3.0630   -0.0460 ca        1 3P1      0.740200
      5 N5         -1.5040    0.0990    0.5970 na        1 3P1     -0.290000
      6 C6         -0.5590    0.9730   -0.0760 cc        1 3P1      0.608700
      7 N7         -1.0950    2.1880   -0.3860 nd        1 3P1     -0.600100
      8 C8         -2.4330    2.1110    0.0170 ca        1 3P1     -0.196200
      9 C9         -2.7240    0.8090    0.5930 ca        1 3P1      0.453800
     10 C10        -1.3180   -1.3180    0.7930 c3        1 3P1      0.246800
     11 O11        -1.6130   -2.0580   -0.4020 os        1 3P1     -0.420600
     12 C12        -2.7720   -2.8850   -0.2370 c3        1 3P1      0.062100
     13 C13        -3.2430   -2.7810    1.2230 c3        1 3P1      0.086100
     14 C14        -2.1720   -1.9360    1.9470 c3        1 3P1      0.139100
     15 N15        -3.2750    4.3350   -0.5140 nh        1 3P1     -0.951500
     16 N16         0.7410    0.5480   -0.4090 nh        1 3P1     -0.757200
     17 C17         1.6900    1.6040   -0.7090 c3        1 3P1      0.140500
     18 C18         3.1290    1.1280   -0.7910 ca        1 3P1      0.414600
     19 N19         3.6160    0.3140    0.1390 nb        1 3P1     -0.670000
     20 C20         5.2310    1.2820   -1.9720 ca        1 3P1     -0.075000
     21 C21         3.9120    1.6420   -1.8800 ca        1 3P1     -0.239300
     22 C22         5.7920    0.4100   -0.9970 ca        1 3P1     -0.146300
     23 C23         4.9420   -0.0590    0.0520 ca        1 3P1      0.403600
     24 C24         5.4970   -0.9390    1.0370 ca        1 3P1     -0.165300
     25 C25         6.8150   -1.3150    0.9630 ca        1 3P1     -0.120000
     26 C26         7.6490   -0.8460   -0.0800 ca        1 3P1     -0.124000
     27 C27         7.1490   -0.0010   -1.0400 ca        1 3P1     -0.110000
     28 C28        -3.8400   -2.4410   -1.2360 c3        1 3P1      0.119400
     29 O29        -3.4230   -2.6810   -2.5620 oh        1 3P1     -0.596800
     30 O30        -3.2990   -4.0450    1.8570 oh        1 3P1     -0.602800
     31 O31        -1.2560   -2.6920    2.7140 oh        1 3P1     -0.597800
     32 H2         -5.9000    1.1890    1.2770 h5        1 3P1      0.049100
     33 H10        -0.2210   -1.5140    0.9980 h2        1 3P1      0.112700
     34 H12        -2.4280   -3.9300   -0.4800 h1        1 3P1      0.086700
     35 H13        -4.2460   -2.2770    1.2890 h1        1 3P1      0.080700
     36 H14        -2.6470   -1.1680    2.6130 h1        1 3P1      0.091700
     37 HN15       -4.0390    4.9440   -0.6740 hn        1 3P1      0.442300
     38 HN1A       -2.4200    4.5090   -0.9830 hn        1 3P1      0.442300
     39 HN16        1.0980   -0.1670    0.1950 hn        1 3P1      0.425800
     40 H17         1.3930    2.0410   -1.7060 h1        1 3P1      0.070700
     41 H17A        1.6560    2.4370    0.0570 h1        1 3P1      0.070700
     42 H20         5.8700    1.6510   -2.7900 ha        1 3P1      0.142000
     43 H21         3.4420    2.3080   -2.6160 ha        1 3P1      0.148000
     44 H24         4.8510   -1.3070    1.8490 ha        1 3P1      0.152000
     45 H25         7.2400   -1.9920    1.7200 ha        1 3P1      0.138000
     46 H26         8.7010   -1.1670   -0.1080 ha        1 3P1      0.137000
     47 H27         7.7870    0.3700   -1.8560 ha        1 3P1      0.136000
     48 H28        -4.7680   -3.0580   -1.1050 h1        1 3P1      0.056200
     49 H28A       -4.0800   -1.3540   -1.0930 h1        1 3P1      0.056200
     50 HO29       -2.5900   -2.2060   -2.6870 ho        1 3P1      0.416000
     51 HO30       -3.9460   -4.5730    1.3740 ho        1 3P1      0.420000
     52 HO31       -1.7460   -3.3990    3.1550 ho        1 3P1      0.436000
@<TRIPOS>BOND
     1    1    2 ar  
     2    1    4 ar  
     3    2    3 ar  
     4    2   32 1   
     5    3    9 ar  
     6    4    8 ar  
     7    4   15 1   
     8    5    6 1   
     9    5    9 1   
    10    5   10 1   
    11    6    7 2   
    12    6   16 1   
    13    7    8 1   
    14    8    9 ar  
    15   10   11 1   
    16   10   14 1   
    17   10   33 1   
    18   11   12 1   
    19   12   13 1   
    20   12   28 1   
    21   12   34 1   
    22   13   14 1   
    23   13   30 1   
    24   13   35 1   
    25   14   31 1   
    26   14   36 1   
    27   15   37 1   
    28   15   38 1   
    29   16   17 1   
    30   16   39 1   
    31   17   18 1   
    32   17   40 1   
    33   17   41 1   
    34   18   19 ar  
    35   18   21 ar  
    36   19   23 ar  
    37   20   21 ar  
    38   20   22 ar  
    39   20   42 1   
    40   21   43 1   
    41   22   23 ar  
    42   22   27 ar  
    43   23   24 ar  
    44   24   25 ar  
    45   24   44 1   
    46   25   26 ar  
    47   25   45 1   
    48   26   27 ar  
    49   26   46 1   
    50   27   47 1   
    51   28   29 1   
    52   28   48 1   
    53   28   49 1   
    54   29   50 1   
    55   30   51 1   
    56   31   52 1   
@<TRIPOS>SUBSTRUCTURE
     1 3P1         1 TEMP              0 ****  ****    0 ROOT
