@<TRIPOS>MOLECULE
3P2
   50    53     1     0     0
SMALL
bcc


@<TRIPOS>ATOM
      1 O1          0.2180   -0.6350    0.1560 os        1 3P2     -0.118100
      2 C2          1.6110   -0.3960    0.1620 cc        1 3P2      0.281000
      3 C3          2.0460   -0.4740    1.4780 cd        1 3P2     -0.275600
      4 C4          0.8250   -0.7800    2.2410 cd        1 3P2      0.336600
      5 C5          0.7450   -0.9770    3.7010 c3        1 3P2     -0.135400
      6 C6          2.2370   -0.1300   -1.1310 c3        1 3P2     -0.143400
      7 C8          3.3820   -0.3040    1.9890 ca        1 3P2      0.001000
      8 C13         4.4830   -0.7710    1.2520 ca        1 3P2     -0.124000
      9 C14         7.3510    0.1870    3.4760 cc        1 3P2      0.080400
     10 C16         9.1490    1.1650    4.2620 cd        1 3P2     -0.162600
     11 C18         8.3310   -0.8580    3.6030 cd        1 3P2      0.018900
     12 N1         -0.2110   -0.8600    1.3810 nc        1 3P2     -0.364300
     13 C9          3.6110    0.3410    3.2140 ca        1 3P2     -0.124000
     14 C10         4.9060    0.5040    3.6970 ca        1 3P2     -0.112000
     15 C11         6.0000    0.0180    2.9670 ca        1 3P2     -0.014800
     16 C12         5.7780   -0.6110    1.7340 ca        1 3P2     -0.112000
     17 N2          7.8630    1.4100    3.8890 nc        1 3P2     -0.241600
     18 N3          9.4850   -0.2200    4.0890 na        1 3P2      0.029700
     19 C25        10.1880    2.0370    4.7770 cd        1 3P2      0.455200
     20 N26        11.3960    1.6060    5.0700 nc        1 3P2     -0.648000
     21 C27        11.6740    0.2680    4.8720 cc        1 3P2      0.331200
     22 C28        10.7580   -0.6540    4.3920 cd        1 3P2     -0.163600
     23 N29         8.2940   -2.2240    3.2670 nh        1 3P2     -0.677000
     24 C30         7.8490   -3.1550    4.3280 c3        1 3P2      0.187200
     25 C31         8.2510   -4.5840    3.9180 c3        1 3P2     -0.102100
     26 C32         8.5010   -2.8520    5.6820 c3        1 3P2     -0.102100
     27 C33         6.3240   -3.1420    4.5290 c3        1 3P2     -0.102100
     28 H1          0.5390    0.0030    4.2040 hc        1 3P2      0.059700
     29 H2          1.7180   -1.3780    4.0800 hc        1 3P2      0.059700
     30 H3         -0.0710   -1.6910    3.9740 hc        1 3P2      0.059700
     31 H4          3.1530    0.4960   -0.9880 hc        1 3P2      0.068033
     32 H5          1.5260    0.4050   -1.8110 hc        1 3P2      0.068033
     33 H6          2.5320   -1.0950   -1.6180 hc        1 3P2      0.068033
     34 H7          4.3150   -1.2650    0.2830 ha        1 3P2      0.137500
     35 H8          2.7600    0.7340    3.7900 ha        1 3P2      0.137500
     36 H9          5.0760    1.0260    4.6520 ha        1 3P2      0.142500
     37 H10         6.6300   -0.9600    1.1320 ha        1 3P2      0.142500
     38 H11         9.9510    3.1060    4.9250 h4        1 3P2      0.052100
     39 H12        12.7030   -0.0390    5.1230 h4        1 3P2      0.040100
     40 H13        10.9850   -1.7190    4.2230 h4        1 3P2      0.184000
     41 H14         7.7140   -2.3440    2.4540 hn        1 3P2      0.391800
     42 H15         7.7850   -4.8670    2.9450 hc        1 3P2      0.043367
     43 H16         7.8980   -5.2950    4.7020 hc        1 3P2      0.043367
     44 H17         9.3600   -4.6700    3.8260 hc        1 3P2      0.043367
     45 H18         8.1570   -1.8640    6.0730 hc        1 3P2      0.043367
     46 H19         8.2080   -3.6430    6.4120 hc        1 3P2      0.043367
     47 H20         9.6130   -2.8430    5.5960 hc        1 3P2      0.043367
     48 H21         5.8030   -3.5050    3.6110 hc        1 3P2      0.043367
     49 H22         6.0530   -3.8120    5.3780 hc        1 3P2      0.043367
     50 H23         5.9670   -2.1080    4.7590 hc        1 3P2      0.043367
@<TRIPOS>BOND
     1    1    2 1   
     2    1   12 1   
     3    2    3 2   
     4    2    6 1   
     5    3    4 1   
     6    3    7 1   
     7    4    5 1   
     8    4   12 2   
     9    5   28 1   
    10    5   29 1   
    11    5   30 1   
    12    6   31 1   
    13    6   32 1   
    14    6   33 1   
    15    7    8 ar  
    16    7   13 ar  
    17    8   16 ar  
    18    8   34 1   
    19    9   11 2   
    20    9   15 1   
    21    9   17 1   
    22   10   17 2   
    23   10   18 1   
    24   10   19 1   
    25   11   18 1   
    26   11   23 1   
    27   13   14 ar  
    28   13   35 1   
    29   14   15 ar  
    30   14   36 1   
    31   15   16 ar  
    32   16   37 1   
    33   18   22 1   
    34   19   20 2   
    35   19   38 1   
    36   20   21 1   
    37   21   22 2   
    38   21   39 1   
    39   22   40 1   
    40   23   24 1   
    41   23   41 1   
    42   24   25 1   
    43   24   26 1   
    44   24   27 1   
    45   25   42 1   
    46   25   43 1   
    47   25   44 1   
    48   26   45 1   
    49   26   46 1   
    50   26   47 1   
    51   27   48 1   
    52   27   49 1   
    53   27   50 1   
@<TRIPOS>SUBSTRUCTURE
     1 3P2         1 TEMP              0 ****  ****    0 ROOT
