@<TRIPOS>MOLECULE
3P2
   50    53     1     0     0
SMALL
bcc


@<TRIPOS>ATOM
      1 O1          0.2620   -0.6200    0.0770 os        1 3P2     -0.118100
      2 C2          1.6560   -0.3860    0.1020 cc        1 3P2      0.281000
      3 C3          2.0720   -0.4640    1.4240 cd        1 3P2     -0.275600
      4 C4          0.8390   -0.7640    2.1710 cd        1 3P2      0.336600
      5 C5          0.7390   -0.9570    3.6300 c3        1 3P2     -0.135400
      6 C6          2.3000   -0.1250   -1.1830 c3        1 3P2     -0.143400
      7 C8          3.4020   -0.2970    1.9530 ca        1 3P2      0.001000
      8 C13         4.5110   -0.7690    1.2320 ca        1 3P2     -0.124000
      9 C14         7.3520    0.1820    3.4930 cc        1 3P2      0.080400
     10 C16         9.1420    1.1550    4.3010 cd        1 3P2     -0.162600
     11 C18         8.3260   -0.8660    3.6340 cd        1 3P2      0.018900
     12 N1         -0.1850   -0.8410    1.2970 nc        1 3P2     -0.364300
     13 C9          3.6170    0.3500    3.1790 ca        1 3P2     -0.124000
     14 C10         4.9060    0.5090    3.6790 ca        1 3P2     -0.112000
     15 C11         6.0070    0.0180    2.9650 ca        1 3P2     -0.014800
     16 C12         5.8000   -0.6130    1.7310 ca        1 3P2     -0.112000
     17 N2          7.8630    1.4050    3.9100 nc        1 3P2     -0.241600
     18 N3          9.4750   -0.2310    4.1350 na        1 3P2      0.029700
     19 C25        10.1780    2.0250    4.8280 cd        1 3P2      0.455200
     20 N26        11.3800    1.5900    5.1380 nc        1 3P2     -0.648000
     21 C27        11.6560    0.2500    4.9470 cc        1 3P2      0.331200
     22 C28        10.7430   -0.6690    4.4560 cd        1 3P2     -0.163600
     23 N29         8.2890   -2.2320    3.3010 nu        1 3P2     -0.677000
     24 C30         7.8260   -3.1600    4.3560 c3        1 3P2      0.187200
     25 C31         8.2290   -4.5900    3.9560 c3        1 3P2     -0.102100
     26 C32         8.4600   -2.8560    5.7190 c3        1 3P2     -0.102100
     27 C33         6.2990   -3.1410    4.5370 c3        1 3P2     -0.102100
     28 H1          0.5300    0.0240    4.1280 hc        1 3P2      0.059700
     29 H2          1.7060   -1.3610    4.0230 hc        1 3P2      0.059700
     30 H3         -0.0840   -1.6670    3.8930 hc        1 3P2      0.059700
     31 H4          3.2160    0.4980   -1.0290 hc        1 3P2      0.068033
     32 H5          1.6000    0.4100   -1.8740 hc        1 3P2      0.068033
     33 H6          2.5980   -1.0930   -1.6640 hc        1 3P2      0.068033
     34 H7          4.3540   -1.2650    0.2610 ha        1 3P2      0.137500
     35 H8          2.7590    0.7470    3.7430 ha        1 3P2      0.137500
     36 H9          5.0650    1.0320    4.6350 ha        1 3P2      0.142500
     37 H10         6.6590   -0.9660    1.1410 ha        1 3P2      0.142500
     38 H11         9.9420    3.0950    4.9710 h4        1 3P2      0.052100
     39 H12        12.6800   -0.0600    5.2120 h4        1 3P2      0.040100
     40 H13        10.9680   -1.7350    4.2920 h4        1 3P2      0.184000
     41 H14         7.7200   -2.3520    2.4800 hn        1 3P2      0.391800
     42 H15         7.7760   -4.8740    2.9760 hc        1 3P2      0.043367
     43 H16         7.8630   -5.3000    4.7360 hc        1 3P2      0.043367
     44 H17         9.3390   -4.6800    3.8790 hc        1 3P2      0.043367
     45 H18         8.1140   -1.8660    6.1030 hc        1 3P2      0.043367
     46 H19         8.1540   -3.6450    6.4470 hc        1 3P2      0.043367
     47 H20         9.5730   -2.8510    5.6490 hc        1 3P2      0.043367
     48 H21         5.7890   -3.5040    3.6120 hc        1 3P2      0.043367
     49 H22         6.0140   -3.8090    5.3830 hc        1 3P2      0.043367
     50 H23         5.9420   -2.1060    4.7600 hc        1 3P2      0.043367
@<TRIPOS>BOND
     1    1    2 1   
     2    1   12 1   
     3    2    3 2   
     4    2    6 1   
     5    3    4 1   
     6    3    7 1   
     7    4    5 1   
     8    4   12 2   
     9    5   28 1   
    10    5   29 1   
    11    5   30 1   
    12    6   31 1   
    13    6   32 1   
    14    6   33 1   
    15    7    8 ar  
    16    7   13 ar  
    17    8   16 ar  
    18    8   34 1   
    19    9   11 2   
    20    9   15 1   
    21    9   17 1   
    22   10   17 2   
    23   10   18 1   
    24   10   19 1   
    25   11   18 1   
    26   11   23 1   
    27   13   14 ar  
    28   13   35 1   
    29   14   15 ar  
    30   14   36 1   
    31   15   16 ar  
    32   16   37 1   
    33   18   22 1   
    34   19   20 2   
    35   19   38 1   
    36   20   21 1   
    37   21   22 2   
    38   21   39 1   
    39   22   40 1   
    40   23   24 1   
    41   23   41 1   
    42   24   25 1   
    43   24   26 1   
    44   24   27 1   
    45   25   42 1   
    46   25   43 1   
    47   25   44 1   
    48   26   45 1   
    49   26   46 1   
    50   26   47 1   
    51   27   48 1   
    52   27   49 1   
    53   27   50 1   
@<TRIPOS>SUBSTRUCTURE
     1 3P2         1 TEMP              0 ****  ****    0 ROOT
