@<TRIPOS>MOLECULE
3P3
   45    46     1     0     0
SMALL
bcc


@<TRIPOS>ATOM
      1 O01         5.5010   -2.0210    1.0020 o         1 3P3     -0.565100
      2 C02         5.9490   -1.2110    0.1750 c         1 3P3      0.589100
      3 N03         6.9630   -1.5980   -0.7490 n         1 3P3     -0.344400
      4 O04         7.7310   -2.6110   -0.3440 oh        1 3P3     -0.433100
      5 C05         5.3370    0.1890   -0.0230 c3        1 3P3     -0.002300
      6 N06         3.9020    0.1170    0.0880 n         1 3P3     -0.571900
      7 C07         3.0660    0.9790   -0.5940 c         1 3P3      0.678700
      8 O08         3.5390    1.9300   -1.2520 o         1 3P3     -0.614100
      9 C09         1.5990    0.7480   -0.4880 ca        1 3P3     -0.137600
     10 C10         0.7570    1.8680   -0.5200 ca        1 3P3     -0.089500
     11 C11        -0.6230    1.7090   -0.4330 ca        1 3P3     -0.115000
     12 C12        -1.1790    0.4230   -0.3210 ca        1 3P3      0.052000
     13 C13        -0.3310   -0.6970   -0.3040 ca        1 3P3     -0.115000
     14 C14         1.0500   -0.5340   -0.3870 ca        1 3P3     -0.089500
     15 C15        -2.5710    0.2590   -0.2310 cg        1 3P3     -0.095000
     16 C16        -3.7620    0.1180   -0.1540 ch        1 3P3     -0.013000
     17 C17        -5.1000   -0.0400   -0.0670 ch        1 3P3     -0.053000
     18 C18        -6.2910   -0.1800    0.0100 cg        1 3P3     -0.056000
     19 C19        -7.6840   -0.3430    0.1000 ca        1 3P3      0.010000
     20 C20        -8.2370   -1.6270    0.2470 ca        1 3P3     -0.100000
     21 C21        -9.6180   -1.7830    0.3360 ca        1 3P3     -0.134000
     22 C22       -10.4570   -0.6690    0.2800 ca        1 3P3     -0.114000
     23 C23        -9.9120    0.6070    0.1340 ca        1 3P3     -0.134000
     24 C24        -8.5330    0.7750    0.0440 ca        1 3P3     -0.100000
     25 C25         5.9850    1.1750    0.9980 c3        1 3P3      0.136100
     26 C26         7.4340    0.8360    1.2960 c3        1 3P3     -0.108100
     27 O27         5.9950    2.4840    0.4530 oh        1 3P3     -0.601800
     28 HN03        7.5740   -0.8300   -1.0100 hn        1 3P3      0.307500
     29 HO04        7.1820   -3.4160   -0.4350 ho        1 3P3      0.437000
     30 H05         5.5820    0.5830   -1.0590 h1        1 3P3      0.108700
     31 HN06        3.5260   -0.5750    0.6950 hn        1 3P3      0.335500
     32 H10         1.1980    2.8720   -0.6270 ha        1 3P3      0.151500
     33 H11        -1.2810    2.5910   -0.4560 ha        1 3P3      0.149000
     34 H13        -0.7610   -1.7070   -0.2270 ha        1 3P3      0.149000
     35 H14         1.6940   -1.4270   -0.3890 ha        1 3P3      0.151500
     36 H20        -7.5770   -2.5050    0.2920 ha        1 3P3      0.141500
     37 H21       -10.0480   -2.7890    0.4510 ha        1 3P3      0.137000
     38 H22       -11.5470   -0.7970    0.3500 ha        1 3P3      0.135000
     39 H23       -10.5730    1.4850    0.0890 ha        1 3P3      0.137000
     40 H24        -8.1040    1.7820   -0.0710 ha        1 3P3      0.141500
     41 H25         5.3930    1.1710    1.9570 h1        1 3P3      0.051700
     42 H26         8.0470    0.8590    0.3630 hc        1 3P3      0.053033
     43 H26A        7.8510    1.6010    1.9960 hc        1 3P3      0.053033
     44 H26B        7.5080   -0.1690    1.7750 hc        1 3P3      0.053033
     45 HO27        5.1050    2.6780    0.1240 ho        1 3P3      0.428000
@<TRIPOS>BOND
     1    1    2 2   
     2    2    3 1   
     3    2    5 1   
     4    3    4 1   
     5    3   28 1   
     6    4   29 1   
     7    5    6 1   
     8    5   25 1   
     9    5   30 1   
    10    6    7 1   
    11    6   31 1   
    12    7    8 2   
    13    7    9 1   
    14    9   10 ar  
    15    9   14 ar  
    16   10   11 ar  
    17   10   32 1   
    18   11   12 ar  
    19   11   33 1   
    20   12   13 ar  
    21   12   15 1   
    22   13   14 ar  
    23   13   34 1   
    24   14   35 1   
    25   15   16 3   
    26   16   17 1   
    27   17   18 3   
    28   18   19 1   
    29   19   20 ar  
    30   19   24 ar  
    31   20   21 ar  
    32   20   36 1   
    33   21   22 ar  
    34   21   37 1   
    35   22   23 ar  
    36   22   38 1   
    37   23   24 ar  
    38   23   39 1   
    39   24   40 1   
    40   25   26 1   
    41   25   27 1   
    42   25   41 1   
    43   26   42 1   
    44   26   43 1   
    45   26   44 1   
    46   27   45 1   
@<TRIPOS>SUBSTRUCTURE
     1 3P3         1 TEMP              0 ****  ****    0 ROOT
