@<TRIPOS>MOLECULE
3P3
   45    39     1     0     0
SMALL
bcc


@<TRIPOS>ATOM
      1 O01         1.3070   -5.5650   -3.4260 o         1 3P3     -0.331000
      2 C02         1.7250   -4.5140   -3.8670 c1        1 3P3      0.233000
      3 N03         1.1630   -3.9660   -5.0540 n2        1 3P3     -0.201000
      4 O04         0.3680   -4.7380   -5.8520 oh        1 3P3     -0.235000
      5 C05         2.7570   -3.7590   -3.1240 c3        1 3P3      0.008000
      6 N06         2.1380   -3.0220   -2.0620 n         1 3P3     -0.354000
      7 C07         2.1490   -1.5410   -2.0850 c2        1 3P3      0.348000
      8 O08         2.7950   -0.9530   -2.9290 o         1 3P3     -0.382000
      9 C09         1.2680   -0.7420   -1.0880 c2        1 3P3     -0.114000
     10 C10         1.8560   -0.0680   -0.0370 c1        1 3P3     -0.104000
     11 C11         1.0720    0.7070    0.8210 c1        1 3P3     -0.115000
     12 C12        -0.2890    0.7990    0.6200 c1        1 3P3      0.054000
     13 C13        -0.8840    0.1170   -0.4430 c1        1 3P3     -0.114000
     14 C14        -0.1100   -0.6490   -1.2930 c2        1 3P3     -0.077000
     15 C15        -1.0920    1.7450    1.4340 c1        1 3P3     -0.096000
     16 C16        -1.7380    2.5060    2.0910 c1        1 3P3     -0.016000
     17 C17        -2.5440    3.4550    2.9150 c1        1 3P3     -0.057000
     18 C18        -3.2030    4.2340    3.5920 c1        1 3P3     -0.057000
     19 C19        -4.0140    5.1910    4.4240 c1        1 3P3      0.015000
     20 C20        -3.8800    5.1940    5.8150 c2        1 3P3     -0.100000
     21 C21        -4.6250    6.0850    6.5830 c1        1 3P3     -0.134000
     22 C22        -5.5080    6.9790    5.9600 c1        1 3P3     -0.124500
     23 C23        -5.6390    6.9750    4.5790 c1        1 3P3     -0.124500
     24 C24        -4.8900    6.0790    3.8070 c1        1 3P3     -0.100000
     25 C25         3.7910   -4.7450   -2.5340 c3        1 3P3      0.022000
     26 C26         5.0790   -4.6610   -3.3220 c3        1 3P3     -0.253000
     27 O27         4.0420   -4.4170   -1.1920 oh        1 3P3     -0.342000
     28 HN03        1.3380   -3.0980   -5.2860 hn        1 3P3      0.252000
     29 HO04        0.1190   -4.2790   -6.5400 ho        1 3P3      0.227000
     30 H05         3.2170   -3.1260   -3.7430 h1        1 3P3      0.134000
     31 HN06        1.7530   -3.4630   -1.3670 hn        1 3P3      0.243000
     32 H10         2.8090   -0.1310    0.1050 ha        1 3P3      0.144000
     33 H11         1.4770    1.1710    1.5460 ha        1 3P3      0.147000
     34 H13        -1.8540    0.1830   -0.5860 ha        1 3P3      0.149000
     35 H14        -0.5210   -1.1190   -2.0260 ha        1 3P3      0.159000
     36 H20        -3.2530    4.5570    6.2580 ha        1 3P3      0.141000
     37 H21        -4.5330    6.0880    7.5430 ha        1 3P3      0.137000
     38 H22        -6.0320    7.6060    6.5000 ha        1 3P3      0.136000
     39 H23        -6.2640    7.6080    4.1390 ha        1 3P3      0.136000
     40 H24        -4.9790    6.0770    2.8660 ha        1 3P3      0.142000
     41 H25         3.4460   -5.6340   -2.5840 h1        1 3P3      0.109000
     42 H26         5.4800   -3.8000   -3.1870 hc        1 3P3      0.093667
     43 H26A        5.7220   -5.3900   -3.0040 hc        1 3P3      0.093667
     44 H26B        4.8880   -4.7860   -4.2780 hc        1 3P3      0.093667
     45 HO27        4.0920   -5.1890   -0.6910 ho        1 3P3      0.213000
@<TRIPOS>BOND
     1    1    2 1   
     2    2    5 1   
     3    3    4 1   
     4    3   28 1   
     5    4   29 1   
     6    5    6 1   
     7    5   25 1   
     8    5   30 1   
     9    6    7 1   
    10    6   31 1   
    11    7    8 1   
    12    7    9 1   
    13    9   10 1   
    14    9   14 1   
    15   10   32 1   
    16   11   12 1   
    17   11   33 1   
    18   12   15 1   
    19   13   14 1   
    20   13   34 1   
    21   14   35 1   
    22   15   16 1   
    23   17   18 1   
    24   19   20 1   
    25   19   24 1   
    26   20   21 1   
    27   20   36 1   
    28   21   37 1   
    29   22   23 1   
    30   22   38 1   
    31   23   39 1   
    32   24   40 1   
    33   25   26 1   
    34   25   27 1   
    35   25   41 1   
    36   26   42 1   
    37   26   43 1   
    38   26   44 1   
    39   27   45 1   
@<TRIPOS>SUBSTRUCTURE
     1 3P3         1 TEMP              0 ****  ****    0 ROOT
