@<TRIPOS>MOLECULE
3P3
   45    46     1     0     0
SMALL
bcc


@<TRIPOS>ATOM
      1 O01         0.7090   -0.9510   -0.3160 o         1 3P3     -0.568100
      2 C02         1.4400   -0.1140    0.2360 c         1 3P3      0.588100
      3 N03         1.8320    1.0790   -0.4240 n         1 3P3     -0.360400
      4 O04         1.0050    1.4950   -1.3850 oh        1 3P3     -0.429100
      5 C05         2.0960   -0.3770    1.6120 c3        1 3P3     -0.000300
      6 N06         1.3210    0.2400    2.6580 n         1 3P3     -0.557900
      7 C07         1.4760    1.5720    2.9890 c         1 3P3      0.676700
      8 O08         2.2090    2.3140    2.2980 o         1 3P3     -0.624100
      9 C09         0.7390    2.0840    4.1770 ca        1 3P3     -0.137600
     10 C10         1.3450    3.0910    4.9380 ca        1 3P3     -0.090000
     11 C11         0.6970    3.6090    6.0560 ca        1 3P3     -0.115000
     12 C12        -0.5730    3.1290    6.4190 ca        1 3P3      0.052000
     13 C13        -1.1830    2.1290    5.6420 ca        1 3P3     -0.115000
     14 C14        -0.5290    1.6100    4.5280 ca        1 3P3     -0.090000
     15 C15        -1.2300    3.6470    7.5480 cg        1 3P3     -0.095000
     16 C16        -1.7920    4.0900    8.5130 ch        1 3P3     -0.013000
     17 C17        -2.4230    4.5880    9.5970 ch        1 3P3     -0.053000
     18 C18        -2.9850    5.0320   10.5630 cg        1 3P3     -0.056000
     19 C19        -3.6420    5.5510   11.6910 ca        1 3P3      0.010000
     20 C20        -3.0490    6.5760   12.4470 ca        1 3P3     -0.100000
     21 C21        -3.7050    7.0860   13.5650 ca        1 3P3     -0.134000
     22 C22        -4.9510    6.5840   13.9390 ca        1 3P3     -0.114000
     23 C23        -5.5450    5.5660   13.1920 ca        1 3P3     -0.134000
     24 C24        -4.8980    5.0480   12.0720 ca        1 3P3     -0.100000
     25 C25         2.2390   -1.9150    1.7970 c3        1 3P3      0.132100
     26 C26         3.3210   -2.4430    0.8760 c3        1 3P3     -0.132100
     27 O27         2.4970   -2.2410    3.1500 oh        1 3P3     -0.594800
     28 HN03        2.0100    1.8590    0.2070 hn        1 3P3      0.337500
     29 HO04        1.1440    0.8880   -2.1390 ho        1 3P3      0.428000
     30 H05         3.1330    0.0810    1.6120 h1        1 3P3      0.085700
     31 HN06        0.8330   -0.3720    3.2720 hn        1 3P3      0.335500
     32 H10         2.3330    3.4770    4.6370 ha        1 3P3      0.151500
     33 H11         1.1760    4.3980    6.6540 ha        1 3P3      0.149500
     34 H13        -2.1830    1.7580    5.9150 ha        1 3P3      0.149500
     35 H14        -1.0320    0.8400    3.9220 ha        1 3P3      0.151500
     36 H20        -2.0660    6.9730   12.1530 ha        1 3P3      0.141000
     37 H21        -3.2360    7.8890   14.1530 ha        1 3P3      0.137000
     38 H22        -5.4660    6.9900   14.8220 ha        1 3P3      0.135000
     39 H23        -6.5280    5.1700   13.4860 ha        1 3P3      0.137000
     40 H24        -5.3670    4.2450   11.4830 ha        1 3P3      0.141000
     41 H25         1.2500   -2.4130    1.5750 h1        1 3P3      0.107700
     42 H26         4.3020   -1.9550    1.0900 hc        1 3P3      0.054033
     43 H26A        3.0400   -2.2470   -0.1870 hc        1 3P3      0.054033
     44 H26B        3.4310   -3.5440    1.0250 hc        1 3P3      0.054033
     45 HO27        3.3920   -1.9440    3.3580 ho        1 3P3      0.403000
@<TRIPOS>BOND
     1    1    2 2   
     2    2    3 1   
     3    2    5 1   
     4    3    4 1   
     5    3   28 1   
     6    4   29 1   
     7    5    6 1   
     8    5   25 1   
     9    5   30 1   
    10    6    7 1   
    11    6   31 1   
    12    7    8 2   
    13    7    9 1   
    14    9   10 ar  
    15    9   14 ar  
    16   10   11 ar  
    17   10   32 1   
    18   11   12 ar  
    19   11   33 1   
    20   12   13 ar  
    21   12   15 1   
    22   13   14 ar  
    23   13   34 1   
    24   14   35 1   
    25   15   16 3   
    26   16   17 1   
    27   17   18 3   
    28   18   19 1   
    29   19   20 ar  
    30   19   24 ar  
    31   20   21 ar  
    32   20   36 1   
    33   21   22 ar  
    34   21   37 1   
    35   22   23 ar  
    36   22   38 1   
    37   23   24 ar  
    38   23   39 1   
    39   24   40 1   
    40   25   26 1   
    41   25   27 1   
    42   25   41 1   
    43   26   42 1   
    44   26   43 1   
    45   26   44 1   
    46   27   45 1   
@<TRIPOS>SUBSTRUCTURE
     1 3P3         1 TEMP              0 ****  ****    0 ROOT
