@<TRIPOS>MOLECULE
3P3
   47    48     1     0     0
SMALL
bcc


@<TRIPOS>ATOM
      1 O01         0.7270    0.3850   -0.3690 o         1 3P3     -0.362100
      2 C02         1.7310    0.3100    0.3180 c         1 3P3      0.526100
      3 N03         2.9490    1.0750   -0.1720 n4        1 3P3     -0.438300
      4 O04         2.9350    1.2820   -1.5080 oh        1 3P3     -0.333300
      5 C05         1.8790   -0.4670    1.6210 c3        1 3P3      0.038500
      6 N06         0.8650   -0.0030    2.6170 n4        1 3P3     -0.679800
      7 C07         1.0310    1.4820    2.9950 c         1 3P3      0.611700
      8 O08         1.7440    2.0800    2.1770 o         1 3P3     -0.606100
      9 C09         0.3670    1.9380    4.1650 ca        1 3P3     -0.264600
     10 C10         0.5600    3.3070    4.5140 ca        1 3P3     -0.026500
     11 C11        -0.0460    3.8400    5.6310 ca        1 3P3     -0.146000
     12 C12        -0.8750    3.0390    6.4560 ca        1 3P3      0.241000
     13 C13        -1.0690    1.6720    6.1040 ca        1 3P3     -0.146000
     14 C14        -0.4650    1.1370    4.9910 ca        1 3P3     -0.026500
     15 C15        -1.4860    3.5680    7.5780 cg        1 3P3     -0.255000
     16 C16        -2.0190    4.0370    8.5590 ch        1 3P3      0.206000
     17 C17        -2.6090    4.5540    9.6440 ch        1 3P3     -0.182000
     18 C18        -3.1410    5.0240   10.6220 cg        1 3P3      0.119000
     19 C19        -3.7580    5.5680   11.7550 ca        1 3P3     -0.063000
     20 C20        -4.5800    4.7650   12.5670 ca        1 3P3     -0.070000
     21 C21        -5.1900    5.3130   13.6920 ca        1 3P3     -0.135000
     22 C22        -4.9890    6.6560   14.0170 ca        1 3P3     -0.071000
     23 C23        -4.1730    7.4570   13.2140 ca        1 3P3     -0.135000
     24 C24        -3.5580    6.9220   12.0870 ca        1 3P3     -0.070000
     25 C25         1.7050   -2.0020    1.2980 c3        1 3P3      0.154100
     26 C26         2.8890   -2.4920    0.4980 c3        1 3P3     -0.165100
     27 O27         1.5510   -2.6340    2.5470 oh        1 3P3     -0.609800
     28 HN03        3.0040    1.9860    0.3430 hn        1 3P3      0.508300
     29 HO04        2.0750    1.6960   -1.7720 ho        1 3P3      0.496000
     30 H05         2.8960   -0.3100    2.0920 hx        1 3P3      0.139700
     31 HN06       -0.0830   -0.1540    2.2480 hn        1 3P3      0.487300
     32 H10         1.2030    3.9380    3.8760 ha        1 3P3      0.147500
     33 H11         0.1100    4.9010    5.8950 ha        1 3P3      0.186000
     34 H13        -1.7180    1.0470    6.7440 ha        1 3P3      0.186000
     35 H14        -0.6550    0.0770    4.7590 ha        1 3P3      0.147500
     36 H20        -4.7400    3.7060   12.3120 ha        1 3P3      0.145500
     37 H21        -5.8340    4.6840   14.3270 ha        1 3P3      0.155000
     38 H22        -5.4740    7.0840   14.9090 ha        1 3P3      0.156000
     39 H23        -4.0160    8.5160   13.4730 ha        1 3P3      0.155000
     40 H24        -2.9150    7.5540   11.4550 ha        1 3P3      0.145500
     41 H25         0.7370   -2.1390    0.7310 h1        1 3P3      0.109700
     42 H26         3.8400   -2.4050    1.0790 hc        1 3P3      0.085367
     43 H26A        2.7380   -3.5750    0.2420 hc        1 3P3      0.085367
     44 H26B        2.9840   -1.9290   -0.4620 hc        1 3P3      0.085367
     45 HO27        2.2010   -3.3500    2.6370 ho        1 3P3      0.473000
     46 H032        3.8200    0.5300    0.0050 hn        1 3P3      0.508300
     47 H062        0.9710   -0.5980    3.4580 hn        1 3P3      0.487300
@<TRIPOS>BOND
     1    1    2 2   
     2    2    3 1   
     3    2    5 1   
     4    3    4 1   
     5    3   28 1   
     6    3   46 1   
     7    4   29 1   
     8    5    6 1   
     9    5   25 1   
    10    5   30 1   
    11    6    7 1   
    12    6   31 1   
    13    6   47 1   
    14    7    8 2   
    15    7    9 1   
    16    9   10 ar  
    17    9   14 ar  
    18   10   11 ar  
    19   10   32 1   
    20   11   12 ar  
    21   11   33 1   
    22   12   13 ar  
    23   12   15 1   
    24   13   14 ar  
    25   13   34 1   
    26   14   35 1   
    27   15   16 3   
    28   16   17 1   
    29   17   18 3   
    30   18   19 1   
    31   19   20 ar  
    32   19   24 ar  
    33   20   21 ar  
    34   20   36 1   
    35   21   22 ar  
    36   21   37 1   
    37   22   23 ar  
    38   22   38 1   
    39   23   24 ar  
    40   23   39 1   
    41   24   40 1   
    42   25   26 1   
    43   25   27 1   
    44   25   41 1   
    45   26   42 1   
    46   26   43 1   
    47   26   44 1   
    48   27   45 1   
@<TRIPOS>SUBSTRUCTURE
     1 3P3         1 TEMP              0 ****  ****    0 ROOT
