@<TRIPOS>MOLECULE
3P3
   47    48     1     0     0
SMALL
bcc


@<TRIPOS>ATOM
      1 O01         1.1570    0.8060   -0.4350 o         1 3P3     -0.362100
      2 C02         2.0070    0.4200    0.3480 c         1 3P3      0.526100
      3 N03         3.4210    0.9300    0.1230 ny        1 3P3     -0.438300
      4 O04         3.6520    1.2870   -1.1600 oh        1 3P3     -0.333300
      5 C05         1.7870   -0.5140    1.5320 c3        1 3P3      0.038500
      6 N06         0.7600    0.0560    2.4570 ny        1 3P3     -0.679800
      7 C07         1.1840    1.4080    3.0640 c         1 3P3      0.611700
      8 O08         2.1240    1.9120    2.4340 o         1 3P3     -0.606100
      9 C09         0.4680    1.8690    4.2010 ca        1 3P3     -0.264600
     10 C10         0.8970    3.1050    4.7660 ca        1 3P3     -0.026500
     11 C11         0.2610    3.6320    5.8690 ca        1 3P3     -0.146000
     12 C12        -0.8350    2.9590    6.4620 ca        1 3P3      0.241000
     13 C13        -1.2660    1.7260    5.8940 ca        1 3P3     -0.146000
     14 C14        -0.6320    1.1960    4.7950 ca        1 3P3     -0.026500
     15 C15        -1.4780    3.4840    7.5680 cg        1 3P3     -0.255000
     16 C16        -2.0380    3.9480    8.5360 ch        1 3P3      0.206000
     17 C17        -2.6570    4.4620    9.6070 ch        1 3P3     -0.182000
     18 C18        -3.2150    4.9270   10.5720 cg        1 3P3      0.119000
     19 C19        -3.8610    5.4670   11.6910 ca        1 3P3     -0.063000
     20 C20        -4.9530    4.7930   12.2710 ca        1 3P3     -0.070000
     21 C21        -5.5910    5.3360   13.3820 ca        1 3P3     -0.135000
     22 C22        -5.1510    6.5450   13.9240 ca        1 3P3     -0.071000
     23 C23        -4.0690    7.2170   13.3530 ca        1 3P3     -0.135000
     24 C24        -3.4220    6.6860   12.2410 ca        1 3P3     -0.070000
     25 C25         1.3370   -1.9190    0.9700 c3        1 3P3      0.154100
     26 C26         2.4930   -2.5770    0.2550 c3        1 3P3     -0.165100
     27 O27         0.8640   -2.6360    2.0870 oh        1 3P3     -0.609800
     28 HN03        4.1170    0.1790    0.3220 hn        1 3P3      0.508300
     29 HO04        2.9500    1.9180   -1.4610 ho        1 3P3      0.496000
     30 H05         2.7320   -0.6550    2.1390 hx        1 3P3      0.139700
     31 HN06        0.6080   -0.6390    3.2080 hn        1 3P3      0.487300
     32 H10         1.7500    3.6370    4.3080 ha        1 3P3      0.147500
     33 H11         0.6020    4.5900    6.3010 ha        1 3P3      0.186000
     34 H13        -2.1220    1.2010    6.3530 ha        1 3P3      0.186000
     35 H14        -1.0100    0.2440    4.3900 ha        1 3P3      0.147500
     36 H20        -5.3010    3.8400   11.8440 ha        1 3P3      0.145500
     37 H21        -6.4450    4.8080   13.8350 ha        1 3P3      0.155000
     38 H22        -5.6600    6.9710   14.8050 ha        1 3P3      0.156000
     39 H23        -3.7240    8.1710   13.7820 ha        1 3P3      0.155000
     40 H24        -2.5690    7.2170   11.7910 ha        1 3P3      0.145500
     41 H25         0.4580   -1.7600    0.2780 h1        1 3P3      0.109700
     42 H26         3.3420   -2.7830    0.9520 hc        1 3P3      0.085367
     43 H26A        2.1510   -3.5580   -0.1720 hc        1 3P3      0.085367
     44 H26B        2.8490   -1.9460   -0.5940 hc        1 3P3      0.085367
     45 HO27        1.3230   -3.4890    2.1480 ho        1 3P3      0.473000
     46 H032        3.5940    1.7360    0.7690 hn        1 3P3      0.508300
     47 H062       -0.1320    0.1750    1.9580 hn        1 3P3      0.487300
@<TRIPOS>BOND
     1    1    2 2   
     2    2    3 1   
     3    2    5 1   
     4    3    4 1   
     5    3   28 1   
     6    3   46 1   
     7    4   29 1   
     8    5    6 1   
     9    5   25 1   
    10    5   30 1   
    11    6    7 1   
    12    6   31 1   
    13    6   47 1   
    14    7    8 2   
    15    7    9 1   
    16    9   10 ar  
    17    9   14 ar  
    18   10   11 ar  
    19   10   32 1   
    20   11   12 ar  
    21   11   33 1   
    22   12   13 ar  
    23   12   15 1   
    24   13   14 ar  
    25   13   34 1   
    26   14   35 1   
    27   15   16 3   
    28   16   17 1   
    29   17   18 3   
    30   18   19 1   
    31   19   20 ar  
    32   19   24 ar  
    33   20   21 ar  
    34   20   36 1   
    35   21   22 ar  
    36   21   37 1   
    37   22   23 ar  
    38   22   38 1   
    39   23   24 ar  
    40   23   39 1   
    41   24   40 1   
    42   25   26 1   
    43   25   27 1   
    44   25   41 1   
    45   26   42 1   
    46   26   43 1   
    47   26   44 1   
    48   27   45 1   
@<TRIPOS>SUBSTRUCTURE
     1 3P3         1 TEMP              0 ****  ****    0 ROOT
