@<TRIPOS>MOLECULE
3P4
   61    64     1     0     0
SMALL
bcc


@<TRIPOS>ATOM
      1 C1         -0.2200    0.2980   -0.1240 cc        1 3P4      0.104400
      2 C2          1.2000    0.5480   -0.0640 cc        1 3P4      0.060400
      3 C3         -0.5960   -0.0540    1.2190 cd        1 3P4     -0.121900
      4 N1         -1.1130    0.3580   -1.1700 nc        1 3P4     -0.556100
      5 N2          1.5890    0.3370    1.2560 na        1 3P4      0.002600
      6 C4          2.0880    0.9510   -1.1770 c3        1 3P4     -0.045100
      7 N3          0.5210   -0.0070    2.0210 na        1 3P4     -0.113400
      8 C5         -1.9980   -0.3860    1.5370 c         1 3P4      0.724100
      9 C6         -2.3750    0.0500   -0.8650 cd        1 3P4      0.611500
     10 C7          2.9190    0.4970    1.8250 cy        1 3P4     -0.027000
     11 C8          2.9680   -0.1830   -1.6480 c3        1 3P4     -0.102100
     12 N4         -2.8370   -0.3020    0.4180 ns        1 3P4     -0.467400
     13 O1         -2.4060   -0.7010    2.6620 o         1 3P4     -0.556500
     14 C9         -3.4090    0.0760   -1.9220 ca        1 3P4     -0.345200
     15 C10         3.4220   -0.6860    2.7280 cy        1 3P4      0.129800
     16 C11         3.0100    1.3820    3.1190 cy        1 3P4      0.129800
     17 C12        -3.3540   -0.8210   -3.0270 ca        1 3P4      0.698600
     18 C13        -4.4490    1.0100   -1.8730 ca        1 3P4     -0.003000
     19 N5          3.2550    0.1670    3.9240 n3        1 3P4     -0.711600
     20 N6         -4.2610   -0.7880   -4.0430 nb        1 3P4     -0.722000
     21 O2         -2.3430   -1.7430   -2.9950 os        1 3P4     -0.450100
     22 C14        -5.3950    1.0420   -2.9040 ca        1 3P4     -0.199100
     23 C15         4.3630    0.2310    4.8560 c3        1 3P4      0.147800
     24 C16        -5.2390    0.1250   -3.9730 ca        1 3P4      0.491200
     25 C17        -2.2430   -2.6650   -4.1060 c3        1 3P4      0.142400
     26 C20        -6.5010    1.9960   -2.8820 ce        1 3P4      0.132900
     27 C18         4.6610   -1.0940    5.5370 c3        1 3P4     -0.098100
     28 C19        -1.0330   -3.5300   -3.7890 c3        1 3P4     -0.056200
     29 O3         -6.2810    3.0090   -1.9620 oh        1 3P4     -0.521100
     30 C21        -0.8810   -4.5900   -4.8150 c2        1 3P4     -0.181200
     31 C22         0.2570   -4.8410   -5.4560 c2        1 3P4     -0.197000
     32 C23        -7.6110    1.9240   -3.6340 c2        1 3P4     -0.297000
     33 H4C1        1.4280    1.2930   -2.0260 hc        1 3P4      0.099700
     34 H4C2        2.7200    1.8300   -0.8680 hc        1 3P4      0.099700
     35 H3          0.6260   -0.2230    2.9990 hn        1 3P4      0.392700
     36 H7          3.6050    0.7890    0.9900 h1        1 3P4      0.123700
     37 H8C1        3.6560   -0.5270   -0.8390 hc        1 3P4      0.058033
     38 H8C2        3.5860    0.1680   -2.5120 hc        1 3P4      0.058033
     39 H8C3        2.3520   -1.0510   -1.9880 hc        1 3P4      0.058033
     40 H4         -3.8040   -0.5290    0.5390 hn        1 3P4      0.370500
     41 H101        4.4710   -0.9830    2.4770 h1        1 3P4      0.085950
     42 H102        2.7790   -1.5960    2.7780 h1        1 3P4      0.085950
     43 H111        2.0810    1.9090    3.4420 h1        1 3P4      0.085950
     44 H112        3.8540    2.1150    3.0600 h1        1 3P4      0.085950
     45 H13        -4.5240    1.7290   -1.0390 ha        1 3P4      0.170000
     46 H151        4.0740    0.9910    5.6380 h1        1 3P4      0.050200
     47 H152        5.3080    0.6000    4.3560 h1        1 3P4      0.050200
     48 H16        -5.9420    0.1230   -4.8290 h4        1 3P4      0.048100
     49 H171       -3.1810   -3.2750   -4.1630 h1        1 3P4      0.067700
     50 H172       -2.0980   -2.0870   -5.0540 h1        1 3P4      0.067700
     51 H181        5.5100   -0.9450    6.2490 hc        1 3P4      0.051700
     52 H182        4.9530   -1.8740    4.7930 hc        1 3P4      0.051700
     53 H183        3.7770   -1.4620    6.1110 hc        1 3P4      0.051700
     54 H191       -1.1700   -4.0050   -2.7800 hc        1 3P4      0.055700
     55 H192       -0.1180   -2.8840   -3.7310 hc        1 3P4      0.055700
     56 HA         -7.0310    3.6210   -2.0040 ho        1 3P4      0.432000
     57 H21        -1.7900   -5.1860   -5.0070 ha        1 3P4      0.130000
     58 H221        1.1770   -4.2640   -5.2890 ha        1 3P4      0.118000
     59 H222        0.3450   -5.6480   -6.1960 ha        1 3P4      0.118000
     60 H231       -7.7880    1.1110   -4.3470 ha        1 3P4      0.136500
     61 H232       -8.4070    2.6760   -3.5710 ha        1 3P4      0.136500
@<TRIPOS>BOND
     1    1    2 1   
     2    1    3 2   
     3    1    4 1   
     4    2    5 2   
     5    2    6 1   
     6    3    7 1   
     7    3    8 1   
     8    4    9 2   
     9    5    7 1   
    10    5   10 1   
    11    6   11 1   
    12    6   33 1   
    13    6   34 1   
    14    7   35 1   
    15    8   12 1   
    16    8   13 2   
    17    9   12 1   
    18    9   14 1   
    19   10   15 1   
    20   10   16 1   
    21   10   36 1   
    22   11   37 1   
    23   11   38 1   
    24   11   39 1   
    25   12   40 1   
    26   14   17 ar  
    27   14   18 ar  
    28   15   19 1   
    29   15   41 1   
    30   15   42 1   
    31   16   19 1   
    32   16   43 1   
    33   16   44 1   
    34   17   20 ar  
    35   17   21 1   
    36   18   22 ar  
    37   18   45 1   
    38   19   23 1   
    39   20   24 ar  
    40   21   25 1   
    41   22   24 ar  
    42   22   26 1   
    43   23   27 1   
    44   23   46 1   
    45   23   47 1   
    46   24   48 1   
    47   25   28 1   
    48   25   49 1   
    49   25   50 1   
    50   26   29 1   
    51   26   32 2   
    52   27   51 1   
    53   27   52 1   
    54   27   53 1   
    55   28   30 1   
    56   28   54 1   
    57   28   55 1   
    58   29   56 1   
    59   30   31 2   
    60   30   57 1   
    61   31   58 1   
    62   31   59 1   
    63   32   60 1   
    64   32   61 1   
@<TRIPOS>SUBSTRUCTURE
     1 3P4         1 TEMP              0 ****  ****    0 ROOT
