@<TRIPOS>MOLECULE
3P4
   61    64     1     0     0
SMALL
bcc


@<TRIPOS>ATOM
      1 C1          0.8730    0.1450   -0.5230 cc        1 3P4      0.104400
      2 C2          1.9780   -0.5080   -1.1810 cc        1 3P4      0.060400
      3 C3          1.4760    1.0040    0.4600 cd        1 3P4     -0.121900
      4 N1         -0.4880    0.0500   -0.7140 nc        1 3P4     -0.556100
      5 N2          3.1410   -0.0330   -0.5810 na        1 3P4      0.002600
      6 C4          1.9110   -1.4960   -2.2810 c3        1 3P4     -0.045100
      7 N3          2.8440    0.8760    0.3840 na        1 3P4     -0.113400
      8 C5          0.6330    1.8380    1.3390 c         1 3P4      0.724100
      9 C6         -1.2340    0.8050    0.0950 cd        1 3P4      0.610500
     10 C7          4.5160   -0.3690   -0.9200 cy        1 3P4     -0.027000
     11 C8          2.2070   -2.9010   -1.8100 c3        1 3P4     -0.102100
     12 N4         -0.7340    1.6780    1.0800 n         1 3P4     -0.467400
     13 O1          1.0690    2.6010    2.2090 o         1 3P4     -0.556500
     14 C9         -2.7080    0.7650   -0.0220 ca        1 3P4     -0.345200
     15 C10         5.4480   -0.7330    0.2910 cy        1 3P4      0.129800
     16 C11         5.4810    0.8470   -1.1590 cy        1 3P4      0.129800
     17 C12        -3.4360   -0.4280    0.2510 ca        1 3P4      0.698600
     18 C13        -3.4160    1.9010   -0.4280 ca        1 3P4     -0.003000
     19 N5          6.1540    0.5540    0.1240 n3        1 3P4     -0.711600
     20 N6         -4.7910   -0.5050    0.1210 nb        1 3P4     -0.722000
     21 O2         -2.6930   -1.4920    0.6860 os        1 3P4     -0.450100
     22 C14        -4.8070    1.8310   -0.5630 ca        1 3P4     -0.199100
     23 C15         7.6030    0.5190    0.0910 c3        1 3P4      0.147800
     24 C16        -5.4400    0.5970   -0.2750 ca        1 3P4      0.491200
     25 C17        -3.3940   -2.7270    0.9650 c3        1 3P4      0.142400
     26 C20        -5.5810    2.9960   -0.9850 ce        1 3P4      0.132900
     27 C18         8.2290    0.0610    1.3970 c3        1 3P4     -0.098100
     28 C19        -2.3110   -3.7020    1.4000 c3        1 3P4     -0.056200
     29 O3         -4.8740    4.1720   -0.7950 oh        1 3P4     -0.521100
     30 C21        -2.9210   -4.9900    1.8120 c2        1 3P4     -0.181200
     31 C22        -2.5200   -6.1750    1.3590 c2        1 3P4     -0.197000
     32 C23        -6.8190    2.9630   -1.5060 c2        1 3P4     -0.297000
     33 H4C1        0.8670   -1.4550   -2.7060 hc        1 3P4      0.099700
     34 H4C2        2.6200   -1.2060   -3.1050 hc        1 3P4      0.099700
     35 H3          3.5670    1.3030    0.9400 hn        1 3P4      0.392700
     36 H7          4.4790   -1.1260   -1.7440 h1        1 3P4      0.123700
     37 H8C1        1.4900   -3.2140   -1.0130 hc        1 3P4      0.058033
     38 H8C2        2.1030   -3.6060   -2.6710 hc        1 3P4      0.058033
     39 H8C3        3.2460   -2.9850   -1.4090 hc        1 3P4      0.058033
     40 H4         -1.3820    2.1940    1.6430 hn        1 3P4      0.371500
     41 H101        6.0490   -1.6550    0.0890 h1        1 3P4      0.085950
     42 H102        4.9690   -0.8140    1.2950 h1        1 3P4      0.085950
     43 H111        5.0250    1.8650   -1.1610 h1        1 3P4      0.085950
     44 H112        6.0960    0.7100   -2.0830 h1        1 3P4      0.085950
     45 H13        -2.8930    2.8460   -0.6490 ha        1 3P4      0.169000
     46 H151        7.9390    1.5740   -0.1300 h1        1 3P4      0.050200
     47 H152        7.9850   -0.1410   -0.7430 h1        1 3P4      0.050200
     48 H16        -6.5400    0.4870   -0.3620 h4        1 3P4      0.048100
     49 H171       -4.1400   -2.5500    1.7820 h1        1 3P4      0.067700
     50 H172       -3.9130   -3.0760    0.0370 h1        1 3P4      0.067700
     51 H181        7.9410    0.7330    2.2410 hc        1 3P4      0.051700
     52 H182        7.9200   -0.9810    1.6490 hc        1 3P4      0.051700
     53 H183        9.3410    0.0870    1.2860 hc        1 3P4      0.051700
     54 H191       -1.5810   -3.8450    0.5610 hc        1 3P4      0.055700
     55 H192       -1.7440   -3.2650    2.2660 hc        1 3P4      0.055700
     56 HA         -5.4340    4.9090   -1.0790 ho        1 3P4      0.432000
     57 H21        -3.7360   -4.9060    2.5510 ha        1 3P4      0.130000
     58 H221       -1.7140   -6.2930    0.6220 ha        1 3P4      0.118000
     59 H222       -2.9770   -7.1150    1.6990 ha        1 3P4      0.118000
     60 H231       -7.3620    2.0270   -1.6690 ha        1 3P4      0.136500
     61 H232       -7.3510    3.8760   -1.8030 ha        1 3P4      0.136500
@<TRIPOS>BOND
     1    1    2 1   
     2    1    3 2   
     3    1    4 1   
     4    2    5 2   
     5    2    6 1   
     6    3    7 1   
     7    3    8 1   
     8    4    9 2   
     9    5    7 1   
    10    5   10 1   
    11    6   11 1   
    12    6   33 1   
    13    6   34 1   
    14    7   35 1   
    15    8   12 1   
    16    8   13 2   
    17    9   12 1   
    18    9   14 1   
    19   10   15 1   
    20   10   16 1   
    21   10   36 1   
    22   11   37 1   
    23   11   38 1   
    24   11   39 1   
    25   12   40 1   
    26   14   17 ar  
    27   14   18 ar  
    28   15   19 1   
    29   15   41 1   
    30   15   42 1   
    31   16   19 1   
    32   16   43 1   
    33   16   44 1   
    34   17   20 ar  
    35   17   21 1   
    36   18   22 ar  
    37   18   45 1   
    38   19   23 1   
    39   20   24 ar  
    40   21   25 1   
    41   22   24 ar  
    42   22   26 1   
    43   23   27 1   
    44   23   46 1   
    45   23   47 1   
    46   24   48 1   
    47   25   28 1   
    48   25   49 1   
    49   25   50 1   
    50   26   29 1   
    51   26   32 2   
    52   27   51 1   
    53   27   52 1   
    54   27   53 1   
    55   28   30 1   
    56   28   54 1   
    57   28   55 1   
    58   29   56 1   
    59   30   31 2   
    60   30   57 1   
    61   31   58 1   
    62   31   59 1   
    63   32   60 1   
    64   32   61 1   
@<TRIPOS>SUBSTRUCTURE
     1 3P4         1 TEMP              0 ****  ****    0 ROOT
