@<TRIPOS>MOLECULE
3P4
   61    50     1     0     0
SMALL
bcc


@<TRIPOS>ATOM
      1 C1          0.5800   -0.5690    0.4710 c1        1 3P4     -0.030000
      2 C2          1.9700   -0.5380    0.4530 c1        1 3P4      0.088000
      3 C3          0.1860   -0.6820    1.7500 c1        1 3P4     -0.082000
      4 N1         -0.3610   -0.5380   -0.5440 n1        1 3P4     -0.160000
      5 N2          2.4060   -0.6330    1.7250 n2        1 3P4     -0.040000
      6 C4          2.8350   -0.4930   -0.8470 c2        1 3P4     -0.130000
      7 N3          1.3170   -0.7220    2.5410 n1        1 3P4     -0.088000
      8 C5         -1.1700   -0.7680    2.0520 c1        1 3P4      0.363000
      9 C6         -1.6690   -0.6210   -0.2490 c1        1 3P4      0.236000
     10 C7          3.7020   -0.6350    2.2780 cv        1 3P4     -0.047000
     11 C8          3.0010    0.9560   -1.2930 c3        1 3P4     -0.220000
     12 N4         -2.0780   -0.7380    1.0700 n2        1 3P4     -0.295000
     13 O1         -1.5290   -0.8690    3.2000 o         1 3P4     -0.282000
     14 C9         -2.7300   -0.5930   -1.2120 c1        1 3P4     -0.188000
     15 C10         3.8650   -1.6240    3.3450 cy        1 3P4     -0.107000
     16 C11         3.8980    0.4310    3.2290 cy        1 3P4     -0.107000
     17 C12        -3.2940    0.6020   -1.7000 c1        1 3P4      0.182000
     18 C13        -3.2860   -1.8160   -1.5540 c1        1 3P4      0.023000
     19 N5          4.0860   -0.5520    4.3110 n3        1 3P4     -0.237000
     20 N6         -4.3950    0.5550   -2.5140 n1        1 3P4     -0.195000
     21 O2         -2.6740    1.8660   -1.3920 os        1 3P4     -0.236000
     22 C14        -4.3920   -1.8650   -2.3710 c1        1 3P4     -0.125000
     23 C15         5.5040   -0.5430    4.7480 c3        1 3P4     -0.089000
     24 C16        -4.9560   -0.6790   -2.8580 c1        1 3P4      0.027000
     25 C17        -3.1290    2.9690   -2.2150 c3        1 3P4     -0.001000
     26 C20        -5.0350   -3.1290   -2.9590 c2        1 3P4      0.078000
     27 C18         5.5620   -0.4790    6.2690 c3        1 3P4     -0.216000
     28 C19        -1.9490    3.6180   -2.8900 c3        1 3P4     -0.161000
     29 O3         -4.4430   -3.7730   -4.0990 oh        1 3P4     -0.274000
     30 C21        -2.4480    4.5220   -4.0070 c2        1 3P4     -0.182000
     31 C22        -1.8990    4.4290   -5.2700 c1        1 3P4     -0.191000
     32 C23        -6.1450   -3.6320   -2.4090 c1        1 3P4     -0.299000
     33 H4C1        2.3990   -0.9950   -1.5420 ha        1 3P4      0.137500
     34 H4C2        3.6970   -0.8750   -0.6700 ha        1 3P4      0.137500
     35 H3          1.3330   -0.7970    3.4700 DU        1 3P4      0.199000
     36 H7          4.4030   -0.6790    1.6180 ha        1 3P4      0.163000
     37 H8C1        2.8760    1.5380   -0.5400 hc        1 3P4      0.097667
     38 H8C2        3.9100    1.0870   -1.6640 hc        1 3P4      0.097667
     39 H8C3        2.3390    1.1630   -1.9760 hc        1 3P4      0.097667
     40 H4         -2.9630   -0.7940    1.2660 hn        1 3P4      0.291000
     41 H101        3.0160   -2.1460    3.5250 h1        1 3P4      0.125000
     42 H102        4.6620   -2.1960    3.2190 h1        1 3P4      0.125000
     43 H111        3.1120    0.9670    3.3500 h1        1 3P4      0.125000
     44 H112        4.6800    0.9380    3.0550 h1        1 3P4      0.125000
     45 H13        -2.8900   -2.6490   -1.2110 ha        1 3P4      0.179000
     46 H151        5.9470   -1.3540    4.4370 h1        1 3P4      0.089500
     47 H152        5.9610    0.2490    4.3680 h1        1 3P4      0.089500
     48 H16        -5.7410   -0.7140   -3.4400 ha        1 3P4      0.186000
     49 H171       -3.7460    2.6360   -2.8930 h1        1 3P4      0.116000
     50 H172       -3.6040    3.6530   -1.6310 h1        1 3P4      0.116000
     51 H181        6.4910   -0.5620    6.5630 hc        1 3P4      0.091000
     52 H182        5.2100    0.3500    6.5630 hc        1 3P4      0.091000
     53 H183        5.0240   -1.2220    6.6530 hc        1 3P4      0.091000
     54 H191       -1.4500    4.1460   -2.2400 hc        1 3P4      0.102000
     55 H192       -1.3470    2.9050   -3.2760 hc        1 3P4      0.102000
     56 HA         -4.9740   -4.4610   -4.3700 ho        1 3P4      0.230000
     57 H21        -3.1670    5.1750   -3.8280 ha        1 3P4      0.123000
     58 H221       -1.1830    3.7790   -5.4490 DU        1 3P4      0.199000
     59 H222       -2.2270    5.0220   -6.0020 ha        1 3P4      0.123000
     60 H231       -6.5480   -3.1940   -1.6330 DU        1 3P4      0.199000
     61 H232       -6.5500   -4.4260   -2.7800 ha        1 3P4      0.136000
@<TRIPOS>BOND
     1    1    4 1   
     2    2    5 1   
     3    3    8 1   
     4    5    7 1   
     5    6   11 1   
     6    6   33 1   
     7    6   34 1   
     8    8   13 1   
     9    9   12 1   
    10   10   15 1   
    11   10   16 1   
    12   10   36 1   
    13   11   37 1   
    14   11   38 1   
    15   11   39 1   
    16   12   40 1   
    17   14   18 1   
    18   15   19 1   
    19   15   41 1   
    20   15   42 1   
    21   16   19 1   
    22   16   43 1   
    23   16   44 1   
    24   17   20 1   
    25   17   21 1   
    26   18   45 1   
    27   19   23 1   
    28   21   25 1   
    29   22   24 1   
    30   22   26 1   
    31   23   27 1   
    32   23   46 1   
    33   23   47 1   
    34   24   48 1   
    35   25   28 1   
    36   25   49 1   
    37   25   50 1   
    38   26   29 1   
    39   26   32 1   
    40   27   51 1   
    41   27   52 1   
    42   27   53 1   
    43   28   30 1   
    44   28   54 1   
    45   28   55 1   
    46   29   56 1   
    47   30   31 1   
    48   30   57 1   
    49   31   59 1   
    50   32   61 1   
@<TRIPOS>SUBSTRUCTURE
     1 3P4         1 TEMP              0 ****  ****    0 ROOT
