@<TRIPOS>MOLECULE
3P4
   61    64     1     0     0
SMALL
bcc


@<TRIPOS>ATOM
      1 C1         -0.2300    0.2900   -0.1190 cc        1 3P4      0.104400
      2 C2          1.1900    0.5370   -0.0660 cc        1 3P4      0.060400
      3 C3         -0.6020   -0.0510    1.2280 cd        1 3P4     -0.121900
      4 N1         -1.1270    0.3430   -1.1620 nc        1 3P4     -0.556100
      5 N2          1.5840    0.3350    1.2540 na        1 3P4      0.002600
      6 C4          2.0750    0.9290   -1.1850 c3        1 3P4     -0.045100
      7 N3          0.5180   -0.0000    2.0250 na        1 3P4     -0.113400
      8 C5         -2.0040   -0.3770    1.5540 c         1 3P4      0.724100
      9 C6         -2.3880    0.0380   -0.8510 cd        1 3P4      0.610500
     10 C7          2.9170    0.4960    1.8170 cy        1 3P4     -0.027000
     11 C8          2.9500   -0.2110   -1.6510 c3        1 3P4     -0.102100
     12 N4         -2.8460   -0.3020    0.4370 n         1 3P4     -0.467400
     13 O1         -2.4080   -0.6810    2.6820 o         1 3P4     -0.556500
     14 C9         -3.4260    0.0540   -1.9040 ca        1 3P4     -0.345200
     15 C10         3.4200   -0.6810    2.7270 cy        1 3P4      0.129800
     16 C11         3.0150    1.3910    3.1040 cy        1 3P4      0.129800
     17 C12        -3.3720   -0.8470   -3.0050 ca        1 3P4      0.698600
     18 C13        -4.4740    0.9790   -1.8500 ca        1 3P4     -0.003000
     19 N5          3.2600    0.1810    3.9170 n3        1 3P4     -0.711600
     20 N6         -4.2950   -0.8350   -4.0080 nb        1 3P4     -0.722000
     21 O2         -2.3490   -1.7560   -2.9810 os        1 3P4     -0.450100
     22 C14        -5.4280    0.9980   -2.8740 ca        1 3P4     -0.199100
     23 C15         4.3710    0.2500    4.8440 c3        1 3P4      0.147800
     24 C16        -5.2840    0.0650   -3.9310 ca        1 3P4      0.491200
     25 C17        -2.2520   -2.6840   -4.0870 c3        1 3P4      0.142400
     26 C20        -6.5360    1.9480   -2.8530 ce        1 3P4      0.131900
     27 C18         4.6690   -1.0710    5.5340 c3        1 3P4     -0.098100
     28 C19        -1.0260   -3.5310   -3.7810 c3        1 3P4     -0.056200
     29 O3         -6.7500    2.4500   -1.5790 oh        1 3P4     -0.521100
     30 C21        -0.8750   -4.5960   -4.8020 c2        1 3P4     -0.181200
     31 C22         0.2580   -4.8360   -5.4570 c2        1 3P4     -0.197000
     32 C23        -7.2680    2.3190   -3.9170 c2        1 3P4     -0.297000
     33 H4C1        2.7110    1.8080   -0.8860 hc        1 3P4      0.099700
     34 H4C2        1.4140    1.2660   -2.0350 hc        1 3P4      0.099700
     35 H3          0.6260   -0.2090    3.0050 hn        1 3P4      0.392700
     36 H7          3.6000    0.7810    0.9770 h1        1 3P4      0.123700
     37 H8C1        2.3310   -1.0800   -1.9810 hc        1 3P4      0.058033
     38 H8C2        3.5660    0.1300   -2.5200 hc        1 3P4      0.058033
     39 H8C3        3.6400   -0.5520   -0.8420 hc        1 3P4      0.058033
     40 H4         -3.8140   -0.5240    0.5630 hn        1 3P4      0.371500
     41 H101        2.7750   -1.5890    2.7860 h1        1 3P4      0.085950
     42 H102        4.4670   -0.9820    2.4740 h1        1 3P4      0.085950
     43 H111        2.0880    1.9220    3.4260 h1        1 3P4      0.085950
     44 H112        3.8600    2.1210    3.0360 h1        1 3P4      0.085950
     45 H13        -4.5560    1.6950   -1.0150 ha        1 3P4      0.169000
     46 H151        5.3150    0.6120    4.3370 h1        1 3P4      0.050200
     47 H152        4.0880    1.0160    5.6220 h1        1 3P4      0.050200
     48 H16        -6.0120    0.0340   -4.7660 h4        1 3P4      0.048100
     49 H171       -3.1830   -3.3080   -4.1260 h1        1 3P4      0.067700
     50 H172       -2.1290   -2.1120   -5.0410 h1        1 3P4      0.067700
     51 H181        4.9560   -1.8570    4.7950 hc        1 3P4      0.051700
     52 H182        3.7860   -1.4320    6.1140 hc        1 3P4      0.051700
     53 H183        5.5200   -0.9180    6.2410 hc        1 3P4      0.051700
     54 H191       -0.1190   -2.8720   -3.7410 hc        1 3P4      0.055700
     55 H192       -1.1430   -4.0010   -2.7670 hc        1 3P4      0.055700
     56 HA         -7.5000    3.0620   -1.6190 ho        1 3P4      0.432000
     57 H21        -1.7770   -5.2060   -4.9770 ha        1 3P4      0.130000
     58 H221        1.1720   -4.2460   -5.3080 ha        1 3P4      0.118000
     59 H222        0.3460   -5.6470   -6.1930 ha        1 3P4      0.118000
     60 H231       -7.0790    1.9300   -4.9230 ha        1 3P4      0.136500
     61 H232       -8.0920    3.0370   -3.8350 ha        1 3P4      0.136500
@<TRIPOS>BOND
     1    1    2 1   
     2    1    3 2   
     3    1    4 1   
     4    2    5 2   
     5    2    6 1   
     6    3    7 1   
     7    3    8 1   
     8    4    9 2   
     9    5    7 1   
    10    5   10 1   
    11    6   11 1   
    12    6   33 1   
    13    6   34 1   
    14    7   35 1   
    15    8   12 1   
    16    8   13 2   
    17    9   12 1   
    18    9   14 1   
    19   10   15 1   
    20   10   16 1   
    21   10   36 1   
    22   11   37 1   
    23   11   38 1   
    24   11   39 1   
    25   12   40 1   
    26   14   17 ar  
    27   14   18 ar  
    28   15   19 1   
    29   15   41 1   
    30   15   42 1   
    31   16   19 1   
    32   16   43 1   
    33   16   44 1   
    34   17   20 ar  
    35   17   21 1   
    36   18   22 ar  
    37   18   45 1   
    38   19   23 1   
    39   20   24 ar  
    40   21   25 1   
    41   22   24 ar  
    42   22   26 1   
    43   23   27 1   
    44   23   46 1   
    45   23   47 1   
    46   24   48 1   
    47   25   28 1   
    48   25   49 1   
    49   25   50 1   
    50   26   29 1   
    51   26   32 2   
    52   27   51 1   
    53   27   52 1   
    54   27   53 1   
    55   28   30 1   
    56   28   54 1   
    57   28   55 1   
    58   29   56 1   
    59   30   31 2   
    60   30   57 1   
    61   31   58 1   
    62   31   59 1   
    63   32   60 1   
    64   32   61 1   
@<TRIPOS>SUBSTRUCTURE
     1 3P4         1 TEMP              0 ****  ****    0 ROOT
