@<TRIPOS>MOLECULE
3P5
   56    59     1     0     0
SMALL
bcc


@<TRIPOS>ATOM
      1 BR1         0.0570   -0.5470    0.0500 br        1 3P5     -0.056100
      2 C2          1.9030   -0.2570    0.1440 ca        1 3P5     -0.118900
      3 C3          2.5680   -0.0480    1.3680 ca        1 3P5      0.181100
      4 C4          3.9620    0.1710    1.3900 ca        1 3P5     -0.153000
      5 C6          4.6760    0.1780    0.2040 ca        1 3P5     -0.080000
      6 C8          4.0260   -0.0320   -1.0220 ca        1 3P5     -0.158300
      7 C9          2.6470   -0.2410   -1.0400 ca        1 3P5     -0.058000
      8 C11         4.7920    0.0070   -2.2970 c3        1 3P5     -0.018100
      9 C14         4.9430   -1.3820   -2.9170 c3        1 3P5     -0.055700
     10 C16         5.6310   -1.2930   -4.2880 c3        1 3P5      0.130100
     11 C18         5.7320   -2.7200   -4.9040 c3        1 3P5      0.158500
     12 C20         6.6000   -3.5990   -4.0340 c3        1 3P5     -0.326600
     13 S23         5.8550   -3.9010   -2.4760 s6        1 3P5      1.344000
     14 C24         5.7340   -2.2850   -1.9900 c3        1 3P5     -0.352600
     15 O27         6.7800   -4.5820   -1.7000 o         1 3P5     -0.614800
     16 O28         4.6030   -4.4490   -2.7370 o         1 3P5     -0.614800
     17 N29         6.1710   -2.6880   -6.3410 n4        1 3P5     -0.757000
     18 C31         7.6080   -2.3130   -6.5510 c3        1 3P5      0.173100
     19 C34         7.9260   -2.2530   -8.0060 ca        1 3P5     -0.185300
     20 C35         8.5950   -3.3160   -8.6180 ca        1 3P5     -0.100000
     21 C37         8.9280   -3.2530   -9.9790 ca        1 3P5     -0.017300
     22 C38         8.5750   -2.1090  -10.7100 ca        1 3P5     -0.088000
     23 C40         7.9070   -1.0500  -10.0970 ca        1 3P5     -0.111000
     24 C42         7.5800   -1.1150   -8.7450 ca        1 3P5     -0.117000
     25 C44         9.6370   -4.3790  -10.5970 cx        1 3P5     -0.120400
     26 C46        10.6710   -4.1440  -11.6740 cx        1 3P5     -0.109400
     27 C49         9.3640   -4.7730  -12.0310 cx        1 3P5     -0.109400
     28 O52         4.8780   -0.5460   -5.2310 oh        1 3P5     -0.627800
     29 O54         1.9610   -0.0400    2.5920 oh        1 3P5     -0.475100
     30 H4          4.4560    0.3390    2.3600 ha        1 3P5      0.170000
     31 H6          5.7630    0.3590    0.2260 ha        1 3P5      0.139000
     32 H9          2.1350   -0.3930   -2.0050 ha        1 3P5      0.144000
     33 H11         5.8100    0.4470   -2.1240 hc        1 3P5      0.054700
     34 H11A        4.2460    0.6800   -3.0120 hc        1 3P5      0.054700
     35 H14         3.9090   -1.8150   -3.0610 hc        1 3P5      0.096700
     36 H16         6.6550   -0.8370   -4.1770 h1        1 3P5      0.062700
     37 H18         4.6760   -3.1510   -4.9300 hx        1 3P5      0.131700
     38 H20         6.7810   -4.5920   -4.5270 h1        1 3P5      0.125700
     39 H20A        7.6130   -3.1410   -3.8860 h1        1 3P5      0.125700
     40 H24         5.2330   -2.2240   -0.9750 h1        1 3P5      0.146700
     41 H24A        6.7470   -1.8290   -1.8130 h1        1 3P5      0.146700
     42 HN29        5.5810   -2.0000   -6.8340 hn        1 3P5      0.462300
     43 H31         8.2490   -3.0810   -6.0290 hx        1 3P5      0.102700
     44 H31A        7.7710   -1.3080   -6.0640 hx        1 3P5      0.102700
     45 H35         8.8780   -4.2040   -8.0310 ha        1 3P5      0.139000
     46 H38         8.8330   -2.0450  -11.7810 ha        1 3P5      0.159000
     47 H40         7.6430   -0.1550  -10.6830 ha        1 3P5      0.158000
     48 H42         7.0690   -0.2700   -8.2610 ha        1 3P5      0.136000
     49 H44         9.8400   -5.2030   -9.8800 hc        1 3P5      0.089700
     50 H46        11.5870   -4.7630  -11.6630 hc        1 3P5      0.083450
     51 H46A       10.8800   -3.1090  -12.0000 hc        1 3P5      0.083450
     52 H49         9.3300   -5.8500  -12.2790 hc        1 3P5      0.083450
     53 H49A        8.6270   -4.1940  -12.6160 hc        1 3P5      0.083450
     54 HO52        4.6840    0.3210   -4.8500 ho        1 3P5      0.453000
     55 HO54        1.0050   -0.1760    2.4750 ho        1 3P5      0.443000
     56 H292        6.0090   -3.6130   -6.7540 hn        1 3P5      0.462300
@<TRIPOS>BOND
     1    1    2 1   
     2    2    3 ar  
     3    2    7 ar  
     4    3    4 ar  
     5    3   29 1   
     6    4    5 ar  
     7    4   30 1   
     8    5    6 ar  
     9    5   31 1   
    10    6    7 ar  
    11    6    8 1   
    12    7   32 1   
    13    8    9 1   
    14    8   33 1   
    15    8   34 1   
    16    9   10 1   
    17    9   14 1   
    18    9   35 1   
    19   10   11 1   
    20   10   28 1   
    21   10   36 1   
    22   11   12 1   
    23   11   17 1   
    24   11   37 1   
    25   12   13 1   
    26   12   38 1   
    27   12   39 1   
    28   13   14 1   
    29   13   15 2   
    30   13   16 2   
    31   14   40 1   
    32   14   41 1   
    33   17   18 1   
    34   17   42 1   
    35   17   56 1   
    36   18   19 1   
    37   18   43 1   
    38   18   44 1   
    39   19   20 ar  
    40   19   24 ar  
    41   20   21 ar  
    42   20   45 1   
    43   21   22 ar  
    44   21   25 1   
    45   22   23 ar  
    46   22   46 1   
    47   23   24 ar  
    48   23   47 1   
    49   24   48 1   
    50   25   26 1   
    51   25   27 1   
    52   25   49 1   
    53   26   27 1   
    54   26   50 1   
    55   26   51 1   
    56   27   52 1   
    57   27   53 1   
    58   28   54 1   
    59   29   55 1   
@<TRIPOS>SUBSTRUCTURE
     1 3P5         1 TEMP              0 ****  ****    0 ROOT
