@<TRIPOS>MOLECULE
3P5
   55    58     1     0     0
SMALL
bcc


@<TRIPOS>ATOM
      1 BR1         6.3280   -1.5670   -0.3480 br        1 3P5     -0.083100
      2 C2          5.2850   -0.3450    0.6180 ca        1 3P5     -0.111900
      3 C3          5.8300    0.8260    1.1730 ca        1 3P5      0.157100
      4 C4          5.0120    1.7170    1.8940 ca        1 3P5     -0.158000
      5 C6          3.6630    1.4360    2.0530 ca        1 3P5     -0.086000
      6 C8          3.1050    0.2730    1.5030 ca        1 3P5     -0.122300
      7 C9          3.9220   -0.6080    0.7910 ca        1 3P5     -0.060000
      8 C11         1.6620   -0.0380    1.6910 c3        1 3P5     -0.024100
      9 C14         0.8450    0.2330    0.4310 c3        1 3P5     -0.026700
     10 C16        -0.5590   -0.3810    0.5790 c3        1 3P5      0.144100
     11 C18        -1.3970   -0.1660   -0.7130 c3        1 3P5      0.179500
     12 C20        -1.5150    1.3370   -0.9990 c3        1 3P5     -0.361600
     13 S23        -0.0270    2.1160   -1.2960 s6        1 3P5      1.340000
     14 C24         0.7560    1.7210    0.1590 c3        1 3P5     -0.331600
     15 O27        -0.2470    3.4990   -1.3380 o         1 3P5     -0.648300
     16 O28         0.6150    1.5320   -2.3920 o         1 3P5     -0.648300
     17 N29        -2.6560   -0.8870   -0.6780 n3        1 3P5     -0.826200
     18 C31        -3.5640   -0.5280    0.3960 c3        1 3P5      0.205100
     19 C34        -4.9780   -0.9710    0.1550 ca        1 3P5     -0.102300
     20 C35        -6.0240   -0.0570    0.2970 ca        1 3P5     -0.118000
     21 C37        -7.3540   -0.4600    0.1100 ca        1 3P5     -0.043300
     22 C38        -7.6190   -1.7930   -0.2260 ca        1 3P5     -0.124000
     23 C40        -6.5750   -2.7050   -0.3700 ca        1 3P5     -0.127000
     24 C42        -5.2560   -2.3000   -0.1790 ca        1 3P5     -0.116000
     25 C44        -8.4310    0.5270    0.2700 cx        1 3P5     -0.088400
     26 C46        -9.7660    0.1280    0.8530 cx        1 3P5     -0.123400
     27 C49        -9.6640    0.4740   -0.6000 cx        1 3P5     -0.123400
     28 O52        -0.3420   -1.7610    0.8270 oh        1 3P5     -0.595800
     29 O54         7.1480    1.1940    1.0740 oh        1 3P5     -0.489100
     30 H4          5.4620    2.6250    2.3210 ha        1 3P5      0.157000
     31 H6          3.0260    2.1330    2.6200 ha        1 3P5      0.137000
     32 H9          3.4790   -1.5220    0.3620 ha        1 3P5      0.155000
     33 H11         1.5500   -1.1250    1.9610 hc        1 3P5      0.064700
     34 H11A        1.2440    0.5640    2.5400 hc        1 3P5      0.064700
     35 H14         1.3580   -0.2720   -0.4380 hc        1 3P5      0.086700
     36 H16        -1.0910    0.0780    1.4590 h1        1 3P5      0.037700
     37 H18        -0.8110   -0.6310   -1.5670 h1        1 3P5      0.090700
     38 H20        -2.1870    1.4740   -1.8900 h1        1 3P5      0.117200
     39 H20A       -2.0530    1.8310   -0.1470 h1        1 3P5      0.117200
     40 H24         0.2620    2.2220    1.0340 h1        1 3P5      0.124200
     41 H24A        1.8100    2.1220    0.1580 h1        1 3P5      0.124200
     42 HN29       -3.1110   -0.8260   -1.5690 hn        1 3P5      0.381800
     43 H31        -3.1840   -1.0380    1.3310 h1        1 3P5      0.038200
     44 H31A       -3.5610    0.5840    0.6040 h1        1 3P5      0.038200
     45 H35        -5.8060    0.9900    0.5600 ha        1 3P5      0.131000
     46 H38        -8.6580   -2.1230   -0.3780 ha        1 3P5      0.134000
     47 H40        -6.7950   -3.7500   -0.6350 ha        1 3P5      0.135000
     48 H42        -4.4340   -3.0240   -0.2900 ha        1 3P5      0.143000
     49 H44        -8.0490    1.5350    0.5370 hc        1 3P5      0.082700
     50 H46        -9.9280   -0.9250    1.1450 hc        1 3P5      0.074200
     51 H46A      -10.2690    0.8290    1.5420 hc        1 3P5      0.074200
     52 H49       -10.0940    1.4260   -0.9600 hc        1 3P5      0.074200
     53 H49A       -9.7540   -0.3300   -1.3530 hc        1 3P5      0.074200
     54 HO52       -1.1960   -2.2090    0.7850 ho        1 3P5      0.425000
     55 HO54        7.6190    0.5220    0.5550 ho        1 3P5      0.433000
@<TRIPOS>BOND
     1    1    2 1   
     2    2    3 ar  
     3    2    7 ar  
     4    3    4 ar  
     5    3   29 1   
     6    4    5 ar  
     7    4   30 1   
     8    5    6 ar  
     9    5   31 1   
    10    6    7 ar  
    11    6    8 1   
    12    7   32 1   
    13    8    9 1   
    14    8   33 1   
    15    8   34 1   
    16    9   10 1   
    17    9   14 1   
    18    9   35 1   
    19   10   11 1   
    20   10   28 1   
    21   10   36 1   
    22   11   12 1   
    23   11   17 1   
    24   11   37 1   
    25   12   13 1   
    26   12   38 1   
    27   12   39 1   
    28   13   14 1   
    29   13   15 2   
    30   13   16 2   
    31   14   40 1   
    32   14   41 1   
    33   17   18 1   
    34   17   42 1   
    35   18   19 1   
    36   18   43 1   
    37   18   44 1   
    38   19   20 ar  
    39   19   24 ar  
    40   20   21 ar  
    41   20   45 1   
    42   21   22 ar  
    43   21   25 1   
    44   22   23 ar  
    45   22   46 1   
    46   23   24 ar  
    47   23   47 1   
    48   24   48 1   
    49   25   26 1   
    50   25   27 1   
    51   25   49 1   
    52   26   27 1   
    53   26   50 1   
    54   26   51 1   
    55   27   52 1   
    56   27   53 1   
    57   28   54 1   
    58   29   55 1   
@<TRIPOS>SUBSTRUCTURE
     1 3P5         1 TEMP              0 ****  ****    0 ROOT
