@<TRIPOS>MOLECULE
3P5
   56    59     1     0     0
SMALL
bcc


@<TRIPOS>ATOM
      1 BR1        -0.0180    0.0240   -0.3740 br        1 3P5     -0.058100
      2 C2          1.8330    0.0810   -0.1030 ca        1 3P5     -0.117900
      3 C3          2.4000    0.1750    1.1810 ca        1 3P5      0.181100
      4 C4          3.8020    0.2200    1.3370 ca        1 3P5     -0.151000
      5 C6          4.6200    0.1680    0.2200 ca        1 3P5     -0.081000
      6 C8          4.0670    0.0700   -1.0660 ca        1 3P5     -0.156300
      7 C9          2.6800    0.0340   -1.2140 ca        1 3P5     -0.060000
      8 C11         4.9480    0.0360   -2.2640 c3        1 3P5     -0.021100
      9 C14         5.0760   -1.3790   -2.8280 c3        1 3P5     -0.054700
     10 C16         5.6930   -1.3210   -4.2320 c3        1 3P5      0.124100
     11 C18         5.8130   -2.7630   -4.8150 c3        1 3P5      0.125500
     12 C20         6.7140   -3.6070   -3.9460 c3        1 3P5     -0.322600
     13 S23         6.0150   -3.8750   -2.3620 s6        1 3P5      1.343000
     14 C24         5.9090   -2.2470   -1.9070 c3        1 3P5     -0.348600
     15 O27         6.9560   -4.5430   -1.5950 o         1 3P5     -0.615300
     16 O28         4.7510   -4.4190   -2.5760 o         1 3P5     -0.615300
     17 N29         6.2300   -2.7320   -6.2580 n4        1 3P5     -0.757000
     18 C31         7.6800   -2.4200   -6.4880 c3        1 3P5      0.175100
     19 C34         7.9620   -2.3010   -7.9470 ca        1 3P5     -0.187300
     20 C35         8.5480   -3.3680   -8.6330 ca        1 3P5     -0.101000
     21 C37         8.8510   -3.2510   -9.9970 ca        1 3P5     -0.018300
     22 C38         8.5510   -2.0500  -10.6570 ca        1 3P5     -0.088000
     23 C40         7.9650   -0.9880   -9.9700 ca        1 3P5     -0.112000
     24 C42         7.6680   -1.1060   -8.6140 ca        1 3P5     -0.116000
     25 C44         9.4740   -4.3830  -10.6930 cx        1 3P5     -0.120400
     26 C46        10.4970   -4.1510  -11.7830 cx        1 3P5     -0.109400
     27 C49         9.1450   -4.6790  -12.1390 cx        1 3P5     -0.109400
     28 O52         4.9370   -0.5490   -5.1440 oh        1 3P5     -0.605800
     29 O54         1.6870    0.2280    2.3460 oh        1 3P5     -0.474100
     30 H4          4.2200    0.3020    2.3520 ha        1 3P5      0.170000
     31 H6          5.7130    0.2160    0.3460 ha        1 3P5      0.139000
     32 H9          2.2460   -0.0280   -2.2260 ha        1 3P5      0.138000
     33 H11         4.5270    0.7130   -3.0570 hc        1 3P5      0.064200
     34 H11A        5.9690    0.4250   -2.0050 hc        1 3P5      0.064200
     35 H14         4.0400   -1.8250   -2.9070 hc        1 3P5      0.087700
     36 H16         6.7070   -0.8300   -4.1940 h1        1 3P5      0.095700
     37 H18         4.7720   -3.2230   -4.8160 hx        1 3P5      0.120700
     38 H20         7.7250   -3.1320   -3.8380 h1        1 3P5      0.125700
     39 H20A        6.8960   -4.6110   -4.4170 h1        1 3P5      0.125700
     40 H24         5.4480   -2.1550   -0.8760 h1        1 3P5      0.147200
     41 H24A        6.9270   -1.7820   -1.7850 h1        1 3P5      0.147200
     42 HN29        5.6660   -2.0050   -6.7290 hn        1 3P5      0.459800
     43 H31         7.9070   -1.4510   -5.9570 hx        1 3P5      0.103700
     44 H31A        8.2920   -3.2460   -6.0240 hx        1 3P5      0.103700
     45 H35         8.7920   -4.3020   -8.1020 ha        1 3P5      0.139000
     46 H38         8.7860   -1.9440  -11.7290 ha        1 3P5      0.159000
     47 H40         7.7420   -0.0480  -10.5000 ha        1 3P5      0.158000
     48 H42         7.2230   -0.2590   -8.0720 ha        1 3P5      0.139000
     49 H44         9.6410   -5.2560  -10.0270 hc        1 3P5      0.088700
     50 H46        11.3720   -4.8240  -11.8280 hc        1 3P5      0.083450
     51 H46A       10.7620   -3.1140  -12.0570 hc        1 3P5      0.083450
     52 H49         8.4330   -4.0240  -12.6730 hc        1 3P5      0.083450
     53 H49A        9.0400   -5.7360  -12.4440 hc        1 3P5      0.083450
     54 HO52        4.0190   -0.5080   -4.8390 ho        1 3P5      0.439000
     55 HO54        0.7370    0.2150    2.1400 ho        1 3P5      0.443000
     56 H292        6.0170   -3.6390   -6.6850 hn        1 3P5      0.459800
@<TRIPOS>BOND
     1    1    2 1   
     2    2    3 ar  
     3    2    7 ar  
     4    3    4 ar  
     5    3   29 1   
     6    4    5 ar  
     7    4   30 1   
     8    5    6 ar  
     9    5   31 1   
    10    6    7 ar  
    11    6    8 1   
    12    7   32 1   
    13    8    9 1   
    14    8   33 1   
    15    8   34 1   
    16    9   10 1   
    17    9   14 1   
    18    9   35 1   
    19   10   11 1   
    20   10   28 1   
    21   10   36 1   
    22   11   12 1   
    23   11   17 1   
    24   11   37 1   
    25   12   13 1   
    26   12   38 1   
    27   12   39 1   
    28   13   14 1   
    29   13   15 2   
    30   13   16 2   
    31   14   40 1   
    32   14   41 1   
    33   17   18 1   
    34   17   42 1   
    35   17   56 1   
    36   18   19 1   
    37   18   43 1   
    38   18   44 1   
    39   19   20 ar  
    40   19   24 ar  
    41   20   21 ar  
    42   20   45 1   
    43   21   22 ar  
    44   21   25 1   
    45   22   23 ar  
    46   22   46 1   
    47   23   24 ar  
    48   23   47 1   
    49   24   48 1   
    50   25   26 1   
    51   25   27 1   
    52   25   49 1   
    53   26   27 1   
    54   26   50 1   
    55   26   51 1   
    56   27   52 1   
    57   27   53 1   
    58   28   54 1   
    59   29   55 1   
@<TRIPOS>SUBSTRUCTURE
     1 3P5         1 TEMP              0 ****  ****    0 ROOT
