@<TRIPOS>MOLECULE
3P5
   56    59     1     0     0
SMALL
bcc


@<TRIPOS>ATOM
      1 Br1        -0.0580   -0.0690   -0.3740 br        1 3P5     -0.058100
      2 C2          1.7910    0.0170   -0.1040 ca        1 3P5     -0.117900
      3 C3          2.3580    0.1250    1.1800 ca        1 3P5      0.181100
      4 C4          3.7590    0.1910    1.3340 ca        1 3P5     -0.151000
      5 C6          4.5770    0.1470    0.2170 ca        1 3P5     -0.081000
      6 C8          4.0250    0.0360   -1.0680 ca        1 3P5     -0.156300
      7 C9          2.6390   -0.0220   -1.2160 ca        1 3P5     -0.060000
      8 C11         4.9050    0.0100   -2.2660 c3        1 3P5     -0.021100
      9 C14         5.0520   -1.4050   -2.8270 c3        1 3P5     -0.054700
     10 C16         5.6650   -1.3430   -4.2320 c3        1 3P5      0.124100
     11 C18         5.8030   -2.7850   -4.8110 c3        1 3P5      0.125500
     12 C20         6.7170   -3.6150   -3.9400 c3        1 3P5     -0.322600
     13 S23         6.0240   -3.8870   -2.3540 s6        1 3P5      1.343000
     14 C24         5.8980   -2.2590   -1.9040 c3        1 3P5     -0.348600
     15 O27         6.9750   -4.5400   -1.5870 o         1 3P5     -0.615300
     16 O28         4.7670   -4.4490   -2.5640 o         1 3P5     -0.615300
     17 N29         6.2170   -2.7540   -6.2540 ny        1 3P5     -0.757000
     18 C31         7.6620   -2.4250   -6.4880 c3        1 3P5      0.175100
     19 C34         7.9400   -2.3080   -7.9480 ca        1 3P5     -0.187300
     20 C35         8.5340   -3.3720   -8.6320 ca        1 3P5     -0.101000
     21 C37         8.8320   -3.2570   -9.9970 ca        1 3P5     -0.018300
     22 C38         8.5200   -2.0610  -10.6600 ca        1 3P5     -0.088000
     23 C40         7.9270   -1.0010   -9.9750 ca        1 3P5     -0.112000
     24 C42         7.6350   -1.1180   -8.6180 ca        1 3P5     -0.116000
     25 C44         9.4640   -4.3850  -10.6910 cx        1 3P5     -0.120400
     26 C46        10.4800   -4.1480  -11.7860 cx        1 3P5     -0.109400
     27 C49         9.1310   -4.6910  -12.1350 cx        1 3P5     -0.109400
     28 O52         4.8980   -0.5840   -5.1440 oh        1 3P5     -0.605800
     29 O54         1.6450    0.1720    2.3450 oh        1 3P5     -0.474100
     30 H4          4.1760    0.2840    2.3490 ha        1 3P5      0.170000
     31 H6          5.6700    0.2110    0.3420 ha        1 3P5      0.139000
     32 H9          2.2050   -0.0940   -2.2260 ha        1 3P5      0.138000
     33 H11         4.4750    0.6790   -3.0610 hc        1 3P5      0.064200
     34 H11A        5.9210    0.4130   -2.0100 hc        1 3P5      0.064200
     35 H14         4.0220   -1.8650   -2.9020 hc        1 3P5      0.087700
     36 H16         6.6730   -0.8400   -4.1970 h1        1 3P5      0.095700
     37 H18         4.7680   -3.2600   -4.8080 hx        1 3P5      0.120700
     38 H20         7.7210   -3.1270   -3.8350 h1        1 3P5      0.125700
     39 H20A        6.9110   -4.6180   -4.4090 h1        1 3P5      0.125700
     40 H24         6.9090   -1.7810   -1.7860 h1        1 3P5      0.147200
     41 H24A        5.4370   -2.1700   -0.8730 h1        1 3P5      0.147200
     42 HN29        5.6430   -2.0360   -6.7260 hn        1 3P5      0.459800
     43 H31         7.8790   -1.4520   -5.9610 hx        1 3P5      0.103700
     44 H31A        8.2850   -3.2410   -6.0220 hx        1 3P5      0.103700
     45 H35         8.7880   -4.3020   -8.0980 ha        1 3P5      0.139000
     46 H38         8.7510   -1.9560  -11.7340 ha        1 3P5      0.159000
     47 H40         7.6940   -0.0650  -10.5080 ha        1 3P5      0.158000
     48 H42         7.1830   -0.2730   -8.0780 ha        1 3P5      0.139000
     49 H44         9.6420   -5.2550  -10.0230 hc        1 3P5      0.088700
     50 H46        11.3610   -4.8140  -11.8320 hc        1 3P5      0.083450
     51 H46A       10.7340   -3.1100  -12.0660 hc        1 3P5      0.083450
     52 H49         8.4110   -4.0450  -12.6680 hc        1 3P5      0.083450
     53 H49A        9.0340   -5.7500  -12.4350 hc        1 3P5      0.083450
     54 HO52        3.9800   -0.5540   -4.8390 ho        1 3P5      0.439000
     55 HO54        0.6950    0.1430    2.1390 ho        1 3P5      0.443000
     56 H292        6.0150   -3.6650   -6.6780 hn        1 3P5      0.459800
@<TRIPOS>BOND
     1    1    2 1   
     2    2    3 ar  
     3    2    7 ar  
     4    3    4 ar  
     5    3   29 1   
     6    4    5 ar  
     7    4   30 1   
     8    5    6 ar  
     9    5   31 1   
    10    6    7 ar  
    11    6    8 1   
    12    7   32 1   
    13    8    9 1   
    14    8   33 1   
    15    8   34 1   
    16    9   10 1   
    17    9   14 1   
    18    9   35 1   
    19   10   11 1   
    20   10   28 1   
    21   10   36 1   
    22   11   12 1   
    23   11   17 1   
    24   11   37 1   
    25   12   13 1   
    26   12   38 1   
    27   12   39 1   
    28   13   14 1   
    29   13   15 2   
    30   13   16 2   
    31   14   40 1   
    32   14   41 1   
    33   17   18 1   
    34   17   42 1   
    35   17   56 1   
    36   18   19 1   
    37   18   43 1   
    38   18   44 1   
    39   19   20 ar  
    40   19   24 ar  
    41   20   21 ar  
    42   20   45 1   
    43   21   22 ar  
    44   21   25 1   
    45   22   23 ar  
    46   22   46 1   
    47   23   24 ar  
    48   23   47 1   
    49   24   48 1   
    50   25   26 1   
    51   25   27 1   
    52   25   49 1   
    53   26   27 1   
    54   26   50 1   
    55   26   51 1   
    56   27   52 1   
    57   27   53 1   
    58   28   54 1   
    59   29   55 1   
@<TRIPOS>SUBSTRUCTURE
     1 3P5         1 TEMP              0 ****  ****    0 ROOT
