@<TRIPOS>MOLECULE
3P5
   55    53     1     0     0
SMALL
bcc


@<TRIPOS>ATOM
      1 BR1        -5.9140    1.6600    4.9560 br        1 3P5      0.061000
      2 C2         -4.0320    1.8600    5.2440 c2        1 3P5     -0.252000
      3 C3         -3.5450    2.0800    6.5300 c2        1 3P5      0.116000
      4 C4         -2.1810    2.2660    6.7340 c1        1 3P5     -0.157000
      5 C6         -1.3040    2.2320    5.6540 c1        1 3P5     -0.083000
      6 C8         -1.7910    2.0120    4.3690 c1        1 3P5     -0.118000
      7 C9         -3.1560    1.8260    4.1650 c2        1 3P5     -0.060000
      8 C11        -0.8360    2.0900    3.1610 c2        1 3P5     -0.486500
      9 C14        -0.6640    0.7040    2.5590 c3        1 3P5     -0.098000
     10 C16        -0.4170    0.8610    1.0040 c3        1 3P5      0.014000
     11 C18        -0.0790   -0.4850    0.2510 c3        1 3P5      0.025000
     12 C20         1.0570   -1.2720    0.8510 c3        1 3P5     -0.872000
     13 S23         0.7780   -1.5310    2.5340 s4        1 3P5      2.029800
     14 C24         0.4510   -0.0120    3.3090 c2        1 3P5     -0.486500
     15 O27         1.9210   -2.1690    3.1400 o         1 3P5     -0.536900
     16 O28        -0.3750   -2.3820    2.6840 o         1 3P5     -0.536900
     17 N29         0.2550   -0.1720   -1.1090 n3        1 3P5     -0.294000
     18 C31        -0.1570   -1.2540   -1.9680 c3        1 3P5     -0.037000
     19 C34         0.3680   -1.0060   -3.3940 c2        1 3P5     -0.082000
     20 C35         1.4860   -1.6980   -3.8550 c2        1 3P5     -0.108000
     21 C37         1.9870   -1.4430   -5.1310 c1        1 3P5     -0.036000
     22 C38         1.3690   -0.4970   -5.9450 c2        1 3P5     -0.127000
     23 C40         0.2500    0.1950   -5.4830 c1        1 3P5     -0.125000
     24 C42        -0.2500   -0.0600   -4.2080 c1        1 3P5     -0.131000
     25 C44         3.2580   -2.1620   -5.6160 cu        1 3P5     -0.133000
     26 C46         4.1730   -1.3480   -6.5180 cx        1 3P5     -0.203000
     27 C49         3.3200   -2.4620   -7.1060 cx        1 3P5     -0.203000
     28 O52        -1.5430    1.4030    0.4380 oh        1 3P5     -0.324000
     29 O54        -4.4360    2.1150    7.6280 oh        1 3P5     -0.242000
     30 H4         -1.8370    2.4220    7.6430 ha        1 3P5      0.159000
     31 H6         -0.3420    2.3640    5.7990 ha        1 3P5      0.138000
     32 H9         -3.4990    1.6710    3.2600 ha        1 3P5      0.152000
     33 H11        -1.2120    2.6960    2.4850 ha        1 3P5      0.126250
     34 H11A        0.0390    2.4300    3.4560 ha        1 3P5      0.126250
     35 H14        -1.4970    0.2030    2.6910 hc        1 3P5      0.127000
     36 H16         0.3310    1.4860    0.8700 h1        1 3P5      0.093000
     37 H18        -0.8820   -1.0500    0.2520 h1        1 3P5      0.092000
     38 H20         1.1750   -2.1250    0.3740 h1        1 3P5      0.166500
     39 H20A        1.9270   -0.8400    0.6930 h1        1 3P5      0.166500
     40 H24         1.2320    0.5410    3.5370 ha        1 3P5      0.126250
     41 H24A        0.1180   -0.2160    4.2110 ha        1 3P5      0.126250
     42 HN29       -0.1740    0.5990   -1.3600 hn        1 3P5      0.179000
     43 H31         0.2080   -2.0980   -1.6280 h1        1 3P5      0.081000
     44 H31A       -1.1400   -1.3040   -1.9840 h1        1 3P5      0.081000
     45 H35         1.9230   -2.3670   -3.2790 ha        1 3P5      0.135000
     46 H38         1.7210   -0.3170   -6.8430 ha        1 3P5      0.132000
     47 H40        -0.1850    0.8630   -6.0570 ha        1 3P5      0.132000
     48 H42        -1.0380    0.4280   -3.8830 ha        1 3P5      0.134000
     49 H44         3.7050   -2.8120   -5.0310 ha        1 3P5      0.122000
     50 H46         3.8740   -0.4350   -6.7150 hc        1 3P5      0.112500
     51 H46A        5.1330   -1.5430   -6.4390 hc        1 3P5      0.112500
     52 H49         3.8020   -3.2810   -7.3570 hc        1 3P5      0.112500
     53 H49A        2.5450   -2.1720   -7.6310 hc        1 3P5      0.112500
     54 HO52       -1.3560    2.2210    0.1280 ho        1 3P5      0.209000
     55 HO54       -4.5650    1.2890    7.9310 ho        1 3P5      0.233000
@<TRIPOS>BOND
     1    1    2 1   
     2    2    3 1   
     3    2    7 1   
     4    3    4 1   
     5    3   29 1   
     6    4   30 1   
     7    5    6 1   
     8    5   31 1   
     9    6    7 1   
    10    7   32 1   
    11    8    9 1   
    12    8   33 1   
    13    8   34 1   
    14    9   10 1   
    15    9   14 1   
    16    9   35 1   
    17   10   11 1   
    18   10   28 1   
    19   10   36 1   
    20   11   12 1   
    21   11   17 1   
    22   11   37 1   
    23   12   13 1   
    24   12   38 1   
    25   12   39 1   
    26   13   15 1   
    27   13   16 1   
    28   14   40 1   
    29   14   41 1   
    30   17   18 1   
    31   17   42 1   
    32   18   19 1   
    33   18   43 1   
    34   18   44 1   
    35   19   20 1   
    36   19   24 1   
    37   20   21 1   
    38   20   45 1   
    39   21   22 1   
    40   22   23 1   
    41   22   46 1   
    42   23   47 1   
    43   24   48 1   
    44   25   26 1   
    45   25   27 1   
    46   25   49 1   
    47   26   27 1   
    48   26   50 1   
    49   26   51 1   
    50   27   52 1   
    51   27   53 1   
    52   28   54 1   
    53   29   55 1   
@<TRIPOS>SUBSTRUCTURE
     1 3P5         1 TEMP              0 ****  ****    0 ROOT
