@<TRIPOS>MOLECULE
3P6
   63    68     1     0     0
SMALL
bcc


@<TRIPOS>ATOM
      1 C1         -0.2620    0.5840    0.0110 c3        1 3P6     -0.073100
      2 C2          1.1920    0.2740    0.1780 cx        1 3P6     -0.120000
      3 C3          1.5650   -0.0690    1.6000 c3        1 3P6      0.021900
      4 C4          2.3440   -1.3200    1.6510 cc        1 3P6     -0.120600
      5 N5          2.6120   -2.1140    2.7740 na        1 3P6      0.011400
      6 N6          3.3420   -3.1790    2.4760 nc        1 3P6     -0.495800
      7 C7          3.5880   -3.1350    1.1270 cd        1 3P6      0.259800
      8 C8          4.3470   -4.1390    0.3420 c         1 3P6      0.611600
      9 O9          4.3470   -4.0950   -0.9040 o         1 3P6     -0.601100
     10 N10         5.0380   -5.1060    1.0520 n         1 3P6     -0.426100
     11 C11         5.8080   -6.1000    0.4680 cc        1 3P6     -0.109700
     12 C12         6.1380   -6.2840   -0.9480 cc        1 3P6      0.325200
     13 N13         6.9270   -7.3650   -1.0980 nd        1 3P6     -0.499800
     14 N14         7.1730   -7.8650    0.1340 na        1 3P6      0.045400
     15 C15         6.4700   -7.1530    1.1280 cd        1 3P6     -0.186300
     16 C16         7.7610   -9.1930    0.3150 c3        1 3P6      0.164300
     17 C17         9.2350   -9.1270    0.7860 c3        1 3P6     -0.274900
     18 C18        10.1610   -9.4260   -0.3840 c3        1 3P6     -0.066400
     19 C19        11.5690   -9.7340    0.0860 c3        1 3P6     -0.095400
     20 C20        12.1770   -8.5850    0.8640 c3        1 3P6     -0.055400
     21 C21        11.3120   -8.1920    2.0390 c3        1 3P6     -0.314600
     22 S22         9.7520   -7.6620    1.5700 s6        1 3P6      1.319000
     23 O23         9.8820   -6.5840    0.6940 o         1 3P6     -0.644800
     24 O24         8.9860   -7.4810    2.7340 o         1 3P6     -0.644800
     25 C25         6.9360  -10.0790    1.2210 ca        1 3P6     -0.118300
     26 C26         6.1130  -11.0460    0.6300 ca        1 3P6     -0.115500
     27 C27         5.3500  -11.8990    1.4260 ca        1 3P6     -0.132000
     28 C28         5.3990  -11.7900    2.8160 ca        1 3P6     -0.117000
     29 C29         6.2110  -10.8220    3.4070 ca        1 3P6     -0.132000
     30 C30         6.9760   -9.9670    2.6140 ca        1 3P6     -0.115500
     31 C31         2.9690   -1.9570    0.5620 cd        1 3P6     -0.173600
     32 C32         2.9420   -1.4550   -0.8140 c3        1 3P6      0.012900
     33 C33         1.9000   -0.3910   -0.9980 cx        1 3P6     -0.114700
     34 C34         2.1920    1.0650   -0.6710 cx        1 3P6      0.351600
     35 F35         3.3850    1.4920   -0.1780 f         1 3P6     -0.202800
     36 F36         1.7890    2.0670   -1.4990 f         1 3P6     -0.202800
     37 H1         -0.8700   -0.3380    0.1830 hc        1 3P6      0.051033
     38 H2         -0.5790    1.3660    0.7430 hc        1 3P6      0.051033
     39 H3         -0.4700    0.9620   -1.0210 hc        1 3P6      0.051033
     40 H4          0.6350   -0.1610    2.2260 hc        1 3P6      0.069200
     41 H5          2.1790    0.7730    2.0280 hc        1 3P6      0.069200
     42 H6          2.3210   -1.9480    3.7090 hn        1 3P6      0.326700
     43 H7          5.0220   -5.0950    2.0470 hn        1 3P6      0.336500
     44 H8          5.8150   -5.6510   -1.7790 h4        1 3P6      0.075100
     45 H9          6.5420   -7.4110    2.1850 h4        1 3P6      0.199000
     46 H10         7.7690   -9.6880   -0.7100 h1        1 3P6      0.095700
     47 H11         9.3500   -9.9750    1.5230 h1        1 3P6      0.117700
     48 H12        10.1670   -8.5460   -1.0840 hc        1 3P6      0.070200
     49 H13         9.7780  -10.3090   -0.9600 hc        1 3P6      0.070200
     50 H14        11.5610  -10.6580    0.7220 hc        1 3P6      0.053200
     51 H15        12.2110   -9.9490   -0.8090 hc        1 3P6      0.053200
     52 H16        13.1960   -8.8800    1.2260 hc        1 3P6      0.062700
     53 H17        12.3050   -7.6960    0.1880 hc        1 3P6      0.062700
     54 H18        11.2590   -9.0500    2.7590 h1        1 3P6      0.114200
     55 H19        11.8350   -7.3700    2.6000 h1        1 3P6      0.114200
     56 H20         6.0620  -11.1320   -0.4660 ha        1 3P6      0.150000
     57 H21         4.7060  -12.6560    0.9550 ha        1 3P6      0.136500
     58 H22         4.7960  -12.4620    3.4430 ha        1 3P6      0.134000
     59 H23         6.2470  -10.7270    4.5020 ha        1 3P6      0.136500
     60 H24         7.6050   -9.1970    3.0950 ha        1 3P6      0.150000
     61 H25         3.9540   -1.0340   -1.0800 hc        1 3P6      0.087700
     62 H26         2.7550   -2.3120   -1.5210 hc        1 3P6      0.087700
     63 H27         1.2780   -0.5610   -1.9030 hc        1 3P6      0.103700
@<TRIPOS>BOND
     1    1    2 1   
     2    1   37 1   
     3    1   38 1   
     4    1   39 1   
     5    2    3 1   
     6    2   33 1   
     7    2   34 1   
     8    3    4 1   
     9    3   40 1   
    10    3   41 1   
    11    4    5 1   
    12    4   31 2   
    13    5    6 1   
    14    5   42 1   
    15    6    7 2   
    16    7    8 1   
    17    7   31 1   
    18    8    9 2   
    19    8   10 1   
    20   10   11 1   
    21   10   43 1   
    22   11   12 1   
    23   11   15 2   
    24   12   13 2   
    25   12   44 1   
    26   13   14 1   
    27   14   15 1   
    28   14   16 1   
    29   15   45 1   
    30   16   17 1   
    31   16   25 1   
    32   16   46 1   
    33   17   18 1   
    34   17   22 1   
    35   17   47 1   
    36   18   19 1   
    37   18   48 1   
    38   18   49 1   
    39   19   20 1   
    40   19   50 1   
    41   19   51 1   
    42   20   21 1   
    43   20   52 1   
    44   20   53 1   
    45   21   22 1   
    46   21   54 1   
    47   21   55 1   
    48   22   23 2   
    49   22   24 2   
    50   25   26 ar  
    51   25   30 ar  
    52   26   27 ar  
    53   26   56 1   
    54   27   28 ar  
    55   27   57 1   
    56   28   29 ar  
    57   28   58 1   
    58   29   30 ar  
    59   29   59 1   
    60   30   60 1   
    61   31   32 1   
    62   32   33 1   
    63   32   61 1   
    64   32   62 1   
    65   33   34 1   
    66   33   63 1   
    67   34   35 1   
    68   34   36 1   
@<TRIPOS>SUBSTRUCTURE
     1 3P6         1 TEMP              0 ****  ****    0 ROOT
