@<TRIPOS>MOLECULE
3P6
   63    68     1     0     0
SMALL
bcc


@<TRIPOS>ATOM
      1 C1         -0.2810    0.5670    0.0300 c3        1 3P6     -0.073100
      2 C2          1.1720    0.2610    0.2060 cx        1 3P6     -0.120000
      3 C3          1.5350   -0.0950    1.6270 c3        1 3P6      0.021900
      4 C4          2.3190   -1.3440    1.6710 cc        1 3P6     -0.120600
      5 N5          2.5810   -2.1490    2.7870 na        1 3P6      0.011400
      6 N6          3.3180   -3.2070    2.4840 nc        1 3P6     -0.495800
      7 C7          3.5750   -3.1480    1.1370 cd        1 3P6      0.259800
      8 C8          4.3450   -4.1390    0.3480 c         1 3P6      0.611600
      9 O9          4.3560   -4.0810   -0.8980 o         1 3P6     -0.601100
     10 N10         5.0340   -5.1130    1.0530 ns        1 3P6     -0.426100
     11 C11         5.8120   -6.0960    0.4640 cc        1 3P6     -0.109700
     12 C12         6.1570   -6.2630   -0.9510 cc        1 3P6      0.325200
     13 N13         6.9510   -7.3380   -1.1060 nd        1 3P6     -0.499800
     14 N14         7.1870   -7.8520    0.1220 na        1 3P6      0.045400
     15 C15         6.4720   -7.1540    1.1180 cd        1 3P6     -0.186300
     16 C16         7.7790   -9.1800    0.2930 c3        1 3P6      0.164300
     17 C17         9.2490   -9.1130    0.7790 c3        1 3P6     -0.274900
     18 C18        10.1870   -9.3950   -0.3860 c3        1 3P6     -0.066400
     19 C19        11.5910   -9.7030    0.0930 c3        1 3P6     -0.095400
     20 C20        12.1870   -8.5610    0.8900 c3        1 3P6     -0.055400
     21 C21        11.3100   -8.1850    2.0620 c3        1 3P6     -0.314600
     22 S22         9.7530   -7.6560    1.5840 s6        1 3P6      1.319000
     23 O23         9.8860   -6.5670    0.7220 o         1 3P6     -0.644800
     24 O24         8.9740   -7.4910    2.7430 o         1 3P6     -0.644800
     25 C25         6.9490  -10.0790    1.1810 ca        1 3P6     -0.118300
     26 C26         6.1360  -11.0420    0.5710 ca        1 3P6     -0.115500
     27 C27         5.3690  -11.9080    1.3500 ca        1 3P6     -0.132000
     28 C28         5.4040  -11.8150    2.7410 ca        1 3P6     -0.117000
     29 C29         6.2070  -10.8510    3.3510 ca        1 3P6     -0.132000
     30 C30         6.9760   -9.9840    2.5760 ca        1 3P6     -0.115500
     31 C31         2.9550   -1.9660    0.5800 cd        1 3P6     -0.173600
     32 C32         2.9380   -1.4490   -0.7910 c3        1 3P6      0.012900
     33 C33         1.8930   -0.3870   -0.9720 cx        1 3P6     -0.114700
     34 C34         2.1760    1.0660   -0.6260 cx        1 3P6      0.351600
     35 F35         3.3630    1.4920   -0.1190 f         1 3P6     -0.202800
     36 F36         1.7750    2.0750   -1.4470 f         1 3P6     -0.202800
     37 H1         -0.8860   -0.3590    0.1880 hc        1 3P6      0.051033
     38 H2         -0.4830    0.9560   -0.9990 hc        1 3P6      0.051033
     39 H3         -0.6080    1.3400    0.7680 hc        1 3P6      0.051033
     40 H4          0.6010   -0.1980    2.2440 hc        1 3P6      0.069200
     41 H5          2.1420    0.7450    2.0700 hc        1 3P6      0.069200
     42 H6          2.2820   -1.9940    3.7220 hn        1 3P6      0.326700
     43 H7          5.0080   -5.1130    2.0470 hn        1 3P6      0.336500
     44 H8          5.8380   -5.6210   -1.7770 h4        1 3P6      0.075100
     45 H9          6.5360   -7.4240    2.1720 h4        1 3P6      0.199000
     46 H10         7.7980   -9.6620   -0.7380 h1        1 3P6      0.095700
     47 H11         9.3600   -9.9690    1.5070 h1        1 3P6      0.117700
     48 H12        10.1950   -8.5070   -1.0760 hc        1 3P6      0.070200
     49 H13         9.8120  -10.2730   -0.9760 hc        1 3P6      0.070200
     50 H14        11.5810  -10.6350    0.7180 hc        1 3P6      0.053200
     51 H15        12.2420   -9.9050   -0.7990 hc        1 3P6      0.053200
     52 H16        12.3180   -7.6630    0.2250 hc        1 3P6      0.062700
     53 H17        13.2040   -8.8560    1.2580 hc        1 3P6      0.062700
     54 H18        11.2540   -9.0520    2.7710 h1        1 3P6      0.114200
     55 H19        11.8240   -7.3680    2.6370 h1        1 3P6      0.114200
     56 H20         6.0950  -11.1160   -0.5260 ha        1 3P6      0.150000
     57 H21         4.7320  -12.6620    0.8640 ha        1 3P6      0.136500
     58 H22         4.7980  -12.4970    3.3550 ha        1 3P6      0.134000
     59 H23         6.2330  -10.7690    4.4480 ha        1 3P6      0.136500
     60 H24         7.5970   -9.2170    3.0710 ha        1 3P6      0.150000
     61 H25         3.9500   -1.0210   -1.0430 hc        1 3P6      0.087700
     62 H26         2.7600   -2.2990   -1.5080 hc        1 3P6      0.087700
     63 H27         1.2790   -0.5500   -1.8830 hc        1 3P6      0.103700
@<TRIPOS>BOND
     1    1    2 1   
     2    1   37 1   
     3    1   38 1   
     4    1   39 1   
     5    2    3 1   
     6    2   33 1   
     7    2   34 1   
     8    3    4 1   
     9    3   40 1   
    10    3   41 1   
    11    4    5 1   
    12    4   31 2   
    13    5    6 1   
    14    5   42 1   
    15    6    7 2   
    16    7    8 1   
    17    7   31 1   
    18    8    9 2   
    19    8   10 1   
    20   10   11 1   
    21   10   43 1   
    22   11   12 1   
    23   11   15 2   
    24   12   13 2   
    25   12   44 1   
    26   13   14 1   
    27   14   15 1   
    28   14   16 1   
    29   15   45 1   
    30   16   17 1   
    31   16   25 1   
    32   16   46 1   
    33   17   18 1   
    34   17   22 1   
    35   17   47 1   
    36   18   19 1   
    37   18   48 1   
    38   18   49 1   
    39   19   20 1   
    40   19   50 1   
    41   19   51 1   
    42   20   21 1   
    43   20   52 1   
    44   20   53 1   
    45   21   22 1   
    46   21   54 1   
    47   21   55 1   
    48   22   23 2   
    49   22   24 2   
    50   25   26 ar  
    51   25   30 ar  
    52   26   27 ar  
    53   26   56 1   
    54   27   28 ar  
    55   27   57 1   
    56   28   29 ar  
    57   28   58 1   
    58   29   30 ar  
    59   29   59 1   
    60   30   60 1   
    61   31   32 1   
    62   32   33 1   
    63   32   61 1   
    64   32   62 1   
    65   33   34 1   
    66   33   63 1   
    67   34   35 1   
    68   34   36 1   
@<TRIPOS>SUBSTRUCTURE
     1 3P6         1 TEMP              0 ****  ****    0 ROOT
