@<TRIPOS>MOLECULE
3P7
   46    47     1     0     0
SMALL
bcc


@<TRIPOS>ATOM
      1 C1          1.1520   -0.8190   -0.4470 c         1 3P7      0.550900
      2 O1          2.1080   -1.1870    0.2240 o         1 3P7     -0.480100
      3 C2         -0.0150    0.0200    0.0970 c3        1 3P7      0.225000
      4 N2          0.1740    0.5000    1.5150 n4        1 3P7     -0.709800
      5 C3         -0.2140    1.2450   -0.9030 c3        1 3P7      0.329300
      6 O4         -0.4820    0.6050   -2.1620 os        1 3P7     -0.455600
      7 C5         -1.2820    1.3600   -3.0710 c3        1 3P7      0.175600
      8 C6         -2.4500    2.0310   -2.4270 ce        1 3P7     -0.272800
      9 C7         -2.1740    2.5710   -1.0770 ce        1 3P7      0.481600
     10 C8         -3.1770    3.6420   -0.5420 c         1 3P7      0.844300
     11 N8         -1.1510    2.2040   -0.3780 n2        1 3P7     -0.682900
     12 C9         -3.6410    2.1420   -3.0190 c2        1 3P7     -0.139000
     13 C21         1.3810    1.3340    1.8170 c         1 3P7      0.606100
     14 O21         2.1350    1.6430    0.9010 o         1 3P7     -0.492100
     15 C22         1.5590    1.6320    3.2820 c3        1 3P7     -0.233400
     16 C23         0.4470    2.4500    3.8440 ca        1 3P7     -0.129300
     17 C24         0.2090    2.4160    5.2240 ca        1 3P7     -0.096000
     18 C25        -0.7910    3.2020    5.7880 ca        1 3P7     -0.176500
     19 C26        -1.5620    4.0320    4.9640 ca        1 3P7      0.115100
     20 O26        -2.5610    4.8420    5.4590 oh        1 3P7     -0.495100
     21 C27        -1.3350    4.0820    3.5790 ca        1 3P7     -0.176500
     22 C28        -0.3250    3.2960    3.0340 ca        1 3P7     -0.096000
     23 C29         1.7450    0.2930    4.0930 c         1 3P7      0.935600
     24 O30         2.5660    0.3230    5.0330 o         1 3P7     -0.786300
     25 O31         1.0510   -0.7140    3.7550 o         1 3P7     -0.786300
     26 O61        -1.2240   -0.7230    0.0510 os        1 3P7     -0.365600
     27 C62        -1.1590   -2.0390    0.5910 c3        1 3P7      0.084700
     28 O81        -4.3200    3.2170   -0.2430 o         1 3P7     -0.787800
     29 O82        -2.7590    4.8210   -0.4980 o         1 3P7     -0.787800
     30 H1         -0.6590    1.0420    1.7900 hn        1 3P7      0.496300
     31 H2          0.8000    1.7460   -0.9970 h2        1 3P7      0.084700
     32 H3         -1.6010    0.5960   -3.8320 h1        1 3P7      0.046700
     33 H4         -0.6230    2.1290   -3.5610 h1        1 3P7      0.046700
     34 H6         -3.8420    1.7240   -4.0140 ha        1 3P7      0.130500
     35 H7         -4.4810    2.6550   -2.5200 ha        1 3P7      0.130500
     36 H9          2.5230    2.2110    3.3830 hc        1 3P7      0.115700
     37 H10         0.8230    1.7580    5.8650 ha        1 3P7      0.162500
     38 H11        -0.9740    3.1690    6.8710 ha        1 3P7      0.153000
     39 H12        -2.6480    4.6550    6.4040 ho        1 3P7      0.408000
     40 H13        -1.9570    4.7270    2.9370 ha        1 3P7      0.153000
     41 H14        -0.1410    3.3640    1.9480 ha        1 3P7      0.162500
     42 H16        -2.1760   -2.4550    0.3740 h1        1 3P7      0.053033
     43 H17        -0.9760   -2.0210    1.6930 h1        1 3P7      0.053033
     44 H18        -0.3720   -2.6440    0.0770 h1        1 3P7      0.053033
     45 H20         1.0200   -1.0480   -1.5270 h4        1 3P7      0.055200
     46 H22         0.2470   -0.3350    2.1640 hn        1 3P7      0.496300
@<TRIPOS>BOND
     1    1    2 2   
     2    1    3 1   
     3    1   45 1   
     4    3    4 1   
     5    3    5 1   
     6    3   26 1   
     7    4   13 1   
     8    4   30 1   
     9    4   46 1   
    10    5    6 1   
    11    5   11 1   
    12    5   31 1   
    13    6    7 1   
    14    7    8 1   
    15    7   32 1   
    16    7   33 1   
    17    8    9 1   
    18    8   12 2   
    19    9   10 1   
    20    9   11 2   
    21   10   28 1   
    22   10   29 1   
    23   12   34 1   
    24   12   35 1   
    25   13   14 2   
    26   13   15 1   
    27   15   16 1   
    28   15   23 1   
    29   15   36 1   
    30   16   17 ar  
    31   16   22 ar  
    32   17   18 ar  
    33   17   37 1   
    34   18   19 ar  
    35   18   38 1   
    36   19   20 1   
    37   19   21 ar  
    38   20   39 1   
    39   21   22 ar  
    40   21   40 1   
    41   22   41 1   
    42   23   24 1   
    43   23   25 1   
    44   26   27 1   
    45   27   42 1   
    46   27   43 1   
    47   27   44 1   
@<TRIPOS>SUBSTRUCTURE
     1 3P7         1 TEMP              0 ****  ****    0 ROOT
