@<TRIPOS>MOLECULE
3P7
   46    47     1     0     0
SMALL
bcc


@<TRIPOS>ATOM
      1 C1          0.8080    0.6090    0.4730 c         1 3P7      0.565900
      2 O1          1.3780    1.1430    1.4180 o         1 3P7     -0.514100
      3 C2         -0.6930    0.7200    0.1850 c3        1 3P7      0.224000
      4 N2         -1.5670    1.1550    1.3440 ny        1 3P7     -0.721800
      5 C3         -0.8160    1.7740   -1.0190 c3        1 3P7      0.334300
      6 O4          0.1140    1.2680   -1.9890 os        1 3P7     -0.463600
      7 C5         -0.2400    1.4660   -3.3580 c3        1 3P7      0.177600
      8 C6         -1.6900    1.2620   -3.6420 ce        1 3P7     -0.273800
      9 C7         -2.5920    1.7750   -2.5870 ce        1 3P7      0.485600
     10 C8         -4.0640    2.0620   -3.0320 c         1 3P7      0.847300
     11 N8         -2.1890    2.0040   -1.3810 n2        1 3P7     -0.671900
     12 C9         -2.1420    0.6750   -4.7530 c2        1 3P7     -0.138000
     13 C21        -0.9130    2.0070    2.4040 c         1 3P7      0.587100
     14 O21        -0.8350    3.2010    2.1370 o         1 3P7     -0.473100
     15 C22        -0.4880    1.2910    3.6610 c3        1 3P7     -0.216400
     16 C23         0.0940    2.2560    4.6360 ca        1 3P7     -0.100300
     17 C24         1.4740    2.4980    4.5930 ca        1 3P7     -0.061000
     18 C25         2.0720    3.3780    5.4900 ca        1 3P7     -0.198000
     19 C26         1.2740    4.0270    6.4430 ca        1 3P7      0.121100
     20 O26         1.7960    4.9110    7.3640 oh        1 3P7     -0.506100
     21 C27        -0.1080    3.7990    6.4980 ca        1 3P7     -0.198000
     22 C28        -0.6890    2.9150    5.5930 ca        1 3P7     -0.061000
     23 C29        -1.6330    0.3620    4.2030 c         1 3P7      0.926600
     24 O30        -2.1440    0.5700    5.3190 o         1 3P7     -0.787300
     25 O31        -1.9420   -0.5970    3.4250 o         1 3P7     -0.787300
     26 O61        -1.1980   -0.5070   -0.3050 os        1 3P7     -0.362600
     27 C62        -0.8740   -1.6670    0.4590 c3        1 3P7      0.069700
     28 O81        -4.7870    1.0500   -3.1990 o         1 3P7     -0.785300
     29 O82        -4.3550    3.2630   -3.2270 o         1 3P7     -0.785300
     30 H1         -1.9520    0.2920    1.8060 hn        1 3P7      0.492800
     31 H2         -0.3820    2.7450   -0.6250 h2        1 3P7      0.078700
     32 H3          0.4080    0.7270   -3.9040 h1        1 3P7      0.048200
     33 H4          0.0600    2.5130   -3.6430 h1        1 3P7      0.048200
     34 H6         -1.4670    0.2800   -5.5240 ha        1 3P7      0.130000
     35 H7         -3.2240    0.5570   -4.9340 ha        1 3P7      0.130000
     36 H9          0.3240    0.5620    3.3570 hc        1 3P7      0.102700
     37 H10         2.0920    1.9930    3.8330 ha        1 3P7      0.157000
     38 H11         3.1530    3.5640    5.4510 ha        1 3P7      0.134000
     39 H12         2.7470    4.9800    7.1970 ho        1 3P7      0.410000
     40 H13        -0.7160    4.3130    7.2550 ha        1 3P7      0.134000
     41 H14        -1.7720    2.7080    5.6470 ha        1 3P7      0.157000
     42 H16        -1.2510   -1.6040    1.5110 h1        1 3P7      0.063033
     43 H17         0.2300   -1.8430    0.4480 h1        1 3P7      0.063033
     44 H18        -1.4040   -2.4860   -0.0930 h1        1 3P7      0.063033
     45 H20         1.3340    0.0370   -0.3240 h4        1 3P7      0.058200
     46 H22        -2.3630    1.6810    0.9500 hn        1 3P7      0.492800
@<TRIPOS>BOND
     1    1    2 2   
     2    1    3 1   
     3    1   45 1   
     4    3    4 1   
     5    3    5 1   
     6    3   26 1   
     7    4   13 1   
     8    4   30 1   
     9    4   46 1   
    10    5    6 1   
    11    5   11 1   
    12    5   31 1   
    13    6    7 1   
    14    7    8 1   
    15    7   32 1   
    16    7   33 1   
    17    8    9 1   
    18    8   12 2   
    19    9   10 1   
    20    9   11 2   
    21   10   28 1   
    22   10   29 1   
    23   12   34 1   
    24   12   35 1   
    25   13   14 2   
    26   13   15 1   
    27   15   16 1   
    28   15   23 1   
    29   15   36 1   
    30   16   17 ar  
    31   16   22 ar  
    32   17   18 ar  
    33   17   37 1   
    34   18   19 ar  
    35   18   38 1   
    36   19   20 1   
    37   19   21 ar  
    38   20   39 1   
    39   21   22 ar  
    40   21   40 1   
    41   22   41 1   
    42   23   24 1   
    43   23   25 1   
    44   26   27 1   
    45   27   42 1   
    46   27   43 1   
    47   27   44 1   
@<TRIPOS>SUBSTRUCTURE
     1 3P7         1 TEMP              0 ****  ****    0 ROOT
