@<TRIPOS>MOLECULE
3P7
   45    46     1     0     0
SMALL
bcc


@<TRIPOS>ATOM
      1 C1          1.4420    0.4100   -0.2900 c         1 3P7      0.610900
      2 O1          2.2010    1.3730   -0.3800 o         1 3P7     -0.561100
      3 C2         -0.0400    0.5360    0.1340 c3        1 3P7      0.208200
      4 N2         -0.1750    0.8130    1.5520 n         1 3P7     -0.527900
      5 C3         -0.6560    1.7060   -0.7440 c3        1 3P7      0.325300
      6 O4         -0.2130    1.3650   -2.0820 os        1 3P7     -0.449600
      7 C5         -0.9010    2.0510   -3.1150 c3        1 3P7      0.172600
      8 C6         -2.3850    1.9810   -2.9590 ce        1 3P7     -0.235800
      9 C7         -2.8480    2.1030   -1.5530 ce        1 3P7      0.437600
     10 C8         -4.3340    2.5240   -1.4130 c         1 3P7      0.847300
     11 N8         -2.0670    1.9380   -0.5380 n2        1 3P7     -0.595900
     12 C9         -3.2160    1.8210   -3.9910 c2        1 3P7     -0.190000
     13 C21         0.7830    0.3700    2.4520 c         1 3P7      0.685100
     14 O21         1.8700   -0.1140    2.0480 o         1 3P7     -0.677100
     15 C22         0.5230    0.5240    3.9400 c3        1 3P7     -0.225400
     16 C23         0.2900    1.9380    4.3470 ca        1 3P7     -0.054300
     17 C24        -0.5000    2.2270    5.4690 ca        1 3P7     -0.091000
     18 C25        -0.6710    3.5390    5.8990 ca        1 3P7     -0.189500
     19 C26        -0.0450    4.5790    5.2000 ca        1 3P7      0.085100
     20 O26        -0.1540    5.9020    5.5960 oh        1 3P7     -0.523100
     21 C27         0.7460    4.3130    4.0760 ca        1 3P7     -0.189500
     22 C28         0.9070    2.9930    3.6610 ca        1 3P7     -0.091000
     23 C29        -0.6160   -0.4410    4.4000 c         1 3P7      0.927600
     24 O30        -1.4720   -0.8090    3.5530 o         1 3P7     -0.824800
     25 O31        -0.5900   -0.8100    5.6070 o         1 3P7     -0.824800
     26 O61        -0.7130   -0.6520   -0.3150 os        1 3P7     -0.420600
     27 C62        -0.6290   -1.7780    0.5440 c3        1 3P7      0.092700
     28 O81        -4.5550    3.7360   -1.1610 o         1 3P7     -0.817800
     29 O82        -5.2110    1.6510   -1.6430 o         1 3P7     -0.817800
     30 H1         -1.1190    0.8700    1.8890 hn        1 3P7      0.362500
     31 H2         -0.1050    2.6530   -0.4510 h2        1 3P7      0.068700
     32 H3         -0.5500    1.5470   -4.0560 h1        1 3P7      0.030200
     33 H4         -0.5720    3.1280   -3.1250 h1        1 3P7      0.030200
     34 H6         -2.8550    1.7160   -5.0220 ha        1 3P7      0.115500
     35 H7         -4.3060    1.7760   -3.8440 ha        1 3P7      0.115500
     36 H9          1.4580    0.1720    4.4660 hc        1 3P7      0.083700
     37 H10        -0.9860    1.3930    6.0110 ha        1 3P7      0.164000
     38 H11        -1.3010    3.7590    6.7710 ha        1 3P7      0.122000
     39 H12        -0.9010    5.9530    6.2070 ho        1 3P7      0.402000
     40 H13         1.2200    5.1390    3.5310 ha        1 3P7      0.122000
     41 H14         1.5220    2.7800    2.7720 ha        1 3P7      0.164000
     42 H16        -1.2650   -1.6330    1.4570 h1        1 3P7      0.045367
     43 H17         0.4300   -1.9760    0.8420 h1        1 3P7      0.045367
     44 H18        -1.0260   -2.6190   -0.0790 h1        1 3P7      0.045367
     45 H20         1.7450   -0.6250   -0.5480 h4        1 3P7     -0.001800
@<TRIPOS>BOND
     1    1    2 2   
     2    1    3 1   
     3    1   45 1   
     4    3    4 1   
     5    3    5 1   
     6    3   26 1   
     7    4   13 1   
     8    4   30 1   
     9    5    6 1   
    10    5   11 1   
    11    5   31 1   
    12    6    7 1   
    13    7    8 1   
    14    7   32 1   
    15    7   33 1   
    16    8    9 1   
    17    8   12 2   
    18    9   10 1   
    19    9   11 2   
    20   10   28 1   
    21   10   29 1   
    22   12   34 1   
    23   12   35 1   
    24   13   14 2   
    25   13   15 1   
    26   15   16 1   
    27   15   23 1   
    28   15   36 1   
    29   16   17 ar  
    30   16   22 ar  
    31   17   18 ar  
    32   17   37 1   
    33   18   19 ar  
    34   18   38 1   
    35   19   20 1   
    36   19   21 ar  
    37   20   39 1   
    38   21   22 ar  
    39   21   40 1   
    40   22   41 1   
    41   23   24 1   
    42   23   25 1   
    43   26   27 1   
    44   27   42 1   
    45   27   43 1   
    46   27   44 1   
@<TRIPOS>SUBSTRUCTURE
     1 3P7         1 TEMP              0 ****  ****    0 ROOT
