@<TRIPOS>MOLECULE
3P8
    8     7     1     0     0
SMALL
bcc


@<TRIPOS>ATOM
      1 C1         -0.0090    0.0000    0.0020 c3        1 3P8      0.072100
      2 N1          1.4710   -0.0000   -0.0030 nz        1 3P8     -0.831600
      3 H1         -0.3800    0.0000    1.0640 hx        1 3P8      0.119700
      4 H2         -0.3850    0.9180   -0.5270 hx        1 3P8      0.119700
      5 H3         -0.3850   -0.9180   -0.5260 hx        1 3P8      0.119700
      6 H4          1.8290   -0.8340    0.4780 hn        1 3P8      0.466800
      7 H5          1.8250   -0.0000   -0.9660 hn        1 3P8      0.466800
      8 H6          1.8290    0.8340    0.4770 hn        1 3P8      0.466800
@<TRIPOS>BOND
     1    1    2 1   
     2    1    3 1   
     3    1    4 1   
     4    1    5 1   
     5    2    6 1   
     6    2    7 1   
     7    2    8 1   
@<TRIPOS>SUBSTRUCTURE
     1 3P8         1 TEMP              0 ****  ****    0 ROOT
