@<TRIPOS>MOLECULE
3P9
   33    32     1     0     0
SMALL
bcc


@<TRIPOS>ATOM
      1 O3          0.1580    1.8140    0.5170 oh        1 3P9     -0.602800
      2 C7          0.4200    0.7490   -0.3930 c3        1 3P9      0.132100
      3 C8          0.5520   -0.5700    0.3440 c3        1 3P9     -0.130100
      4 C6          1.7260    1.1220   -1.1050 c3        1 3P9      0.131400
      5 O2          1.3660    1.5630   -2.4120 os        1 3P9     -0.435600
      6 C4          2.3290    2.4380   -3.0070 c3        1 3P9      0.110100
      7 C5          3.6210    1.7120   -3.3200 c3        1 3P9     -0.118100
      8 C3          1.6630    3.0070   -4.2670 c3        1 3P9      0.138400
      9 O1          1.7680    2.1500   -5.3900 os        1 3P9     -0.434600
     10 C1          0.8060    1.0850   -5.4220 c3        1 3P9      0.090100
     11 C2         -0.4890    1.5670   -6.0430 c3        1 3P9     -0.115100
     12 C           1.4550   -0.0180   -6.2660 c3        1 3P9      0.135400
     13 O           1.7540    0.4070   -7.5790 oh        1 3P9     -0.600800
     14 H1         -0.6700    1.6020    0.9620 ho        1 3P9      0.401000
     15 H2         -0.4160    0.6900   -1.1460 h1        1 3P9      0.054700
     16 H3          0.7670   -1.3930   -0.3780 hc        1 3P9      0.044367
     17 H4          1.3790   -0.5180    1.0920 hc        1 3P9      0.044367
     18 H5         -0.3970   -0.8050    0.8830 hc        1 3P9      0.044367
     19 H6          2.2600    1.9290   -0.5380 h1        1 3P9      0.046700
     20 H7          2.3920    0.2250   -1.2050 h1        1 3P9      0.046700
     21 H8          2.5300    3.2930   -2.3000 h1        1 3P9      0.043700
     22 H9          3.4140    0.8360   -3.9830 hc        1 3P9      0.045700
     23 H10         4.1030    1.3510   -2.3810 hc        1 3P9      0.045700
     24 H11         4.3200    2.4020   -3.8490 hc        1 3P9      0.045700
     25 H12         2.2200    3.9310   -4.5830 h1        1 3P9      0.059700
     26 H13         0.5920    3.2530   -4.0480 h1        1 3P9      0.059700
     27 H14         0.6280    0.7010   -4.3790 h1        1 3P9      0.072700
     28 H15        -1.2430    0.7450   -6.0260 hc        1 3P9      0.045033
     29 H16        -0.3120    1.8730   -7.1030 hc        1 3P9      0.045033
     30 H17        -0.8930    2.4410   -5.4790 hc        1 3P9      0.045033
     31 H18         0.7390   -0.8730   -6.3900 h1        1 3P9      0.046700
     32 H19         2.3930   -0.3710   -5.7590 h1        1 3P9      0.046700
     33 H20         2.2580    1.2270   -7.5040 ho        1 3P9      0.414000
@<TRIPOS>BOND
     1    1    2 1   
     2    1   14 1   
     3    2    3 1   
     4    2    4 1   
     5    2   15 1   
     6    3   16 1   
     7    3   17 1   
     8    3   18 1   
     9    4    5 1   
    10    4   19 1   
    11    4   20 1   
    12    5    6 1   
    13    6    7 1   
    14    6    8 1   
    15    6   21 1   
    16    7   22 1   
    17    7   23 1   
    18    7   24 1   
    19    8    9 1   
    20    8   25 1   
    21    8   26 1   
    22    9   10 1   
    23   10   11 1   
    24   10   12 1   
    25   10   27 1   
    26   11   28 1   
    27   11   29 1   
    28   11   30 1   
    29   12   13 1   
    30   12   31 1   
    31   12   32 1   
    32   13   33 1   
@<TRIPOS>SUBSTRUCTURE
     1 3P9         1 TEMP              0 ****  ****    0 ROOT
