@<TRIPOS>MOLECULE
3PA
   23    23     1     0     0
SMALL
bcc


@<TRIPOS>ATOM
      1 C1A         0.4900   -0.1920   -3.4560 c3        1 3PA     -0.076900
      2 C2A         1.1920    0.1870   -2.1590 c3        1 3PA     -0.076900
      3 C3A         0.1060    0.4940   -1.1280 c3        1 3PA     -0.063700
      4 C4A        -1.1590   -0.1990   -1.6340 c3        1 3PA     -0.076900
      5 C5A        -0.9770   -0.4390   -3.1260 c3        1 3PA     -0.076900
      6 C6A         0.5040    0.0530    0.2670 c3        1 3PA     -0.059400
      7 C7A        -0.4870    0.4930    1.3170 c3        1 3PA     -0.194400
      8 C8A         0.0150    0.1550    2.7330 c         1 3PA      0.907600
      9 O9A         1.2080    0.4510    3.0370 o         1 3PA     -0.853300
     10 O10        -0.8010   -0.3880    3.5320 o         1 3PA     -0.853300
     11 H11         0.5850    0.6320   -4.2080 hc        1 3PA      0.024450
     12 H21         0.9550   -1.1040   -3.9050 hc        1 3PA      0.024450
     13 H12         1.8610    1.0700   -2.3060 hc        1 3PA      0.040200
     14 H22         1.8310   -0.6610   -1.8030 hc        1 3PA      0.040200
     15 HC3        -0.0730    1.6050   -1.1130 hc        1 3PA      0.037700
     16 H14        -1.3060   -1.1700   -1.0970 hc        1 3PA      0.040200
     17 H24        -2.0600    0.4310   -1.4320 hc        1 3PA      0.040200
     18 H15        -1.6290    0.2520   -3.7180 hc        1 3PA      0.024450
     19 H25        -1.2730   -1.4830   -3.3960 hc        1 3PA      0.024450
     20 H16         1.5100    0.4840    0.5230 hc        1 3PA      0.045200
     21 H26         0.6060   -1.0630    0.2950 hc        1 3PA      0.045200
     22 H17        -1.4770    0.0020    1.1460 hc        1 3PA      0.019200
     23 H27        -0.6380    1.6010    1.2630 hc        1 3PA      0.019200
@<TRIPOS>BOND
     1    1    2 1   
     2    1    5 1   
     3    1   11 1   
     4    1   12 1   
     5    2    3 1   
     6    2   13 1   
     7    2   14 1   
     8    3    4 1   
     9    3    6 1   
    10    3   15 1   
    11    4    5 1   
    12    4   16 1   
    13    4   17 1   
    14    5   18 1   
    15    5   19 1   
    16    6    7 1   
    17    6   20 1   
    18    6   21 1   
    19    7    8 1   
    20    7   22 1   
    21    7   23 1   
    22    8    9 1   
    23    8   10 1   
@<TRIPOS>SUBSTRUCTURE
     1 3PA         1 TEMP              0 ****  ****    0 ROOT
