@<TRIPOS>MOLECULE
3PA
   23    23     1     0     0
SMALL
bcc


@<TRIPOS>ATOM
      1 C1A        -1.5260    0.6660   -1.6010 c3        1 3PA     -0.076900
      2 C2A        -0.1780    0.6650   -1.6900 c3        1 3PA     -0.076900
      3 C3A         0.3830    0.6340   -0.1490 c3        1 3PA     -0.063700
      4 C4A        -0.4590    1.4040    0.5760 c3        1 3PA     -0.076900
      5 C5A        -1.8480    1.3370   -0.1950 c3        1 3PA     -0.076900
      6 C6A         0.3730   -0.7930    0.3820 c3        1 3PA     -0.059400
      7 C7A         1.6970   -1.0920    1.0490 c3        1 3PA     -0.194400
      8 C8A         1.6960   -2.5180    1.5550 c         1 3PA      0.907600
      9 O9A         1.2880   -2.7730    2.7190 o         1 3PA     -0.853300
     10 O10         2.0600   -3.4550    0.7970 o         1 3PA     -0.853300
     11 H11        -1.9150    1.1960   -2.3280 hc        1 3PA      0.024450
     12 H21        -1.8690   -0.2510   -1.6270 hc        1 3PA      0.024450
     13 H12         0.1300    1.4770   -2.1440 hc        1 3PA      0.040200
     14 H22         0.1270   -0.1290   -2.1760 hc        1 3PA      0.040200
     15 HC3         1.2890    1.0000   -0.1130 hc        1 3PA      0.037700
     16 H14        -0.5540    1.0450    1.4820 hc        1 3PA      0.040200
     17 H24        -0.1320    2.3270    0.6080 hc        1 3PA      0.040200
     18 H15        -2.4850    0.7870    0.3040 hc        1 3PA      0.024450
     19 H25        -2.2070    2.2370   -0.3240 hc        1 3PA      0.024450
     20 H16         0.2330   -1.4150   -0.3590 hc        1 3PA      0.045200
     21 H26        -0.3510   -0.8930    1.0330 hc        1 3PA      0.045200
     22 H17         1.8290   -0.4790    1.8000 hc        1 3PA      0.019200
     23 H27         2.4210   -0.9760    0.4020 hc        1 3PA      0.019200
@<TRIPOS>BOND
     1    1    2 1   
     2    1    5 1   
     3    1   11 1   
     4    1   12 1   
     5    2    3 1   
     6    2   13 1   
     7    2   14 1   
     8    3    4 1   
     9    3    6 1   
    10    3   15 1   
    11    4    5 1   
    12    4   16 1   
    13    4   17 1   
    14    5   18 1   
    15    5   19 1   
    16    6    7 1   
    17    6   20 1   
    18    6   21 1   
    19    7    8 1   
    20    7   22 1   
    21    7   23 1   
    22    8    9 1   
    23    8   10 1   
@<TRIPOS>SUBSTRUCTURE
     1 3PA         1 TEMP              0 ****  ****    0 ROOT
