@<TRIPOS>MOLECULE
3PA
   23    23     1     0     0
SMALL
bcc


@<TRIPOS>ATOM
      1 C1A         0.0460    0.3470   -0.0660 c3        1 3PA     -0.076900
      2 C2A         1.4360   -0.2700    0.0040 c3        1 3PA     -0.076900
      3 C3A         1.9070   -0.1610    1.4550 c3        1 3PA     -0.063700
      4 C4A         0.6420    0.0110    2.2940 c3        1 3PA     -0.076900
      5 C5A        -0.4530    0.5160    1.3630 c3        1 3PA     -0.076900
      6 C6A         2.7370   -1.3590    1.8760 c3        1 3PA     -0.059400
      7 C7A         3.3400   -1.1910    3.2490 c3        1 3PA     -0.194400
      8 C8A         4.2880   -2.3550    3.5870 c         1 3PA      0.907600
      9 O9A         5.1410   -2.7090    2.7220 o         1 3PA     -0.853300
     10 O10         4.1780   -2.8910    4.7270 o         1 3PA     -0.853300
     11 H11        -0.6470   -0.3060   -0.6530 hc        1 3PA      0.024450
     12 H21         0.0830    1.3380   -0.5840 hc        1 3PA      0.024450
     13 H12         1.3990   -1.3450   -0.3080 hc        1 3PA      0.040200
     14 H22         2.1450    0.2530   -0.6830 hc        1 3PA      0.040200
     15 HC3         2.5380    0.7640    1.5610 hc        1 3PA      0.037700
     16 H14         0.8200    0.7270    3.1340 hc        1 3PA      0.040200
     17 H24         0.3460   -0.9680    2.7500 hc        1 3PA      0.040200
     18 H15        -1.4010   -0.0560    1.5230 hc        1 3PA      0.024450
     19 H25        -0.6790    1.5920    1.5700 hc        1 3PA      0.024450
     20 H16         2.1020   -2.2830    1.8580 hc        1 3PA      0.045200
     21 H26         3.5690   -1.5160    1.1370 hc        1 3PA      0.045200
     22 H17         2.5340   -1.1290    4.0220 hc        1 3PA      0.019200
     23 H27         3.9330   -0.2420    3.2940 hc        1 3PA      0.019200
@<TRIPOS>BOND
     1    1    2 1   
     2    1    5 1   
     3    1   11 1   
     4    1   12 1   
     5    2    3 1   
     6    2   13 1   
     7    2   14 1   
     8    3    4 1   
     9    3    6 1   
    10    3   15 1   
    11    4    5 1   
    12    4   16 1   
    13    4   17 1   
    14    5   18 1   
    15    5   19 1   
    16    6    7 1   
    17    6   20 1   
    18    6   21 1   
    19    7    8 1   
    20    7   22 1   
    21    7   23 1   
    22    8    9 1   
    23    8   10 1   
@<TRIPOS>SUBSTRUCTURE
     1 3PA         1 TEMP              0 ****  ****    0 ROOT
