@<TRIPOS>MOLECULE
3PA
   23    23     1     0     0
SMALL
bcc


@<TRIPOS>ATOM
      1 C1A         0.0100    0.3030   -0.0540 c3        1 3PA     -0.076900
      2 C2A         1.3870   -0.3440    0.0020 c3        1 3PA     -0.076900
      3 C3A         1.9080   -0.1790    1.4300 c3        1 3PA     -0.063700
      4 C4A         0.6740    0.0640    2.3000 c3        1 3PA     -0.076900
      5 C5A        -0.4380    0.5510    1.3810 c3        1 3PA     -0.076900
      6 C6A         2.7230   -1.3750    1.8810 c3        1 3PA     -0.059400
      7 C7A         3.3740   -1.1580    3.2250 c3        1 3PA     -0.194400
      8 C8A         4.3050   -2.3280    3.5890 c         1 3PA      0.907600
      9 O9A         5.1200   -2.7450    2.7150 o         1 3PA     -0.853300
     10 O10         4.2220   -2.8050    4.7570 o         1 3PA     -0.853300
     11 H11        -0.7160   -0.3600   -0.5880 hc        1 3PA      0.024450
     12 H21         0.0540    1.2680   -0.6200 hc        1 3PA      0.024450
     13 H12         1.3150   -1.4310   -0.2570 hc        1 3PA      0.040200
     14 H22         2.0850    0.1280   -0.7310 hc        1 3PA      0.040200
     15 HC3         2.5630    0.7340    1.4720 hc        1 3PA      0.037700
     16 H14         0.3710   -0.8850    2.8110 hc        1 3PA      0.040200
     17 H24         0.8970    0.8140    3.0980 hc        1 3PA      0.040200
     18 H15        -0.6320    1.6410    1.5430 hc        1 3PA      0.024450
     19 H25        -1.3930    0.0100    1.5960 hc        1 3PA      0.024450
     20 H16         3.5260   -1.5880    1.1250 hc        1 3PA      0.045200
     21 H26         2.0660   -2.2830    1.9280 hc        1 3PA      0.045200
     22 H17         3.9910   -0.2230    3.2060 hc        1 3PA      0.019200
     23 H27         2.5950   -1.0400    4.0190 hc        1 3PA      0.019200
@<TRIPOS>BOND
     1    1    2 1   
     2    1    5 1   
     3    1   11 1   
     4    1   12 1   
     5    2    3 1   
     6    2   13 1   
     7    2   14 1   
     8    3    4 1   
     9    3    6 1   
    10    3   15 1   
    11    4    5 1   
    12    4   16 1   
    13    4   17 1   
    14    5   18 1   
    15    5   19 1   
    16    6    7 1   
    17    6   20 1   
    18    6   21 1   
    19    7    8 1   
    20    7   22 1   
    21    7   23 1   
    22    8    9 1   
    23    8   10 1   
@<TRIPOS>SUBSTRUCTURE
     1 3PA         1 TEMP              0 ****  ****    0 ROOT
