@<TRIPOS>MOLECULE
3PB
   17    16     1     0     0
SMALL
bcc


@<TRIPOS>ATOM
      1 O2          3.1270    0.3490   -1.3470 o         1 3PB     -0.913300
      2 C1          2.9810   -0.3680   -0.3050 c         1 3PB      0.901600
      3 O1          3.9540   -1.0950    0.0970 o         1 3PB     -0.913300
      4 C2          1.7110   -0.3090    0.5360 c3        1 3PB     -0.180400
      5 C3          0.3950   -0.7860   -0.1110 c3        1 3PB      0.247100
      6 C4          0.6710   -2.0390   -0.9460 c3        1 3PB     -0.110100
      7 O1P        -0.5340   -1.0500    0.8830 os        1 3PB     -0.588200
      8 P          -2.1410   -0.4830    0.6580 p5        1 3PB      1.326900
      9 O4P        -2.0070    1.0060    0.4540 o         1 3PB     -0.951500
     10 O2P        -2.6270   -1.2440   -0.5540 o         1 3PB     -0.951500
     11 O3P        -2.7950   -0.8880    1.9590 o         1 3PB     -0.951500
     12 H2          1.8770   -0.9210    1.4610 hc        1 3PB      0.016700
     13 H2A         1.5640    0.7550    0.8540 hc        1 3PB      0.016700
     14 H3          0.0000    0.0240   -0.7920 h1        1 3PB      0.024700
     15 H4          1.0170   -2.8690   -0.2860 hc        1 3PB      0.008367
     16 H4A        -0.2600   -2.3640   -1.4680 hc        1 3PB      0.008367
     17 H4B         1.4670   -1.8220   -1.6990 hc        1 3PB      0.008367
@<TRIPOS>BOND
     1    1    2 1   
     2    2    3 1   
     3    2    4 1   
     4    4    5 1   
     5    4   12 1   
     6    4   13 1   
     7    5    6 1   
     8    5    7 1   
     9    5   14 1   
    10    6   15 1   
    11    6   16 1   
    12    6   17 1   
    13    7    8 1   
    14    8    9 1   
    15    8   10 1   
    16    8   11 1   
@<TRIPOS>SUBSTRUCTURE
     1 3PB         1 TEMP              0 ****  ****    0 ROOT
