@<TRIPOS>MOLECULE
3PB
   17    16     1     0     0
SMALL
bcc


@<TRIPOS>ATOM
      1 O2          1.4200    1.8900   -0.1430 o         1 3PB     -0.913300
      2 C1          2.0850    0.8420   -0.4230 c         1 3PB      0.901600
      3 O1          3.3530    0.8410   -0.2580 o         1 3PB     -0.913300
      4 C2          1.3990   -0.4500   -0.8550 c3        1 3PB     -0.180400
      5 C3          0.6310   -0.4460   -2.1920 c3        1 3PB      0.247100
      6 C4          1.4310    0.3490   -3.2280 c3        1 3PB     -0.110100
      7 O1P         0.4400   -1.7530   -2.6130 os        1 3PB     -0.588200
      8 P          -1.1110   -2.1890   -3.2120 p5        1 3PB      1.326900
      9 O4P        -2.0720   -1.8510   -2.0980 o         1 3PB     -0.951500
     10 O2P        -1.2680   -1.3460   -4.4570 o         1 3PB     -0.951500
     11 O3P        -0.9350   -3.6680   -3.4710 o         1 3PB     -0.951500
     12 H2          0.6730   -0.7340   -0.0500 hc        1 3PB      0.016700
     13 H2A         2.1770   -1.2550   -0.9110 hc        1 3PB      0.016700
     14 H3         -0.3700    0.0540   -2.0450 h1        1 3PB      0.024700
     15 H4          2.4070   -0.1540   -3.4250 hc        1 3PB      0.008367
     16 H4A         1.6280    1.3780   -2.8420 hc        1 3PB      0.008367
     17 H4B         0.8620    0.4100   -4.1850 hc        1 3PB      0.008367
@<TRIPOS>BOND
     1    1    2 1   
     2    2    3 1   
     3    2    4 1   
     4    4    5 1   
     5    4   12 1   
     6    4   13 1   
     7    5    6 1   
     8    5    7 1   
     9    5   14 1   
    10    6   15 1   
    11    6   16 1   
    12    6   17 1   
    13    7    8 1   
    14    8    9 1   
    15    8   10 1   
    16    8   11 1   
@<TRIPOS>SUBSTRUCTURE
     1 3PB         1 TEMP              0 ****  ****    0 ROOT
