@<TRIPOS>MOLECULE
3PB
   17    15     1     0     0
SMALL
bcc


@<TRIPOS>ATOM
      1 O2         -1.9920   -1.5360    1.4770 o         1 3PB     -0.648000
      2 C1         -0.7330   -1.5360    1.4770 c1        1 3PB      0.321000
      3 O1         -0.1040   -1.5360    2.5670 o         1 3PB     -0.648000
      4 C2          0.0230   -1.5360    0.1670 c2        1 3PB     -0.209000
      5 C3          0.3950   -0.1170   -0.2010 c3        1 3PB      0.136000
      6 C4          1.1960   -0.1220   -1.4840 c3        1 3PB     -0.228000
      7 O1P        -0.7750    0.6420   -0.3820 os        1 3PB     -0.750000
      8 P          -0.8230    2.1060    0.2120 p5        1 3PB      1.560500
      9 O4P        -0.4510    2.0670    1.6750 o         1 3PB     -0.951500
     10 O2P         0.1530    2.9840   -0.5330 o         1 3PB     -0.951500
     11 O3P        -2.2180    2.6640    0.0630 o         1 3PB     -0.951500
     12 H2          0.8340   -2.0710    0.2590 ha        1 3PB      0.056000
     13 H2A        -0.5400   -1.9170   -0.5340 ha        1 3PB      0.056000
     14 H3          0.9290    0.2760    0.5150 h1        1 3PB      0.064000
     15 H4          2.0070    0.4080   -1.3630 hc        1 3PB      0.047667
     16 H4A         1.4380   -1.0390   -1.7130 hc        1 3PB      0.047667
     17 H4B         0.6610    0.2630   -2.2040 hc        1 3PB      0.047667
@<TRIPOS>BOND
     1    1    2 1   
     2    2    3 1   
     3    4    5 1   
     4    4   12 1   
     5    4   13 1   
     6    5    6 1   
     7    5    7 1   
     8    5   14 1   
     9    6   15 1   
    10    6   16 1   
    11    6   17 1   
    12    7    8 1   
    13    8    9 1   
    14    8   10 1   
    15    8   11 1   
@<TRIPOS>SUBSTRUCTURE
     1 3PB         1 TEMP              0 ****  ****    0 ROOT
