@<TRIPOS>MOLECULE
3PB
   17    16     1     0     0
SMALL
bcc


@<TRIPOS>ATOM
      1 O2          1.1890    1.7250    0.0960 o         1 3PB     -0.913300
      2 C1          1.9810    0.8280   -0.3370 c         1 3PB      0.901600
      3 O1          3.2440    1.0020   -0.2300 o         1 3PB     -0.913300
      4 C2          1.4660   -0.4960   -0.8900 c3        1 3PB     -0.180400
      5 C3          0.6260   -0.4590   -2.1830 c3        1 3PB      0.247100
      6 C4          1.2360    0.5600   -3.1500 c3        1 3PB     -0.110100
      7 O1P         0.6010   -1.7240   -2.7490 os        1 3PB     -0.588200
      8 P          -0.9040   -2.3200   -3.3270 p5        1 3PB      1.326900
      9 O4P        -1.8320   -2.2640   -2.1390 o         1 3PB     -0.951500
     10 O2P        -1.2600   -1.3750   -4.4510 o         1 3PB     -0.951500
     11 O3P        -0.5300   -3.7150   -3.7740 o         1 3PB     -0.951500
     12 H2          2.3480   -1.1620   -1.0770 hc        1 3PB      0.016700
     13 H2A         0.8400   -0.9760   -0.0950 hc        1 3PB      0.016700
     14 H3         -0.4270   -0.1360   -1.9330 h1        1 3PB      0.024700
     15 H4          2.2610    0.2350   -3.4480 hc        1 3PB      0.008367
     16 H4A         0.6070    0.6400   -4.0670 hc        1 3PB      0.008367
     17 H4B         1.3050    1.5560   -2.6520 hc        1 3PB      0.008367
@<TRIPOS>BOND
     1    1    2 1   
     2    2    3 1   
     3    2    4 1   
     4    4    5 1   
     5    4   12 1   
     6    4   13 1   
     7    5    6 1   
     8    5    7 1   
     9    5   14 1   
    10    6   15 1   
    11    6   16 1   
    12    6   17 1   
    13    7    8 1   
    14    8    9 1   
    15    8   10 1   
    16    8   11 1   
@<TRIPOS>SUBSTRUCTURE
     1 3PB         1 TEMP              0 ****  ****    0 ROOT
