@<TRIPOS>MOLECULE
3PC
   72    71     1     0     0
SMALL
bcc


@<TRIPOS>ATOM
      1 C15         1.1140    1.7570   -0.6290 c3        1 3PC     -0.093100
      2 C14         2.5250    1.2640   -0.4390 c3        1 3PC     -0.080400
      3 C13         2.7480    0.7500    0.9680 c3        1 3PC     -0.079400
      4 C12         4.1660    0.2530    1.1490 c3        1 3PC     -0.079400
      5 C11         4.3860   -0.2410    2.5630 c3        1 3PC     -0.127400
      6 C10         5.7400   -0.8610    2.7120 c         1 3PC      0.633100
      7 O7          6.3650   -1.5620    1.9130 o         1 3PC     -0.544000
      8 O6          6.3090   -0.5910    3.9250 os        1 3PC     -0.442900
      9 C9          7.5990   -1.1700    4.1810 c3        1 3PC      0.129400
     10 C8          7.8960   -0.8990    5.6580 c3        1 3PC      0.146100
     11 O5          7.3190   -2.0050    6.3800 os        1 3PC     -0.441900
     12 C16         6.6040   -1.7520    7.5160 c         1 3PC      0.641100
     13 O8          6.4460   -0.5890    7.8910 o         1 3PC     -0.546000
     14 C17         6.1180   -3.0150    8.1620 c3        1 3PC     -0.129400
     15 C18         4.7580   -2.8140    8.7940 c3        1 3PC     -0.078400
     16 C19         4.3330   -4.0470    9.5610 c3        1 3PC     -0.079400
     17 C20         2.9650   -3.8610   10.1820 c3        1 3PC     -0.079400
     18 C21         2.5370   -5.0830   10.9520 c3        1 3PC     -0.093100
     19 C7          9.3970   -0.8880    5.9060 c3        1 3PC     -0.080400
     20 C6          9.7550   -0.3780    7.2730 c3        1 3PC     -0.366600
     21 P1         11.4120   -0.3910    7.3970 p5        1 3PC      1.356600
     22 O2         11.9390   -1.4180    8.3340 o         1 3PC     -0.855500
     23 O3         12.1420   -0.1210    6.1420 o         1 3PC     -0.855500
     24 O1         11.6980    0.9950    8.3260 os        1 3PC     -0.588200
     25 C5         12.8490    1.6990    8.0480 c3        1 3PC      0.182400
     26 C4         13.7740    1.7910    9.2800 c3        1 3PC      0.087800
     27 N1         14.3190    0.4940    9.8170 n4        1 3PC     -0.580800
     28 C1         14.7770   -0.3960    8.7100 c3        1 3PC      0.077100
     29 C2         15.4810    0.8040   10.7000 c3        1 3PC      0.077100
     30 C3         13.2760   -0.2080   10.6250 c3        1 3PC      0.077100
     31 H151        0.8880    2.5900    0.0800 hc        1 3PC      0.033033
     32 H152        0.3810    0.9340   -0.4460 hc        1 3PC      0.033033
     33 H153        0.9710    2.1310   -1.6710 hc        1 3PC      0.033033
     34 H141        2.7410    0.4440   -1.1740 hc        1 3PC      0.041700
     35 H142        3.2470    2.0960   -0.6510 hc        1 3PC      0.041700
     36 H131        2.0260   -0.0810    1.1830 hc        1 3PC      0.040700
     37 H132        2.5380    1.5700    1.7050 hc        1 3PC      0.040700
     38 H121        4.3770   -0.5800    0.4260 hc        1 3PC      0.057200
     39 H122        4.8890    1.0790    0.9230 hc        1 3PC      0.057200
     40 H111        4.2740    0.6010    3.2970 hc        1 3PC      0.077700
     41 H112        3.6280   -1.0280    2.8250 hc        1 3PC      0.077700
     42 H91         7.5690   -2.2680    3.9610 h1        1 3PC      0.069700
     43 H92         8.3510   -0.6680    3.5190 h1        1 3PC      0.069700
     44 H8          7.4240    0.0690    5.9840 h1        1 3PC      0.097700
     45 H171        6.0820   -3.8380    7.4000 hc        1 3PC      0.078200
     46 H172        6.8740   -3.3030    8.9410 hc        1 3PC      0.078200
     47 H181        4.0030   -2.5840    7.9960 hc        1 3PC      0.056200
     48 H182        4.7930   -1.9260    9.4800 hc        1 3PC      0.056200
     49 H191        4.3160   -4.9330    8.8720 hc        1 3PC      0.040700
     50 H192        5.0830   -4.2680   10.3660 hc        1 3PC      0.040700
     51 H201        2.2160   -3.6410    9.3760 hc        1 3PC      0.040700
     52 H202        2.9840   -2.9710   10.8660 hc        1 3PC      0.040700
     53 H211        1.5260   -4.9250   11.4000 hc        1 3PC      0.032700
     54 H212        3.2580   -5.3030   11.7760 hc        1 3PC      0.032700
     55 H213        2.4890   -5.9750   10.2810 hc        1 3PC      0.032700
     56 H71         9.9040   -0.2390    5.1400 hc        1 3PC      0.072700
     57 H72         9.8050   -1.9270    5.7870 hc        1 3PC      0.072700
     58 H61         9.3300    0.6470    7.4250 hc        1 3PC      0.095700
     59 H62         9.2690   -1.0170    8.0540 hc        1 3PC      0.095700
     60 H51        12.5800    2.7730    7.8200 h1        1 3PC      0.065200
     61 H52        13.3990    1.2620    7.1650 h1        1 3PC      0.065200
     62 H41        14.6530    2.4330    8.9970 hx        1 3PC      0.074700
     63 H42        13.2040    2.2780   10.1200 hx        1 3PC      0.074700
     64 H11        15.3490   -1.2560    9.1430 hx        1 3PC      0.099589
     65 H12        15.4230    0.1900    8.0080 hx        1 3PC      0.099589
     66 H13        13.8650   -0.8040    8.1620 hx        1 3PC      0.099589
     67 H21        16.3110    1.2430   10.0880 hx        1 3PC      0.099589
     68 H22        15.8370   -0.1400   11.1890 hx        1 3PC      0.099589
     69 H23        15.1650    1.5370   11.4870 hx        1 3PC      0.099589
     70 H31        12.3690   -0.3960    9.9590 hx        1 3PC      0.099589
     71 H32        12.9980    0.4300   11.5010 hx        1 3PC      0.099589
     72 H33        13.6800   -1.1950   10.9660 hx        1 3PC      0.099589
@<TRIPOS>BOND
     1    1    2 1   
     2    1   31 1   
     3    1   32 1   
     4    1   33 1   
     5    2    3 1   
     6    2   34 1   
     7    2   35 1   
     8    3    4 1   
     9    3   36 1   
    10    3   37 1   
    11    4    5 1   
    12    4   38 1   
    13    4   39 1   
    14    5    6 1   
    15    5   40 1   
    16    5   41 1   
    17    6    7 2   
    18    6    8 1   
    19    8    9 1   
    20    9   10 1   
    21    9   42 1   
    22    9   43 1   
    23   10   11 1   
    24   10   19 1   
    25   10   44 1   
    26   11   12 1   
    27   12   13 2   
    28   12   14 1   
    29   14   15 1   
    30   14   45 1   
    31   14   46 1   
    32   15   16 1   
    33   15   47 1   
    34   15   48 1   
    35   16   17 1   
    36   16   49 1   
    37   16   50 1   
    38   17   18 1   
    39   17   51 1   
    40   17   52 1   
    41   18   53 1   
    42   18   54 1   
    43   18   55 1   
    44   19   20 1   
    45   19   56 1   
    46   19   57 1   
    47   20   21 1   
    48   20   58 1   
    49   20   59 1   
    50   21   22 1   
    51   21   23 1   
    52   21   24 1   
    53   24   25 1   
    54   25   26 1   
    55   25   60 1   
    56   25   61 1   
    57   26   27 1   
    58   26   62 1   
    59   26   63 1   
    60   27   28 1   
    61   27   29 1   
    62   27   30 1   
    63   28   64 1   
    64   28   65 1   
    65   28   66 1   
    66   29   67 1   
    67   29   68 1   
    68   29   69 1   
    69   30   70 1   
    70   30   71 1   
    71   30   72 1   
@<TRIPOS>SUBSTRUCTURE
     1 3PC         1 TEMP              0 ****  ****    0 ROOT
