@<TRIPOS>MOLECULE
3PC
   72    71     1     0     0
SMALL
bcc


@<TRIPOS>ATOM
      1 C15         0.4210    0.7360    0.0040 c3        1 3PC     -0.093100
      2 C14         1.6630   -0.0690    0.2870 c3        1 3PC     -0.080400
      3 C13         2.6240    0.6900    1.1780 c3        1 3PC     -0.079400
      4 C12         3.8700   -0.1230    1.4530 c3        1 3PC     -0.079400
      5 C11         4.8170    0.6350    2.3600 c3        1 3PC     -0.128400
      6 C10         6.1090   -0.1030    2.5250 c         1 3PC      0.633100
      7 O7          6.7390   -0.7610    1.6950 o         1 3PC     -0.544000
      8 O6          6.6260    0.0220    3.7850 os        1 3PC     -0.442900
      9 C9          7.8790   -0.6320    4.0400 c3        1 3PC      0.128400
     10 C8          8.1190   -0.5060    5.5470 c3        1 3PC      0.146100
     11 O5          7.4750   -1.6510    6.1410 os        1 3PC     -0.441900
     12 C16         6.7140   -1.4750    7.2610 c         1 3PC      0.641100
     13 O8          6.5730   -0.3450    7.7320 o         1 3PC     -0.546000
     14 C17         6.1590   -2.7730    7.7680 c3        1 3PC     -0.129400
     15 C18         4.7740   -2.5820    8.3490 c3        1 3PC     -0.078400
     16 C19         4.2760   -3.8630    8.9820 c3        1 3PC     -0.079400
     17 C20         2.8830   -3.6860    9.5490 c3        1 3PC     -0.079400
     18 C21         2.3810   -4.9550   10.1870 c3        1 3PC     -0.093100
     19 C7          9.6070   -0.5710    5.8570 c3        1 3PC     -0.080400
     20 C6          9.9190   -0.2040    7.2800 c3        1 3PC     -0.366600
     21 P1         11.5680   -0.2820    7.4690 p5        1 3PC      1.356600
     22 O2         12.0250   -1.4100    8.3240 o         1 3PC     -0.855500
     23 O3         12.3600    0.0820    6.2770 o         1 3PC     -0.855500
     24 O1         11.8530    1.0000    8.5380 os        1 3PC     -0.588200
     25 C5         13.0340    1.6890    8.3760 c3        1 3PC      0.182400
     26 C4         13.9060    1.6340    9.6480 c3        1 3PC      0.087800
     27 N1         14.3900    0.2750   10.0800 n4        1 3PC     -0.580800
     28 C1         14.8710   -0.5200    8.9120 c3        1 3PC      0.077100
     29 C2         15.5210    0.4630   11.0350 c3        1 3PC      0.077100
     30 C3         13.2930   -0.4660   10.7730 c3        1 3PC      0.077100
     31 H151        0.6800    1.6930   -0.5110 hc        1 3PC      0.033033
     32 H152       -0.2740    0.1590   -0.6520 hc        1 3PC      0.033033
     33 H153       -0.1140    0.9830    0.9530 hc        1 3PC      0.033033
     34 H141        2.1740   -0.3270   -0.6780 hc        1 3PC      0.041700
     35 H142        1.3810   -1.0360    0.7810 hc        1 3PC      0.041700
     36 H131        2.1170    0.9450    2.1460 hc        1 3PC      0.040700
     37 H132        2.9050    1.6590    0.6870 hc        1 3PC      0.040700
     38 H121        3.5900   -1.0970    1.9330 hc        1 3PC      0.056700
     39 H122        4.3920   -0.3670    0.4890 hc        1 3PC      0.056700
     40 H111        5.0590    1.6390    1.9200 hc        1 3PC      0.077700
     41 H112        4.3490    0.8050    3.3650 hc        1 3PC      0.077700
     42 H91         7.8140   -1.7050    3.7220 h1        1 3PC      0.069200
     43 H92         8.6800   -0.1080    3.4590 h1        1 3PC      0.069200
     44 H8          7.6640    0.4450    5.9410 h1        1 3PC      0.097700
     45 H171        6.8650   -3.1520    8.5550 hc        1 3PC      0.078200
     46 H172        6.1380   -3.5250    6.9360 hc        1 3PC      0.078200
     47 H181        4.0680   -2.2600    7.5380 hc        1 3PC      0.056200
     48 H182        4.7990   -1.7590    9.1120 hc        1 3PC      0.056200
     49 H191        4.9760   -4.1770    9.8000 hc        1 3PC      0.040700
     50 H192        4.2690   -4.6840    8.2180 hc        1 3PC      0.040700
     51 H201        2.1830   -3.3730    8.7300 hc        1 3PC      0.040700
     52 H202        2.8920   -2.8600   10.3090 hc        1 3PC      0.040700
     53 H211        2.3430   -5.7840    9.4380 hc        1 3PC      0.032700
     54 H212        1.3540   -4.8030   10.5970 hc        1 3PC      0.032700
     55 H213        3.0520   -5.2700   11.0220 hc        1 3PC      0.032700
     56 H71        10.1670    0.1280    5.1780 hc        1 3PC      0.072700
     57 H72         9.9870   -1.6080    5.6580 hc        1 3PC      0.072700
     58 H61         9.5170    0.8150    7.5120 hc        1 3PC      0.095700
     59 H62         9.3820   -0.8980    7.9760 hc        1 3PC      0.095700
     60 H51        12.8060    2.7880    8.2410 h1        1 3PC      0.065200
     61 H52        13.6090    1.3200    7.4780 h1        1 3PC      0.065200
     62 H41        14.8150    2.2720    9.4640 hx        1 3PC      0.074700
     63 H42        13.3150    2.0580   10.5060 hx        1 3PC      0.074700
     64 H11        13.9730   -0.8440    8.2910 hx        1 3PC      0.099589
     65 H12        15.3990   -1.4350    9.2840 hx        1 3PC      0.099589
     66 H13        15.5640    0.1080    8.2970 hx        1 3PC      0.099589
     67 H21        15.8280   -0.5340   11.4450 hx        1 3PC      0.099589
     68 H22        15.1920    1.1280   11.8760 hx        1 3PC      0.099589
     69 H23        16.3900    0.9310   10.5030 hx        1 3PC      0.099589
     70 H31        13.6550   -1.4930   11.0340 hx        1 3PC      0.099589
     71 H32        12.9960    0.0950   11.6950 hx        1 3PC      0.099589
     72 H33        12.4120   -0.5610   10.0560 hx        1 3PC      0.099589
@<TRIPOS>BOND
     1    1    2 1   
     2    1   31 1   
     3    1   32 1   
     4    1   33 1   
     5    2    3 1   
     6    2   34 1   
     7    2   35 1   
     8    3    4 1   
     9    3   36 1   
    10    3   37 1   
    11    4    5 1   
    12    4   38 1   
    13    4   39 1   
    14    5    6 1   
    15    5   40 1   
    16    5   41 1   
    17    6    7 2   
    18    6    8 1   
    19    8    9 1   
    20    9   10 1   
    21    9   42 1   
    22    9   43 1   
    23   10   11 1   
    24   10   19 1   
    25   10   44 1   
    26   11   12 1   
    27   12   13 2   
    28   12   14 1   
    29   14   15 1   
    30   14   45 1   
    31   14   46 1   
    32   15   16 1   
    33   15   47 1   
    34   15   48 1   
    35   16   17 1   
    36   16   49 1   
    37   16   50 1   
    38   17   18 1   
    39   17   51 1   
    40   17   52 1   
    41   18   53 1   
    42   18   54 1   
    43   18   55 1   
    44   19   20 1   
    45   19   56 1   
    46   19   57 1   
    47   20   21 1   
    48   20   58 1   
    49   20   59 1   
    50   21   22 1   
    51   21   23 1   
    52   21   24 1   
    53   24   25 1   
    54   25   26 1   
    55   25   60 1   
    56   25   61 1   
    57   26   27 1   
    58   26   62 1   
    59   26   63 1   
    60   27   28 1   
    61   27   29 1   
    62   27   30 1   
    63   28   64 1   
    64   28   65 1   
    65   28   66 1   
    66   29   67 1   
    67   29   68 1   
    68   29   69 1   
    69   30   70 1   
    70   30   71 1   
    71   30   72 1   
@<TRIPOS>SUBSTRUCTURE
     1 3PC         1 TEMP              0 ****  ****    0 ROOT
