@<TRIPOS>MOLECULE
3PC
   72    71     1     0     0
SMALL
bcc


@<TRIPOS>ATOM
      1 C15         9.9090    2.1240   -0.9910 c3        1 3PC     -0.093100
      2 C14         8.7500    2.0420   -0.0320 c3        1 3PC     -0.080400
      3 C13         7.4240    2.1200   -0.7580 c3        1 3PC     -0.079400
      4 C12         6.2650    2.0420    0.2130 c3        1 3PC     -0.079400
      5 C11         4.9430    2.1020   -0.5220 c3        1 3PC     -0.128400
      6 C10         3.7960    2.1640    0.4390 c         1 3PC      0.633100
      7 O7          3.7180    2.7540    1.5180 o         1 3PC     -0.544000
      8 O6          2.7060    1.4680   -0.0040 os        1 3PC     -0.442900
      9 C9          1.5410    1.4830    0.8380 c3        1 3PC      0.128400
     10 C8          0.5620    0.4820    0.2180 c3        1 3PC      0.146100
     11 O5          0.8880   -0.7940    0.8040 os        1 3PC     -0.441900
     12 C16         0.9630   -1.8930   -0.0030 c         1 3PC      0.641100
     13 O8          0.7720   -1.7740   -1.2140 o         1 3PC     -0.546000
     14 C17         1.2660   -3.1380    0.7760 c3        1 3PC     -0.129400
     15 C18         2.1470   -4.0760   -0.0200 c3        1 3PC     -0.078400
     16 C19         2.3370   -5.3870    0.7130 c3        1 3PC     -0.079400
     17 C20         3.2320   -6.3250   -0.0690 c3        1 3PC     -0.079400
     18 C21         3.4220   -7.6340    0.6510 c3        1 3PC     -0.093100
     19 C7         -0.8700    0.8360    0.5920 c3        1 3PC     -0.080400
     20 C6         -1.8840    0.0440   -0.1840 c3        1 3PC     -0.366600
     21 P1         -3.3920    0.5540    0.2940 p5        1 3PC      1.356600
     22 O2         -4.1450   -0.4520    1.0890 o         1 3PC     -0.855500
     23 O3         -3.4900    1.9800    0.6610 o         1 3PC     -0.855500
     24 O1         -4.2620    0.4590   -1.1560 os        1 3PC     -0.588200
     25 C5         -5.2390    1.4090   -1.3530 c3        1 3PC      0.182400
     26 C4         -6.6300    0.7670   -1.5360 c3        1 3PC      0.087800
     27 N1         -7.1770   -0.0110   -0.3680 n4        1 3PC     -0.580800
     28 C1         -6.9460    0.7140    0.9150 c3        1 3PC      0.077100
     29 C2         -8.6450   -0.1840   -0.5680 c3        1 3PC      0.077100
     30 C3         -6.5390   -1.3610   -0.3040 c3        1 3PC      0.077100
     31 H151        9.8720    1.2860   -1.7280 hc        1 3PC      0.033033
     32 H152        9.8860    3.0880   -1.5560 hc        1 3PC      0.033033
     33 H153       10.8770    2.0640   -0.4360 hc        1 3PC      0.033033
     34 H141        8.8040    1.0800    0.5440 hc        1 3PC      0.041700
     35 H142        8.8170    2.8770    0.7140 hc        1 3PC      0.041700
     36 H131        7.3680    3.0810   -1.3350 hc        1 3PC      0.040700
     37 H132        7.3510    1.2830   -1.5010 hc        1 3PC      0.040700
     38 H121        6.3260    1.0880    0.8000 hc        1 3PC      0.056700
     39 H122        6.3220    2.8880    0.9490 hc        1 3PC      0.056700
     40 H111        4.8930    3.0240   -1.1620 hc        1 3PC      0.077700
     41 H112        4.8240    1.2110   -1.1940 hc        1 3PC      0.077700
     42 H91         1.8270    1.1890    1.8800 h1        1 3PC      0.069200
     43 H92         1.1140    2.5190    0.8360 h1        1 3PC      0.069200
     44 H8          0.6920    0.4430   -0.8990 h1        1 3PC      0.097700
     45 H171        1.7560   -2.8650    1.7480 hc        1 3PC      0.078200
     46 H172        0.2840   -3.6290    1.0140 hc        1 3PC      0.078200
     47 H181        1.6840   -4.2600   -1.0260 hc        1 3PC      0.056200
     48 H182        3.1440   -3.5940   -0.1990 hc        1 3PC      0.056200
     49 H191        2.7860   -5.1940    1.7230 hc        1 3PC      0.040700
     50 H192        1.3400   -5.8730    0.8800 hc        1 3PC      0.040700
     51 H201        2.7840   -6.5120   -1.0810 hc        1 3PC      0.040700
     52 H202        4.2290   -5.8370   -0.2350 hc        1 3PC      0.040700
     53 H211        3.8900   -7.4700    1.6520 hc        1 3PC      0.032700
     54 H212        2.4420   -8.1470    0.8040 hc        1 3PC      0.032700
     55 H213        4.0850   -8.3100    0.0590 hc        1 3PC      0.032700
     56 H71        -1.0280    0.6540    1.6880 hc        1 3PC      0.073200
     57 H72        -1.0510    1.9290    0.4030 hc        1 3PC      0.073200
     58 H61        -1.7210    0.1840   -1.2830 hc        1 3PC      0.095700
     59 H62        -1.7310   -1.0500    0.0000 hc        1 3PC      0.095700
     60 H51        -5.2540    2.1680   -0.5180 h1        1 3PC      0.065200
     61 H52        -5.0460    1.9410   -2.3320 h1        1 3PC      0.065200
     62 H41        -7.3590    1.5950   -1.7590 hx        1 3PC      0.074700
     63 H42        -6.5850    0.0570   -2.4080 hx        1 3PC      0.074700
     64 H11        -7.2700    1.7790    0.8020 hx        1 3PC      0.099589
     65 H12        -7.5290    0.2130    1.7300 hx        1 3PC      0.099589
     66 H13        -5.8380    0.6620    1.1750 hx        1 3PC      0.099589
     67 H21        -8.8330   -0.6550   -1.5680 hx        1 3PC      0.099589
     68 H22        -9.0530   -0.8470    0.2390 hx        1 3PC      0.099589
     69 H23        -9.1520    0.8150   -0.5210 hx        1 3PC      0.099589
     70 H31        -5.4110   -1.2230   -0.2040 hx        1 3PC      0.099589
     71 H32        -6.9150   -1.9000    0.6020 hx        1 3PC      0.099589
     72 H33        -6.7870   -1.9300   -1.2340 hx        1 3PC      0.099589
@<TRIPOS>BOND
     1    1    2 1   
     2    1   31 1   
     3    1   32 1   
     4    1   33 1   
     5    2    3 1   
     6    2   34 1   
     7    2   35 1   
     8    3    4 1   
     9    3   36 1   
    10    3   37 1   
    11    4    5 1   
    12    4   38 1   
    13    4   39 1   
    14    5    6 1   
    15    5   40 1   
    16    5   41 1   
    17    6    7 2   
    18    6    8 1   
    19    8    9 1   
    20    9   10 1   
    21    9   42 1   
    22    9   43 1   
    23   10   11 1   
    24   10   19 1   
    25   10   44 1   
    26   11   12 1   
    27   12   13 2   
    28   12   14 1   
    29   14   15 1   
    30   14   45 1   
    31   14   46 1   
    32   15   16 1   
    33   15   47 1   
    34   15   48 1   
    35   16   17 1   
    36   16   49 1   
    37   16   50 1   
    38   17   18 1   
    39   17   51 1   
    40   17   52 1   
    41   18   53 1   
    42   18   54 1   
    43   18   55 1   
    44   19   20 1   
    45   19   56 1   
    46   19   57 1   
    47   20   21 1   
    48   20   58 1   
    49   20   59 1   
    50   21   22 1   
    51   21   23 1   
    52   21   24 1   
    53   24   25 1   
    54   25   26 1   
    55   25   60 1   
    56   25   61 1   
    57   26   27 1   
    58   26   62 1   
    59   26   63 1   
    60   27   28 1   
    61   27   29 1   
    62   27   30 1   
    63   28   64 1   
    64   28   65 1   
    65   28   66 1   
    66   29   67 1   
    67   29   68 1   
    68   29   69 1   
    69   30   70 1   
    70   30   71 1   
    71   30   72 1   
@<TRIPOS>SUBSTRUCTURE
     1 3PC         1 TEMP              0 ****  ****    0 ROOT
