@<TRIPOS>MOLECULE
3PC
   72    71     1     0     0
SMALL
bcc


@<TRIPOS>ATOM
      1 C15         0.4180    0.7650    0.0030 c3        1 3PC     -0.093100
      2 C14         1.6600   -0.0410    0.2830 c3        1 3PC     -0.080400
      3 C13         2.6180    0.7120    1.1820 c3        1 3PC     -0.079400
      4 C12         3.8650   -0.1020    1.4530 c3        1 3PC     -0.079400
      5 C11         4.8080    0.6490    2.3680 c3        1 3PC     -0.127400
      6 C10         6.1020   -0.0880    2.5290 c         1 3PC      0.633100
      7 O7          6.7330   -0.7410    1.6950 o         1 3PC     -0.544000
      8 O6          6.6180    0.0300    3.7890 os        1 3PC     -0.442900
      9 C9          7.8720   -0.6240    4.0410 c3        1 3PC      0.128400
     10 C8          8.1130   -0.5030    5.5480 c3        1 3PC      0.146100
     11 O5          7.4740   -1.6530    6.1380 os        1 3PC     -0.441900
     12 C16         6.7140   -1.4850    7.2600 c         1 3PC      0.641100
     13 O8          6.5710   -0.3570    7.7370 o         1 3PC     -0.546000
     14 C17         6.1650   -2.7870    7.7620 c3        1 3PC     -0.129400
     15 C18         4.7830   -2.6020    8.3510 c3        1 3PC     -0.078400
     16 C19         4.2900   -3.8880    8.9800 c3        1 3PC     -0.079400
     17 C20         2.9010   -3.7170    9.5560 c3        1 3PC     -0.079400
     18 C21         2.4040   -4.9920   10.1880 c3        1 3PC     -0.093100
     19 C7          9.6020   -0.5650    5.8570 c3        1 3PC     -0.080400
     20 C6          9.9150   -0.2050    7.2810 c3        1 3PC     -0.366600
     21 P1         11.5650   -0.2780    7.4670 p5        1 3PC      1.356600
     22 O2         12.0270   -1.4100    8.3130 o         1 3PC     -0.855500
     23 O3         12.3520    0.0980    6.2760 o         1 3PC     -0.855500
     24 O1         11.8460    0.9980    8.5450 os        1 3PC     -0.588200
     25 C5         13.0240    1.6930    8.3860 c3        1 3PC      0.182400
     26 C4         13.8980    1.6320    9.6560 c3        1 3PC      0.087800
     27 N1         14.3890    0.2720   10.0770 n4        1 3PC     -0.580800
     28 C1         14.8710   -0.5120    8.9020 c3        1 3PC      0.077100
     29 C2         15.5200    0.4580   11.0310 c3        1 3PC      0.077100
     30 C3         13.2960   -0.4780   10.7670 c3        1 3PC      0.077100
     31 H151        0.6770    1.7260   -0.5050 hc        1 3PC      0.033033
     32 H152       -0.2750    0.1920   -0.6600 hc        1 3PC      0.033033
     33 H153       -0.1200    1.0050    0.9520 hc        1 3PC      0.033033
     34 H141        2.1730   -0.2920   -0.6830 hc        1 3PC      0.041700
     35 H142        1.3770   -1.0130    0.7680 hc        1 3PC      0.041700
     36 H131        2.1090    0.9580    2.1510 hc        1 3PC      0.040700
     37 H132        2.9000    1.6840    0.6990 hc        1 3PC      0.040700
     38 H121        3.5840   -1.0810    1.9240 hc        1 3PC      0.056700
     39 H122        4.3880   -0.3380    0.4890 hc        1 3PC      0.056700
     40 H111        5.0500    1.6580    1.9370 hc        1 3PC      0.077700
     41 H112        4.3390    0.8100    3.3740 hc        1 3PC      0.077700
     42 H91         7.8090   -1.6950    3.7180 h1        1 3PC      0.069200
     43 H92         8.6720   -0.0960    3.4610 h1        1 3PC      0.069200
     44 H8          7.6560    0.4450    5.9470 h1        1 3PC      0.097700
     45 H171        6.8760   -3.1690    8.5430 hc        1 3PC      0.078200
     46 H172        6.1410   -3.5330    6.9260 hc        1 3PC      0.078200
     47 H181        4.0720   -2.2760    7.5470 hc        1 3PC      0.056200
     48 H182        4.8110   -1.7840    9.1200 hc        1 3PC      0.056200
     49 H191        4.9960   -4.2060    9.7910 hc        1 3PC      0.040700
     50 H192        4.2800   -4.7040    8.2100 hc        1 3PC      0.040700
     51 H201        2.9120   -2.8960   10.3210 hc        1 3PC      0.040700
     52 H202        2.1950   -3.3990    8.7430 hc        1 3PC      0.040700
     53 H211        2.3630   -5.8150    9.4340 hc        1 3PC      0.032700
     54 H212        3.0810   -5.3100   11.0170 hc        1 3PC      0.032700
     55 H213        1.3790   -4.8440   10.6050 hc        1 3PC      0.032700
     56 H71         9.9850   -1.6000    5.6500 hc        1 3PC      0.073200
     57 H72        10.1590    0.1400    5.1800 hc        1 3PC      0.073200
     58 H61         9.3820   -0.9050    7.9740 hc        1 3PC      0.095700
     59 H62         9.5090    0.8110    7.5190 hc        1 3PC      0.095700
     60 H51        13.5980    1.3330    7.4840 h1        1 3PC      0.065200
     61 H52        12.7910    2.7920    8.2600 h1        1 3PC      0.065200
     62 H41        14.8040    2.2750    9.4750 hx        1 3PC      0.074700
     63 H42        13.3060    2.0470   10.5190 hx        1 3PC      0.074700
     64 H11        13.9730   -0.8360    8.2800 hx        1 3PC      0.099589
     65 H12        15.4030   -1.4280    9.2660 hx        1 3PC      0.099589
     66 H13        15.5600    0.1230    8.2910 hx        1 3PC      0.099589
     67 H21        15.8330   -0.5410   11.4340 hx        1 3PC      0.099589
     68 H22        16.3860    0.9330   10.5010 hx        1 3PC      0.099589
     69 H23        15.1900    1.1150   11.8770 hx        1 3PC      0.099589
     70 H31        12.9990    0.0740   11.6930 hx        1 3PC      0.099589
     71 H32        13.6620   -1.5060   11.0190 hx        1 3PC      0.099589
     72 H33        12.4140   -0.5720   10.0510 hx        1 3PC      0.099589
@<TRIPOS>BOND
     1    1    2 1   
     2    1   31 1   
     3    1   32 1   
     4    1   33 1   
     5    2    3 1   
     6    2   34 1   
     7    2   35 1   
     8    3    4 1   
     9    3   36 1   
    10    3   37 1   
    11    4    5 1   
    12    4   38 1   
    13    4   39 1   
    14    5    6 1   
    15    5   40 1   
    16    5   41 1   
    17    6    7 2   
    18    6    8 1   
    19    8    9 1   
    20    9   10 1   
    21    9   42 1   
    22    9   43 1   
    23   10   11 1   
    24   10   19 1   
    25   10   44 1   
    26   11   12 1   
    27   12   13 2   
    28   12   14 1   
    29   14   15 1   
    30   14   45 1   
    31   14   46 1   
    32   15   16 1   
    33   15   47 1   
    34   15   48 1   
    35   16   17 1   
    36   16   49 1   
    37   16   50 1   
    38   17   18 1   
    39   17   51 1   
    40   17   52 1   
    41   18   53 1   
    42   18   54 1   
    43   18   55 1   
    44   19   20 1   
    45   19   56 1   
    46   19   57 1   
    47   20   21 1   
    48   20   58 1   
    49   20   59 1   
    50   21   22 1   
    51   21   23 1   
    52   21   24 1   
    53   24   25 1   
    54   25   26 1   
    55   25   60 1   
    56   25   61 1   
    57   26   27 1   
    58   26   62 1   
    59   26   63 1   
    60   27   28 1   
    61   27   29 1   
    62   27   30 1   
    63   28   64 1   
    64   28   65 1   
    65   28   66 1   
    66   29   67 1   
    67   29   68 1   
    68   29   69 1   
    69   30   70 1   
    70   30   71 1   
    71   30   72 1   
@<TRIPOS>SUBSTRUCTURE
     1 3PC         1 TEMP              0 ****  ****    0 ROOT
