@<TRIPOS>MOLECULE
3PC
   72    71     1     0     0
SMALL
bcc


@<TRIPOS>ATOM
      1 C15        -6.3470    5.4600   -3.6570 c3        1 3PC     -0.093100
      2 C14        -5.8940    4.0120   -3.6930 c3        1 3PC     -0.080400
      3 C13        -5.2260    3.6610   -2.3740 c3        1 3PC     -0.079400
      4 C12        -4.5100    2.3050   -2.5030 c3        1 3PC     -0.079400
      5 C11        -3.8700    1.9260   -1.1390 c3        1 3PC     -0.128400
      6 C10        -3.0980    0.6080   -1.2820 c         1 3PC      0.632100
      7 O7         -3.3930   -0.1830   -2.1760 o         1 3PC     -0.547000
      8 O6         -2.0750    0.2670   -0.3310 os        1 3PC     -0.440900
      9 C9         -1.3430   -0.9130   -0.6700 c3        1 3PC      0.129400
     10 C8         -0.5620   -1.3790    0.5220 c3        1 3PC      0.146100
     11 O5         -1.0890   -2.6210    0.9820 os        1 3PC     -0.444900
     12 C16        -1.4370   -2.6260    2.3870 c         1 3PC      0.641100
     13 O8         -1.4980   -1.5850    2.9960 o         1 3PC     -0.543000
     14 C17        -1.6070   -3.9710    3.1360 c3        1 3PC     -0.128400
     15 C18        -2.7250   -3.8380    4.1940 c3        1 3PC     -0.078400
     16 C19        -3.0860   -5.2340    4.7350 c3        1 3PC     -0.079400
     17 C20        -4.1520   -5.1050    5.7910 c3        1 3PC     -0.079400
     18 C21        -4.6120   -6.4980    6.2190 c3        1 3PC     -0.093100
     19 C7          0.8950   -1.5590    0.1310 c3        1 3PC     -0.082400
     20 C6          1.6200   -0.2000    0.2250 c3        1 3PC     -0.360600
     21 P1          3.4190   -0.4290   -0.1140 p5        1 3PC      1.357600
     22 O2          4.1230   -0.8310    1.1590 o         1 3PC     -0.867500
     23 O3          3.6040   -1.5100   -1.1570 o         1 3PC     -0.867500
     24 O1          4.0330    0.9380   -0.6490 os        1 3PC     -0.561200
     25 C5          5.4200    0.9670   -1.0370 c3        1 3PC      0.206400
     26 C4          5.8050    2.4160   -1.4770 c3        1 3PC      0.071800
     27 N1          7.1370    2.4090   -2.0550 n4        1 3PC     -0.588800
     28 C1          7.1470    1.5740   -3.2250 c3        1 3PC      0.084433
     29 C2          7.5090    3.7560   -2.4210 c3        1 3PC      0.084433
     30 C3          8.0980    1.8870   -1.0680 c3        1 3PC      0.084433
     31 H151       -6.7620    5.6940   -4.5150 hc        1 3PC      0.033033
     32 H152       -7.0000    5.5810   -2.9350 hc        1 3PC      0.033033
     33 H153       -5.5740    6.0410   -3.4980 hc        1 3PC      0.033033
     34 H141       -6.6680    3.4310   -3.8320 hc        1 3PC      0.041200
     35 H142       -5.2580    3.8890   -4.4230 hc        1 3PC      0.041200
     36 H131       -5.9010    3.6060   -1.6730 hc        1 3PC      0.040700
     37 H132       -4.5760    4.3510   -2.1460 hc        1 3PC      0.040700
     38 H121       -3.8060    2.3700   -3.1900 hc        1 3PC      0.056700
     39 H122       -5.1600    1.6150   -2.7630 hc        1 3PC      0.056700
     40 H111       -4.5730    1.8200   -0.4670 hc        1 3PC      0.078200
     41 H112       -3.2600    2.6290   -0.8610 hc        1 3PC      0.078200
     42 H91        -0.7280   -0.7150   -1.4030 h1        1 3PC      0.067700
     43 H92        -1.9580   -1.6060   -0.9430 h1        1 3PC      0.067700
     44 H8         -0.6280   -0.7140    1.2350 h1        1 3PC      0.099700
     45 H171       -0.7620   -4.2080    3.5800 hc        1 3PC      0.078200
     46 H172       -1.8480   -4.6780    2.4910 hc        1 3PC      0.078200
     47 H181       -2.4110   -3.2680    4.9360 hc        1 3PC      0.056200
     48 H182       -3.5180   -3.4320    3.7830 hc        1 3PC      0.056200
     49 H191       -2.2870   -5.6500    5.1250 hc        1 3PC      0.040700
     50 H192       -3.4200   -5.7940    3.9990 hc        1 3PC      0.040700
     51 H201       -4.9140   -4.6060    5.4280 hc        1 3PC      0.040700
     52 H202       -3.7890   -4.6290    6.5650 hc        1 3PC      0.040700
     53 H211       -3.8450   -7.0050    6.5640 hc        1 3PC      0.032700
     54 H212       -5.2960   -6.4170    6.9230 hc        1 3PC      0.032700
     55 H213       -4.9930   -6.9680    5.4450 hc        1 3PC      0.032700
     56 H71         0.9480   -1.9010   -0.8000 hc        1 3PC      0.073200
     57 H72         1.3140   -2.1900    0.7300 hc        1 3PC      0.073200
     58 H61         1.2370    0.4240   -0.4410 hc        1 3PC      0.091700
     59 H62         1.5020    0.1680    1.1190 hc        1 3PC      0.091700
     60 H51         5.9760    0.6980   -0.2790 h1        1 3PC      0.043200
     61 H52         5.5660    0.3390   -1.7960 h1        1 3PC      0.043200
     62 H41         5.1530    2.7420   -2.1510 hx        1 3PC      0.096700
     63 H42         5.7910    3.0050   -0.7010 hx        1 3PC      0.096700
     64 H11         7.9420    1.7910   -3.7810 hx        1 3PC      0.097367
     65 H12         7.1840    0.6420   -2.9580 hx        1 3PC      0.097367
     66 H13         6.3230    1.7340   -3.7510 hx        1 3PC      0.097367
     67 H21         6.8480    4.1180   -3.0720 hx        1 3PC      0.097367
     68 H22         8.3930    3.7500   -2.8260 hx        1 3PC      0.097367
     69 H23         7.5210    4.3200   -1.6200 hx        1 3PC      0.097367
     70 H31         9.0310    2.0240   -1.4040 hx        1 3PC      0.097367
     71 H32         7.9830    2.3660   -0.2120 hx        1 3PC      0.097367
     72 H33         7.9390    0.9320   -0.9300 hx        1 3PC      0.097367
@<TRIPOS>BOND
     1    1    2 1   
     2    1   31 1   
     3    1   32 1   
     4    1   33 1   
     5    2    3 1   
     6    2   34 1   
     7    2   35 1   
     8    3    4 1   
     9    3   36 1   
    10    3   37 1   
    11    4    5 1   
    12    4   38 1   
    13    4   39 1   
    14    5    6 1   
    15    5   40 1   
    16    5   41 1   
    17    6    7 2   
    18    6    8 1   
    19    8    9 1   
    20    9   10 1   
    21    9   42 1   
    22    9   43 1   
    23   10   11 1   
    24   10   19 1   
    25   10   44 1   
    26   11   12 1   
    27   12   13 2   
    28   12   14 1   
    29   14   15 1   
    30   14   45 1   
    31   14   46 1   
    32   15   16 1   
    33   15   47 1   
    34   15   48 1   
    35   16   17 1   
    36   16   49 1   
    37   16   50 1   
    38   17   18 1   
    39   17   51 1   
    40   17   52 1   
    41   18   53 1   
    42   18   54 1   
    43   18   55 1   
    44   19   20 1   
    45   19   56 1   
    46   19   57 1   
    47   20   21 1   
    48   20   58 1   
    49   20   59 1   
    50   21   22 1   
    51   21   23 1   
    52   21   24 1   
    53   24   25 1   
    54   25   26 1   
    55   25   60 1   
    56   25   61 1   
    57   26   27 1   
    58   26   62 1   
    59   26   63 1   
    60   27   28 1   
    61   27   29 1   
    62   27   30 1   
    63   28   64 1   
    64   28   65 1   
    65   28   66 1   
    66   29   67 1   
    67   29   68 1   
    68   29   69 1   
    69   30   70 1   
    70   30   71 1   
    71   30   72 1   
@<TRIPOS>SUBSTRUCTURE
     1 3PC         1 TEMP              0 ****  ****    0 ROOT
