@<TRIPOS>MOLECULE
3PD
   35    37     1     0     0
SMALL
bcc


@<TRIPOS>ATOM
      1 O5'         0.8930    0.0530   -0.1220 oh        1 3PD     -0.671800
      2 C5'         1.4670   -0.8440    0.7910 c3        1 3PD      0.162400
      3 C4'         2.0960   -0.1180    1.9800 c3        1 3PD      0.041100
      4 O4'         2.0330   -0.9890    3.1340 os        1 3PD     -0.439600
      5 C1'         3.3400   -1.3100    3.5960 c3        1 3PD      0.242800
      6 C2'         4.3190   -0.3060    2.9710 c3        1 3PD     -0.154400
      7 C3'         3.5810    0.2880    1.7430 c3        1 3PD      0.235100
      8 O3'         3.7330    1.6380    1.6810 os        1 3PD     -0.536200
      9 N9          3.6580   -2.7080    3.2780 na        1 3PD     -0.175900
     10 C4          3.4460   -3.8200    4.0930 cc        1 3PD      0.065800
     11 N3          2.9760   -3.8850    5.3970 nc        1 3PD     -0.615100
     12 C2          2.9110   -5.1200    5.9140 cd        1 3PD      0.594800
     13 N2          2.5030   -5.2940    7.2860 nh        1 3PD     -0.866800
     14 N1          3.2490   -6.3020    5.2220 n         1 3PD     -0.499400
     15 C6          3.7480   -6.2890    3.8930 c         1 3PD      0.646000
     16 O6          4.0400   -7.3910    3.3930 o         1 3PD     -0.648500
     17 C5          3.8360   -4.9710    3.3070 cd        1 3PD      0.188800
     18 N7          4.2560   -4.5660    2.0410 nd        1 3PD     -0.634000
     19 C8          4.1280   -3.2190    2.0510 cc        1 3PD      0.439400
     20 P           4.3590    2.1460    0.1140 p5        1 3PD      1.322900
     21 O1P         4.5070    3.6260    0.2610 o         1 3PD     -0.922167
     22 O2P         3.2180    1.6310   -0.7310 o         1 3PD     -0.922167
     23 O1          5.6030    1.3060    0.0530 o         1 3PD     -0.922167
     24 H5'         1.6020    0.6760   -0.4190 ho        1 3PD      0.506000
     25 H5'1        0.6240   -1.4980    1.1440 h1        1 3PD      0.006700
     26 H5'2        2.2340   -1.4890    0.2810 h1        1 3PD      0.006700
     27 H4'         1.4880    0.7850    2.2500 h1        1 3PD      0.084700
     28 H1'         3.2920   -1.2480    4.7220 h2        1 3PD      0.070700
     29 H2'1        4.5210    0.5090    3.7090 hc        1 3PD      0.068700
     30 H2'2        5.2910   -0.7520    2.6620 hc        1 3PD      0.068700
     31 H3'         3.9620   -0.2110    0.8020 h1        1 3PD      0.061700
     32 HN21        1.6190   -5.7620    7.3280 hn        1 3PD      0.382300
     33 HN22        2.4490   -4.4110    7.7600 hn        1 3PD      0.382300
     34 HN1         3.2160   -7.1760    5.6950 hn        1 3PD      0.321500
     35 H8          4.3590   -2.5380    1.2130 h5        1 3PD      0.107100
@<TRIPOS>BOND
     1    1    2 1   
     2    1   24 1   
     3    2    3 1   
     4    2   25 1   
     5    2   26 1   
     6    3    4 1   
     7    3    7 1   
     8    3   27 1   
     9    4    5 1   
    10    5    6 1   
    11    5    9 1   
    12    5   28 1   
    13    6    7 1   
    14    6   29 1   
    15    6   30 1   
    16    7    8 1   
    17    7   31 1   
    18    8   20 1   
    19    9   10 1   
    20    9   19 1   
    21   10   11 1   
    22   10   17 2   
    23   11   12 2   
    24   12   13 1   
    25   12   14 1   
    26   13   32 1   
    27   13   33 1   
    28   14   15 1   
    29   14   34 1   
    30   15   16 2   
    31   15   17 1   
    32   17   18 1   
    33   18   19 2   
    34   19   35 1   
    35   20   21 1   
    36   20   22 1   
    37   20   23 1   
@<TRIPOS>SUBSTRUCTURE
     1 3PD         1 TEMP              0 ****  ****    0 ROOT
