@<TRIPOS>MOLECULE
3PD
   35    37     1     0     0
SMALL
bcc


@<TRIPOS>ATOM
      1 O5'         1.7680    0.3150   -0.9480 oh        1 3PD     -0.670800
      2 C5'         1.9980   -0.6920    0.0030 c3        1 3PD      0.157400
      3 C4'         2.0540   -0.1310    1.4230 c3        1 3PD      0.045100
      4 O4'         1.5100   -1.1160    2.3310 os        1 3PD     -0.443600
      5 C1'         2.4940   -1.5570    3.2560 c3        1 3PD      0.249800
      6 C2'         3.7400   -0.6700    3.1130 c3        1 3PD     -0.146400
      7 C3'         3.4950    0.2430    1.8850 c3        1 3PD      0.237100
      8 O3'         3.5810    1.5570    2.2280 os        1 3PD     -0.540200
      9 N9          2.7330   -2.9920    3.0350 na        1 3PD     -0.168900
     10 C4          3.0540   -3.9380    4.0050 cc        1 3PD      0.063800
     11 N3          3.2640   -3.7710    5.3670 nc        1 3PD     -0.614100
     12 C2          3.5710   -4.8940    6.0330 cd        1 3PD      0.600800
     13 N2          3.7400   -4.8430    7.4630 nv        1 3PD     -0.867800
     14 N1          3.7110   -6.1680    5.4420 ns        1 3PD     -0.499400
     15 C6          3.4900   -6.3950    4.0600 c         1 3PD      0.647000
     16 O6          3.6070   -7.5660    3.6550 o         1 3PD     -0.650500
     17 C5          3.1570   -5.2050    3.3090 cd        1 3PD      0.186800
     18 N7          2.8990   -5.0270    1.9530 nd        1 3PD     -0.637000
     19 C8          2.6540   -3.7010    1.8230 cc        1 3PD      0.430400
     20 P           4.6060    2.4600    1.1160 p5        1 3PD      1.325900
     21 O1P         4.4920    3.8670    1.6120 o         1 3PD     -0.923833
     22 O2P         3.8740    2.1050   -0.1580 o         1 3PD     -0.923833
     23 O1          5.9080    1.7410    1.3070 o         1 3PD     -0.923833
     24 H5'         2.4490    1.0190   -0.8110 ho        1 3PD      0.508000
     25 H5'1        1.1330   -1.4050   -0.0970 h1        1 3PD      0.003200
     26 H5'2        2.9480   -1.2440   -0.2390 h1        1 3PD      0.003200
     27 H4'         1.3790    0.7620    1.5150 h1        1 3PD      0.094700
     28 H1'         2.0240   -1.4830    4.2810 h2        1 3PD      0.068700
     29 H2'1        3.8440   -0.0350    4.0270 hc        1 3PD      0.066700
     30 H2'2        4.6810   -1.2520    2.9790 hc        1 3PD      0.066700
     31 H3'         4.2330   -0.0130    1.0680 h1        1 3PD      0.069700
     32 HN21        3.4820   -3.9450    7.8260 hn        1 3PD      0.385800
     33 HN22        4.6880   -5.0570    7.7100 hn        1 3PD      0.385800
     34 HN1         3.9000   -6.9580    6.0160 hn        1 3PD      0.322500
     35 H8          2.4110   -3.1740    0.8870 h5        1 3PD      0.090100
@<TRIPOS>BOND
     1    1    2 1   
     2    1   24 1   
     3    2    3 1   
     4    2   25 1   
     5    2   26 1   
     6    3    4 1   
     7    3    7 1   
     8    3   27 1   
     9    4    5 1   
    10    5    6 1   
    11    5    9 1   
    12    5   28 1   
    13    6    7 1   
    14    6   29 1   
    15    6   30 1   
    16    7    8 1   
    17    7   31 1   
    18    8   20 1   
    19    9   10 1   
    20    9   19 1   
    21   10   11 1   
    22   10   17 2   
    23   11   12 2   
    24   12   13 1   
    25   12   14 1   
    26   13   32 1   
    27   13   33 1   
    28   14   15 1   
    29   14   34 1   
    30   15   16 2   
    31   15   17 1   
    32   17   18 1   
    33   18   19 2   
    34   19   35 1   
    35   20   21 1   
    36   20   22 1   
    37   20   23 1   
@<TRIPOS>SUBSTRUCTURE
     1 3PD         1 TEMP              0 ****  ****    0 ROOT
