@<TRIPOS>MOLECULE
3PD
   35    32     1     0     0
SMALL
bcc


@<TRIPOS>ATOM
      1 O5'         0.5300   -3.1010   -2.0560 oh        1 3PD     -0.399000
      2 C5'         0.0360   -1.9480   -1.4060 c3        1 3PD      0.012000
      3 C4'         0.4930   -1.9480    0.0470 c3        1 3PD     -0.070000
      4 O4'         0.8780   -0.4550    0.5060 os        1 3PD     -0.296000
      5 C1'        -0.2520    0.1310    0.8210 c3        1 3PD      0.151000
      6 C2'        -1.1960   -1.0150    1.2550 c3        1 3PD     -0.233000
      7 C3'        -0.4810   -2.3320    0.8250 c3        1 3PD      0.124000
      8 O3'         0.0570   -3.0360    2.0160 os        1 3PD     -0.698000
      9 N9         -0.7900    0.8180   -0.3200 n3        1 3PD     -0.131000
     10 C4         -0.0570    1.9820   -0.4420 c1        1 3PD      0.016000
     11 N3          1.0620    2.4300    0.2050 n1        1 3PD     -0.188000
     12 C2          1.5840    3.6710   -0.0960 c1        1 3PD      0.148000
     13 N2          2.6100    4.1460    0.7410 n2        1 3PD     -0.305000
     14 N1          0.9890    4.4510   -1.0330 n3        1 3PD     -0.339000
     15 C6         -0.1250    4.0090   -1.6810 c1        1 3PD      0.393000
     16 O6         -0.5600    4.6330   -2.6350 o         1 3PD     -0.373000
     17 C5         -0.6530    2.7550   -1.3780 c1        1 3PD     -0.229000
     18 N7         -1.7630    2.0770   -1.8460 n1        1 3PD     -0.108000
     19 C8         -1.8390    0.8870   -1.1890 c1        1 3PD     -0.049000
     20 P          -0.4150   -4.5320    2.2880 p5        1 3PD      1.556500
     21 O1P         0.2360   -5.0490    3.5900 o         1 3PD     -0.922167
     22 O2P        -1.8900   -4.5680    2.4270 o         1 3PD     -0.922167
     23 O1          0.0100   -5.4280    1.1090 o         1 3PD     -0.922167
     24 H5'         0.6850   -2.9140   -2.9220 ho        1 3PD      0.305000
     25 H5'1        0.3870   -1.1260   -1.8710 h1        1 3PD      0.046000
     26 H5'2       -0.8960   -1.9490   -1.4380 h1        1 3PD      0.046000
     27 H4'         1.2560   -2.5370    0.1550 h1        1 3PD      0.124000
     28 H1'        -0.1180    0.7470    1.5490 h2        1 3PD      0.110000
     29 H2'1       -2.0810   -0.9310    0.7890 hc        1 3PD      0.108000
     30 H2'2       -1.3200   -0.9990    2.2160 hc        1 3PD      0.108000
     31 H3'        -1.1180   -2.9280    0.3240 h1        1 3PD      0.101000
     32 HN21        3.1410    4.8850    0.4680 hn        1 3PD      0.177500
     33 HN22        2.8070    3.7000    1.5320 hn        1 3PD      0.177500
     34 HN1         1.3440    5.2900   -1.2340 hn        1 3PD      0.235000
     35 H8         -2.5510    0.1850   -1.3150 DU        1 3PD      0.244000
@<TRIPOS>BOND
     1    1    2 1   
     2    1   24 1   
     3    2    3 1   
     4    2   25 1   
     5    2   26 1   
     6    3    4 1   
     7    3    7 1   
     8    3   27 1   
     9    4    5 1   
    10    5    6 1   
    11    5    9 1   
    12    5   28 1   
    13    6    7 1   
    14    6   29 1   
    15    6   30 1   
    16    7    8 1   
    17    7   31 1   
    18    8   20 1   
    19    9   10 1   
    20    9   19 1   
    21   10   17 1   
    22   11   12 1   
    23   12   14 1   
    24   13   32 1   
    25   13   33 1   
    26   14   15 1   
    27   14   34 1   
    28   15   16 1   
    29   18   19 1   
    30   20   21 1   
    31   20   22 1   
    32   20   23 1   
@<TRIPOS>SUBSTRUCTURE
     1 3PD         1 TEMP              0 ****  ****    0 ROOT
