@<TRIPOS>MOLECULE
3PD
   35    37     1     0     0
SMALL
bcc


@<TRIPOS>ATOM
      1 O5'         1.9950    2.6360   -3.9070 oh        1 3PD     -0.670800
      2 C5'         1.3690    2.7440   -2.6560 c3        1 3PD      0.157400
      3 C4'         2.0130    1.8260   -1.6170 c3        1 3PD      0.045100
      4 O4'         1.9450    2.4720   -0.3240 os        1 3PD     -0.443600
      5 C1'         1.1520    1.7180    0.5810 c3        1 3PD      0.249800
      6 C2'         0.8210    0.3620   -0.0600 c3        1 3PD     -0.146400
      7 C3'         1.3350    0.4270   -1.5210 c3        1 3PD      0.237100
      8 O3'         2.2230   -0.5740   -1.7720 os        1 3PD     -0.540200
      9 N9         -0.0220    2.5230    0.9550 na        1 3PD     -0.168900
     10 C4         -0.6690    2.5220    2.1880 cc        1 3PD      0.063800
     11 N3         -0.4100    1.7640    3.3210 nc        1 3PD     -0.614100
     12 C2         -1.2310    1.9950    4.3560 cd        1 3PD      0.600800
     13 N2         -1.0070    1.3100    5.6040 nh        1 3PD     -0.867800
     14 N1         -2.3080    2.9080    4.3410 n         1 3PD     -0.499400
     15 C6         -2.6030    3.7190    3.2160 c         1 3PD      0.647000
     16 O6         -3.5540    4.5150    3.3280 o         1 3PD     -0.650500
     17 C5         -1.7370    3.4950    2.0800 cd        1 3PD      0.186800
     18 N7         -1.7300    4.0720    0.8130 nd        1 3PD     -0.637000
     19 C8         -0.7020    3.4710    0.1690 cc        1 3PD      0.430400
     20 P           1.8490   -1.4240   -3.2680 p5        1 3PD      1.325900
     21 O1P         2.9740   -2.4010   -3.3970 o         1 3PD     -0.923833
     22 O2P         1.8560   -0.2220   -4.1840 o         1 3PD     -0.923833
     23 O1          0.4820   -1.9510   -2.9430 o         1 3PD     -0.923833
     24 H5'         2.0070    1.6790   -4.1560 ho        1 3PD      0.508000
     25 H5'1        1.4910    3.8200   -2.3490 h1        1 3PD      0.003200
     26 H5'2        0.2720    2.5190   -2.7510 h1        1 3PD      0.003200
     27 H4'         3.1100    1.7070   -1.8310 h1        1 3PD      0.094700
     28 H1'         1.7610    1.6130    1.5280 h2        1 3PD      0.068700
     29 H2'1       -0.2670    0.1220   -0.0440 hc        1 3PD      0.066700
     30 H2'2        1.3690   -0.4440    0.4860 hc        1 3PD      0.066700
     31 H3'         0.4600    0.3810   -2.2350 h1        1 3PD      0.069700
     32 HN21       -1.7710    0.6960    5.8070 hn        1 3PD      0.385800
     33 HN22       -0.1460    0.7970    5.5840 hn        1 3PD      0.385800
     34 HN1        -2.8440    3.0500    5.1660 hn        1 3PD      0.322500
     35 H8         -0.3820    3.6640   -0.8660 h5        1 3PD      0.090100
@<TRIPOS>BOND
     1    1    2 1   
     2    1   24 1   
     3    2    3 1   
     4    2   25 1   
     5    2   26 1   
     6    3    4 1   
     7    3    7 1   
     8    3   27 1   
     9    4    5 1   
    10    5    6 1   
    11    5    9 1   
    12    5   28 1   
    13    6    7 1   
    14    6   29 1   
    15    6   30 1   
    16    7    8 1   
    17    7   31 1   
    18    8   20 1   
    19    9   10 1   
    20    9   19 1   
    21   10   11 1   
    22   10   17 2   
    23   11   12 2   
    24   12   13 1   
    25   12   14 1   
    26   13   32 1   
    27   13   33 1   
    28   14   15 1   
    29   14   34 1   
    30   15   16 2   
    31   15   17 1   
    32   17   18 1   
    33   18   19 2   
    34   19   35 1   
    35   20   21 1   
    36   20   22 1   
    37   20   23 1   
@<TRIPOS>SUBSTRUCTURE
     1 3PD         1 TEMP              0 ****  ****    0 ROOT
