@<TRIPOS>MOLECULE
3PE
  133   132     1     0     0
SMALL
bcc


@<TRIPOS>ATOM
      1 P           0.2840   -1.0420   -1.1940 p5        1 3PE      1.449800
      2 N           2.7760   -2.0470   -3.2190 n4        1 3PE     -0.859600
      3 O11         1.7100   -0.2000   -1.2060 os        1 3PE     -0.605200
      4 O12         0.8400   -2.4270   -1.1870 o         1 3PE     -0.807000
      5 O13         0.0600   -0.7710   -2.8140 os        1 3PE     -0.558200
      6 O14        -0.7270   -0.4260   -0.3430 o         1 3PE     -0.807000
      7 C11         0.3090   -1.7960   -3.7110 c3        1 3PE      0.191400
      8 C12         1.7580   -1.7700   -4.2630 c3        1 3PE      0.072800
      9 C1          2.0660    0.4830   -0.0440 c3        1 3PE      0.167400
     10 C2          3.4150   -0.0510    0.4720 c3        1 3PE      0.114100
     11 C3          3.9050    0.7930    1.6470 c3        1 3PE      0.132400
     12 O31         5.3400    0.7420    1.5970 os        1 3PE     -0.447900
     13 O32         5.3530    1.8740    3.5220 o         1 3PE     -0.538000
     14 C31         6.0120    1.3230    2.6390 c         1 3PE      0.633100
     15 C32         7.4950    1.1660    2.5220 c3        1 3PE     -0.126400
     16 C33         8.2160    2.3850    3.0570 c3        1 3PE     -0.079400
     17 C34         9.7130    2.1620    3.0690 c3        1 3PE     -0.078400
     18 C35        10.4410    3.3840    3.5880 c3        1 3PE     -0.079400
     19 C36        11.9380    3.1610    3.6090 c3        1 3PE     -0.078400
     20 C37        12.6660    4.3810    4.1310 c3        1 3PE     -0.079400
     21 C38        14.1630    4.1580    4.1550 c3        1 3PE     -0.078400
     22 C39        14.8920    5.3770    4.6790 c3        1 3PE     -0.079400
     23 C3A        16.3890    5.1530    4.7060 c3        1 3PE     -0.078400
     24 C3B        17.1170    6.3700    5.2330 c3        1 3PE     -0.079400
     25 C3C        18.6140    6.1450    5.2610 c3        1 3PE     -0.079400
     26 C3D        19.3430    7.3620    5.7890 c3        1 3PE     -0.079400
     27 C3E        20.8390    7.1360    5.8190 c3        1 3PE     -0.078400
     28 C3F        21.5680    8.3530    6.3480 c3        1 3PE     -0.079400
     29 C3G        23.0650    8.1270    6.3770 c3        1 3PE     -0.079400
     30 C3H        23.7950    9.3440    6.9050 c3        1 3PE     -0.080400
     31 C3I        25.2860    9.1230    6.9360 c3        1 3PE     -0.092100
     32 O21         3.2170   -1.3780    0.9950 os        1 3PE     -0.430900
     33 O22         4.1080   -2.2760   -0.8590 o         1 3PE     -0.638000
     34 C21         3.5030   -2.4520    0.2090 c         1 3PE      0.695100
     35 C22         2.9820   -3.7330    0.7790 c3        1 3PE     -0.146400
     36 C23         3.9410   -4.8790    0.5460 c3        1 3PE     -0.071400
     37 C24         3.3230   -6.1900    0.9850 c3        1 3PE     -0.080400
     38 C25         4.2800   -7.3430    0.7710 c3        1 3PE     -0.078400
     39 C26         3.6640   -8.6540    1.2090 c3        1 3PE     -0.079400
     40 C27         4.6220   -9.8080    0.9990 c3        1 3PE     -0.078400
     41 C28         4.0060  -11.1190    1.4380 c3        1 3PE     -0.079400
     42 C29         4.9650  -12.2720    1.2300 c3        1 3PE     -0.078400
     43 C2A         4.3500  -13.5840    1.6710 c3        1 3PE     -0.079400
     44 C2B         5.3080  -14.7370    1.4640 c3        1 3PE     -0.078400
     45 C2C         4.6930  -16.0480    1.9060 c3        1 3PE     -0.079400
     46 C2D         5.6520  -17.2010    1.6990 c3        1 3PE     -0.078400
     47 C2E         5.0370  -18.5120    2.1410 c3        1 3PE     -0.079400
     48 C2F         5.9950  -19.6660    1.9340 c3        1 3PE     -0.079400
     49 C2G         5.3800  -20.9760    2.3760 c3        1 3PE     -0.079400
     50 C2H         6.3370  -22.1310    2.1700 c3        1 3PE     -0.080400
     51 C2I         5.7290  -23.4380    2.6080 c3        1 3PE     -0.092100
     52 HN1         2.2880   -2.3840   -2.3310 hn        1 3PE      0.470800
     53 HN2         3.2690   -1.1910   -2.9430 hn        1 3PE      0.470800
     54 HN3         3.4530   -2.7420   -3.5130 hn        1 3PE      0.470800
     55 H111       -0.3640   -1.6330   -4.6000 h1        1 3PE      0.063700
     56 H112        0.0970   -2.7970   -3.2410 h1        1 3PE      0.063700
     57 H121        1.9610   -0.7530   -4.6990 hx        1 3PE      0.082700
     58 H122        1.8450   -2.5480   -5.0680 hx        1 3PE      0.082700
     59 H11         2.2000    1.5730   -0.2950 h1        1 3PE      0.056700
     60 H12         1.2670    0.3690    0.7390 h1        1 3PE      0.056700
     61 H2          4.1740   -0.0700   -0.3570 h1        1 3PE      0.090700
     62 H31         3.5490    0.3820    2.6270 h1        1 3PE      0.072200
     63 H32         3.5810    1.8610    1.5420 h1        1 3PE      0.072200
     64 H321        7.7720    0.9810    1.4510 hc        1 3PE      0.077700
     65 H322        7.7820    0.2530    3.1120 hc        1 3PE      0.077700
     66 H331        7.9710    3.2760    2.4200 hc        1 3PE      0.058200
     67 H332        7.8510    2.6100    4.0940 hc        1 3PE      0.058200
     68 H341       10.0680    1.9240    2.0320 hc        1 3PE      0.040700
     69 H342        9.9570    1.2770    3.7140 hc        1 3PE      0.040700
     70 H351       10.0810    3.6230    4.6240 hc        1 3PE      0.043200
     71 H352       10.2000    4.2680    2.9420 hc        1 3PE      0.043200
     72 H361       12.1780    2.2750    4.2550 hc        1 3PE      0.039200
     73 H362       12.2980    2.9230    2.5740 hc        1 3PE      0.039200
     74 H371       12.4280    5.2670    3.4850 hc        1 3PE      0.041200
     75 H372       12.3050    4.6210    5.1660 hc        1 3PE      0.041200
     76 H381       14.4010    3.2710    4.8000 hc        1 3PE      0.039200
     77 H382       14.5250    3.9200    3.1200 hc        1 3PE      0.039200
     78 H391       14.6560    6.2630    4.0330 hc        1 3PE      0.040200
     79 H392       14.5290    5.6160    5.7140 hc        1 3PE      0.040200
     80 H3A1       16.6250    4.2650    5.3510 hc        1 3PE      0.039200
     81 H3A2       16.7520    4.9150    3.6710 hc        1 3PE      0.039200
     82 H3B1       16.7530    6.6090    6.2670 hc        1 3PE      0.039700
     83 H3B2       16.8830    7.2570    4.5870 hc        1 3PE      0.039700
     84 H3C1       18.8480    5.2570    5.9060 hc        1 3PE      0.039700
     85 H3C2       18.9790    5.9070    4.2270 hc        1 3PE      0.039700
     86 H3D1       19.1090    8.2500    5.1440 hc        1 3PE      0.039700
     87 H3D2       18.9780    7.6000    6.8230 hc        1 3PE      0.039700
     88 H3E1       21.0730    6.2480    6.4640 hc        1 3PE      0.039700
     89 H3E2       21.2040    6.8990    4.7850 hc        1 3PE      0.039700
     90 H3F1       21.3340    9.2410    5.7030 hc        1 3PE      0.039700
     91 H3F2       21.2030    8.5900    7.3810 hc        1 3PE      0.039700
     92 H3G1       23.4300    7.8900    5.3430 hc        1 3PE      0.039700
     93 H3G2       23.2990    7.2400    7.0210 hc        1 3PE      0.039700
     94 H3H1       23.4280    9.5800    7.9390 hc        1 3PE      0.038700
     95 H3H2       23.5580   10.2310    6.2610 hc        1 3PE      0.038700
     96 H3I1       25.8040   10.0310    7.3280 hc        1 3PE      0.032700
     97 H3I2       25.6740    8.9110    5.9100 hc        1 3PE      0.032700
     98 H3I3       25.5430    8.2580    7.5930 hc        1 3PE      0.032700
     99 H221        2.7740   -3.6070    1.8740 hc        1 3PE      0.107200
    100 H222        1.9950   -3.9140    0.2580 hc        1 3PE      0.107200
    101 H231        4.2100   -4.9290   -0.5420 hc        1 3PE      0.045700
    102 H232        4.8910   -4.7000    1.1150 hc        1 3PE      0.045700
    103 H241        3.0420   -6.1290    2.0690 hc        1 3PE      0.045700
    104 H242        2.3770   -6.3720    0.4080 hc        1 3PE      0.045700
    105 H251        5.2250   -7.1600    1.3490 hc        1 3PE      0.038700
    106 H252        4.5620   -7.4020   -0.3130 hc        1 3PE      0.038700
    107 H261        3.3810   -8.5940    2.2930 hc        1 3PE      0.041200
    108 H262        2.7200   -8.8380    0.6310 hc        1 3PE      0.041200
    109 H271        5.5660   -9.6230    1.5760 hc        1 3PE      0.038700
    110 H272        4.9040   -9.8700   -0.0850 hc        1 3PE      0.038700
    111 H281        3.0630  -11.3050    0.8600 hc        1 3PE      0.040200
    112 H282        3.7230  -11.0570    2.5220 hc        1 3PE      0.040200
    113 H291        5.9080  -12.0860    1.8080 hc        1 3PE      0.039200
    114 H292        5.2480  -12.3360    0.1460 hc        1 3PE      0.039200
    115 H2A1        3.4060  -13.7700    1.0930 hc        1 3PE      0.040200
    116 H2A2        4.0660  -13.5200    2.7550 hc        1 3PE      0.040200
    117 H2B1        5.5920  -14.8000    0.3810 hc        1 3PE      0.039200
    118 H2B2        6.2510  -14.5500    2.0420 hc        1 3PE      0.039200
    119 H2C1        3.7500  -16.2340    1.3270 hc        1 3PE      0.039700
    120 H2C2        4.4090  -15.9840    2.9890 hc        1 3PE      0.039700
    121 H2D1        6.5950  -17.0150    2.2770 hc        1 3PE      0.039200
    122 H2D2        5.9360  -17.2650    0.6160 hc        1 3PE      0.039200
    123 H2E1        4.7530  -18.4480    3.2240 hc        1 3PE      0.039700
    124 H2E2        4.0930  -18.6980    1.5630 hc        1 3PE      0.039700
    125 H2F1        6.2790  -19.7290    0.8510 hc        1 3PE      0.039200
    126 H2F2        6.9380  -19.4790    2.5120 hc        1 3PE      0.039200
    127 H2G1        5.0960  -20.9130    3.4590 hc        1 3PE      0.039700
    128 H2G2        4.4370  -21.1630    1.7980 hc        1 3PE      0.039700
    129 H2H1        6.6210  -22.1920    1.0860 hc        1 3PE      0.038200
    130 H2H2        7.2800  -21.9420    2.7470 hc        1 3PE      0.038200
    131 H2I1        5.4620  -23.4050    3.6920 hc        1 3PE      0.032700
    132 H2I2        4.8010  -23.6560    2.0260 hc        1 3PE      0.032700
    133 H2I3        6.4500  -24.2760    2.4480 hc        1 3PE      0.032700
@<TRIPOS>BOND
     1    1    3 1   
     2    1    4 1   
     3    1    5 1   
     4    1    6 1   
     5    2    8 1   
     6    2   52 1   
     7    2   53 1   
     8    2   54 1   
     9    3    9 1   
    10    5    7 1   
    11    7    8 1   
    12    7   55 1   
    13    7   56 1   
    14    8   57 1   
    15    8   58 1   
    16    9   10 1   
    17    9   59 1   
    18    9   60 1   
    19   10   11 1   
    20   10   32 1   
    21   10   61 1   
    22   11   12 1   
    23   11   62 1   
    24   11   63 1   
    25   12   14 1   
    26   13   14 2   
    27   14   15 1   
    28   15   16 1   
    29   15   64 1   
    30   15   65 1   
    31   16   17 1   
    32   16   66 1   
    33   16   67 1   
    34   17   18 1   
    35   17   68 1   
    36   17   69 1   
    37   18   19 1   
    38   18   70 1   
    39   18   71 1   
    40   19   20 1   
    41   19   72 1   
    42   19   73 1   
    43   20   21 1   
    44   20   74 1   
    45   20   75 1   
    46   21   22 1   
    47   21   76 1   
    48   21   77 1   
    49   22   23 1   
    50   22   78 1   
    51   22   79 1   
    52   23   24 1   
    53   23   80 1   
    54   23   81 1   
    55   24   25 1   
    56   24   82 1   
    57   24   83 1   
    58   25   26 1   
    59   25   84 1   
    60   25   85 1   
    61   26   27 1   
    62   26   86 1   
    63   26   87 1   
    64   27   28 1   
    65   27   88 1   
    66   27   89 1   
    67   28   29 1   
    68   28   90 1   
    69   28   91 1   
    70   29   30 1   
    71   29   92 1   
    72   29   93 1   
    73   30   31 1   
    74   30   94 1   
    75   30   95 1   
    76   31   96 1   
    77   31   97 1   
    78   31   98 1   
    79   32   34 1   
    80   33   34 2   
    81   34   35 1   
    82   35   36 1   
    83   35   99 1   
    84   35  100 1   
    85   36   37 1   
    86   36  101 1   
    87   36  102 1   
    88   37   38 1   
    89   37  103 1   
    90   37  104 1   
    91   38   39 1   
    92   38  105 1   
    93   38  106 1   
    94   39   40 1   
    95   39  107 1   
    96   39  108 1   
    97   40   41 1   
    98   40  109 1   
    99   40  110 1   
   100   41   42 1   
   101   41  111 1   
   102   41  112 1   
   103   42   43 1   
   104   42  113 1   
   105   42  114 1   
   106   43   44 1   
   107   43  115 1   
   108   43  116 1   
   109   44   45 1   
   110   44  117 1   
   111   44  118 1   
   112   45   46 1   
   113   45  119 1   
   114   45  120 1   
   115   46   47 1   
   116   46  121 1   
   117   46  122 1   
   118   47   48 1   
   119   47  123 1   
   120   47  124 1   
   121   48   49 1   
   122   48  125 1   
   123   48  126 1   
   124   49   50 1   
   125   49  127 1   
   126   49  128 1   
   127   50   51 1   
   128   50  129 1   
   129   50  130 1   
   130   51  131 1   
   131   51  132 1   
   132   51  133 1   
@<TRIPOS>SUBSTRUCTURE
     1 3PE         1 TEMP              0 ****  ****    0 ROOT
