@<TRIPOS>MOLECULE
3PE
  133   132     1     0     0
SMALL
bcc


@<TRIPOS>ATOM
      1 P           0.3190   -1.0540   -1.1960 p5        1 3PE      1.449800
      2 N           2.8260   -2.0560   -3.2020 nz        1 3PE     -0.859600
      3 O11         1.7460   -0.2130   -1.1930 os        1 3PE     -0.605200
      4 O12         0.8720   -2.4390   -1.1880 o         1 3PE     -0.807000
      5 O13         0.1090   -0.7770   -2.8170 os        1 3PE     -0.558200
      6 O14        -0.6980   -0.4390   -0.3520 o         1 3PE     -0.807000
      7 C11         0.3640   -1.8000   -3.7150 c3        1 3PE      0.191400
      8 C12         1.8180   -1.7740   -4.2540 c3        1 3PE      0.072800
      9 C1          2.0930    0.4660   -0.0270 c3        1 3PE      0.167400
     10 C2          3.4360   -0.0710    0.4990 c3        1 3PE      0.114100
     11 C3          3.9170    0.7690    1.6810 c3        1 3PE      0.132400
     12 O31         5.3520    0.7160    1.6430 os        1 3PE     -0.447900
     13 O32         5.3510    1.8580    3.5620 o         1 3PE     -0.538000
     14 C31         6.0160    1.3020    2.6880 c         1 3PE      0.633100
     15 C32         7.5010    1.1420    2.5850 c3        1 3PE     -0.126400
     16 C33         8.2170    2.3730    3.0990 c3        1 3PE     -0.079400
     17 C34         9.7140    2.1500    3.1270 c3        1 3PE     -0.078400
     18 C35        10.4390    3.3820    3.6240 c3        1 3PE     -0.079400
     19 C36        11.9360    3.1610    3.6600 c3        1 3PE     -0.078400
     20 C37        12.6610    4.3930    4.1580 c3        1 3PE     -0.079400
     21 C38        14.1580    4.1710    4.1950 c3        1 3PE     -0.078400
     22 C39        14.8830    5.4020    4.6940 c3        1 3PE     -0.079400
     23 C3A        16.3800    5.1800    4.7320 c3        1 3PE     -0.078400
     24 C3B        17.1050    6.4110    5.2320 c3        1 3PE     -0.079400
     25 C3C        18.6020    6.1890    5.2710 c3        1 3PE     -0.078400
     26 C3D        19.3280    7.4190    5.7720 c3        1 3PE     -0.079400
     27 C3E        20.8240    7.1970    5.8110 c3        1 3PE     -0.078400
     28 C3F        21.5500    8.4270    6.3120 c3        1 3PE     -0.079400
     29 C3G        23.0460    8.2050    6.3520 c3        1 3PE     -0.079400
     30 C3H        23.7730    9.4340    6.8540 c3        1 3PE     -0.080400
     31 C3I        25.2640    9.2180    6.8940 c3        1 3PE     -0.092100
     32 O21         3.2320   -1.3990    1.0180 os        1 3PE     -0.430900
     33 O22         4.1380   -2.2930   -0.8320 o         1 3PE     -0.638000
     34 C21         3.5230   -2.4710    0.2300 c         1 3PE      0.694100
     35 C22         2.9950   -3.7530    0.7920 c3        1 3PE     -0.146400
     36 C23         3.9540   -4.9000    0.5640 c3        1 3PE     -0.071400
     37 C24         3.3300   -6.2120    0.9910 c3        1 3PE     -0.080400
     38 C25         4.2870   -7.3650    0.7810 c3        1 3PE     -0.078400
     39 C26         3.6650   -8.6780    1.2050 c3        1 3PE     -0.079400
     40 C27         4.6220   -9.8320    0.9990 c3        1 3PE     -0.078400
     41 C28         4.0000  -11.1450    1.4240 c3        1 3PE     -0.079400
     42 C29         4.9590  -12.2980    1.2200 c3        1 3PE     -0.078400
     43 C2A         4.3380  -13.6110    1.6470 c3        1 3PE     -0.079400
     44 C2B         5.2970  -14.7640    1.4440 c3        1 3PE     -0.078400
     45 C2C         4.6760  -16.0770    1.8710 c3        1 3PE     -0.079400
     46 C2D         5.6350  -17.2300    1.6700 c3        1 3PE     -0.078400
     47 C2E         5.0150  -18.5430    2.0980 c3        1 3PE     -0.079400
     48 C2F         5.9750  -19.6960    1.8970 c3        1 3PE     -0.079400
     49 C2G         5.3550  -21.0080    2.3260 c3        1 3PE     -0.079400
     50 C2H         6.3140  -22.1620    2.1260 c3        1 3PE     -0.080400
     51 C2I         5.7000  -23.4710    2.5510 c3        1 3PE     -0.092100
     52 HN1         3.5050   -2.7510   -3.4920 hn        1 3PE      0.470800
     53 HN2         3.3180   -1.2020   -2.9190 hn        1 3PE      0.470800
     54 HN3         2.3300   -2.3950   -2.3200 hn        1 3PE      0.470800
     55 H111        0.1460   -2.8020   -3.2500 h1        1 3PE      0.063700
     56 H112       -0.3010   -1.6330   -4.6090 h1        1 3PE      0.063700
     57 H121        2.0260   -0.7560   -4.6850 hx        1 3PE      0.082700
     58 H122        1.9100   -2.5500   -5.0610 hx        1 3PE      0.082700
     59 H11         1.2860    0.3510    0.7500 h1        1 3PE      0.056700
     60 H12         2.2300    1.5570   -0.2730 h1        1 3PE      0.056700
     61 H2          4.2020   -0.0890   -0.3230 h1        1 3PE      0.090700
     62 H31         3.5530    0.3560    2.6570 h1        1 3PE      0.072200
     63 H32         3.5950    1.8380    1.5760 h1        1 3PE      0.072200
     64 H321        7.7850    0.9350    1.5200 hc        1 3PE      0.077700
     65 H322        7.7820    0.2420    3.1960 hc        1 3PE      0.077700
     66 H331        7.8450    2.6180    4.1300 hc        1 3PE      0.058200
     67 H332        7.9770    3.2500    2.4430 hc        1 3PE      0.058200
     68 H341        9.9540    1.2790    3.7940 hc        1 3PE      0.040700
     69 H342       10.0770    1.8890    2.0980 hc        1 3PE      0.040700
     70 H351       10.0720    3.6450    4.6520 hc        1 3PE      0.043200
     71 H352       10.2030    4.2520    2.9560 hc        1 3PE      0.043200
     72 H361       12.3020    2.8980    2.6320 hc        1 3PE      0.039200
     73 H362       12.1710    2.2900    4.3270 hc        1 3PE      0.039200
     74 H371       12.4260    5.2630    3.4900 hc        1 3PE      0.040700
     75 H372       12.2940    4.6560    5.1850 hc        1 3PE      0.040700
     76 H381       14.5250    3.9090    3.1680 hc        1 3PE      0.039200
     77 H382       14.3930    3.3000    4.8620 hc        1 3PE      0.039200
     78 H391       14.5160    5.6650    5.7210 hc        1 3PE      0.040200
     79 H392       14.6490    6.2730    4.0270 hc        1 3PE      0.040200
     80 H3A1       16.6140    4.3090    5.3990 hc        1 3PE      0.039200
     81 H3A2       16.7480    4.9180    3.7050 hc        1 3PE      0.039200
     82 H3B1       16.7370    6.6730    6.2590 hc        1 3PE      0.039700
     83 H3B2       16.8720    7.2820    4.5650 hc        1 3PE      0.039700
     84 H3C1       18.9700    5.9270    4.2440 hc        1 3PE      0.039700
     85 H3C2       18.8360    5.3170    5.9370 hc        1 3PE      0.039700
     86 H3D1       19.0940    8.2910    5.1050 hc        1 3PE      0.039700
     87 H3D2       18.9590    7.6810    6.7990 hc        1 3PE      0.039700
     88 H3E1       21.0580    6.3250    6.4770 hc        1 3PE      0.039700
     89 H3E2       21.1930    6.9360    4.7840 hc        1 3PE      0.039700
     90 H3F1       21.3160    9.2990    5.6460 hc        1 3PE      0.039700
     91 H3F2       21.1810    8.6880    7.3400 hc        1 3PE      0.039700
     92 H3G1       23.2800    7.3330    7.0180 hc        1 3PE      0.039700
     93 H3G2       23.4150    7.9440    5.3250 hc        1 3PE      0.039700
     94 H3H1       23.5370   10.3060    6.1870 hc        1 3PE      0.038700
     95 H3H2       23.4020    9.6950    7.8800 hc        1 3PE      0.038700
     96 H3I1       25.5200    8.3690    7.5730 hc        1 3PE      0.032700
     97 H3I2       25.6560    8.9810    5.8760 hc        1 3PE      0.032700
     98 H3I3       25.7800   10.1360    7.2670 hc        1 3PE      0.032700
     99 H221        2.0120   -3.9310    0.2630 hc        1 3PE      0.107200
    100 H222        2.7790   -3.6300    1.8860 hc        1 3PE      0.107200
    101 H231        4.2350   -4.9450   -0.5210 hc        1 3PE      0.045700
    102 H232        4.9000   -4.7250    1.1430 hc        1 3PE      0.045700
    103 H241        2.3900   -6.3890    0.4040 hc        1 3PE      0.045700
    104 H242        3.0390   -6.1550    2.0730 hc        1 3PE      0.045700
    105 H251        4.5810   -7.4200   -0.3000 hc        1 3PE      0.038700
    106 H252        5.2260   -7.1870    1.3690 hc        1 3PE      0.038700
    107 H261        3.3700   -8.6230    2.2870 hc        1 3PE      0.041200
    108 H262        2.7270   -8.8570    0.6160 hc        1 3PE      0.041200
    109 H271        4.9170   -9.8880   -0.0820 hc        1 3PE      0.038700
    110 H272        5.5600   -9.6520    1.5870 hc        1 3PE      0.038700
    111 H281        3.7050  -11.0880    2.5050 hc        1 3PE      0.040200
    112 H282        3.0630  -11.3250    0.8350 hc        1 3PE      0.040200
    113 H291        5.2540  -12.3550    0.1390 hc        1 3PE      0.039200
    114 H292        5.8960  -12.1170    1.8090 hc        1 3PE      0.039200
    115 H2A1        3.4010  -13.7930    1.0570 hc        1 3PE      0.040200
    116 H2A2        4.0420  -13.5530    2.7270 hc        1 3PE      0.040200
    117 H2B1        6.2340  -14.5820    2.0330 hc        1 3PE      0.039200
    118 H2B2        5.5920  -14.8220    0.3630 hc        1 3PE      0.039200
    119 H2C1        4.3800  -16.0180    2.9520 hc        1 3PE      0.039700
    120 H2C2        3.7390  -16.2600    1.2820 hc        1 3PE      0.039700
    121 H2D1        5.9310  -17.2890    0.5890 hc        1 3PE      0.039200
    122 H2D2        6.5720  -17.0470    2.2590 hc        1 3PE      0.039200
    123 H2E1        4.0780  -18.7260    1.5090 hc        1 3PE      0.039700
    124 H2E2        4.7190  -18.4840    3.1790 hc        1 3PE      0.039700
    125 H2F1        6.9120  -19.5120    2.4870 hc        1 3PE      0.039200
    126 H2F2        6.2710  -19.7550    0.8170 hc        1 3PE      0.039200
    127 H2G1        4.4180  -21.1920    1.7370 hc        1 3PE      0.039700
    128 H2G2        5.0590  -20.9490    3.4070 hc        1 3PE      0.039700
    129 H2H1        7.2500  -21.9760    2.7150 hc        1 3PE      0.038200
    130 H2H2        6.6100  -22.2190    1.0450 hc        1 3PE      0.038200
    131 H2I1        5.4210  -23.4430    3.6320 hc        1 3PE      0.032700
    132 H2I2        6.4230  -24.3080    2.3950 hc        1 3PE      0.032700
    133 H2I3        4.7790  -23.6860    1.9580 hc        1 3PE      0.032700
@<TRIPOS>BOND
     1    1    3 1   
     2    1    4 1   
     3    1    5 1   
     4    1    6 1   
     5    2    8 1   
     6    2   52 1   
     7    2   53 1   
     8    2   54 1   
     9    3    9 1   
    10    5    7 1   
    11    7    8 1   
    12    7   55 1   
    13    7   56 1   
    14    8   57 1   
    15    8   58 1   
    16    9   10 1   
    17    9   59 1   
    18    9   60 1   
    19   10   11 1   
    20   10   32 1   
    21   10   61 1   
    22   11   12 1   
    23   11   62 1   
    24   11   63 1   
    25   12   14 1   
    26   13   14 2   
    27   14   15 1   
    28   15   16 1   
    29   15   64 1   
    30   15   65 1   
    31   16   17 1   
    32   16   66 1   
    33   16   67 1   
    34   17   18 1   
    35   17   68 1   
    36   17   69 1   
    37   18   19 1   
    38   18   70 1   
    39   18   71 1   
    40   19   20 1   
    41   19   72 1   
    42   19   73 1   
    43   20   21 1   
    44   20   74 1   
    45   20   75 1   
    46   21   22 1   
    47   21   76 1   
    48   21   77 1   
    49   22   23 1   
    50   22   78 1   
    51   22   79 1   
    52   23   24 1   
    53   23   80 1   
    54   23   81 1   
    55   24   25 1   
    56   24   82 1   
    57   24   83 1   
    58   25   26 1   
    59   25   84 1   
    60   25   85 1   
    61   26   27 1   
    62   26   86 1   
    63   26   87 1   
    64   27   28 1   
    65   27   88 1   
    66   27   89 1   
    67   28   29 1   
    68   28   90 1   
    69   28   91 1   
    70   29   30 1   
    71   29   92 1   
    72   29   93 1   
    73   30   31 1   
    74   30   94 1   
    75   30   95 1   
    76   31   96 1   
    77   31   97 1   
    78   31   98 1   
    79   32   34 1   
    80   33   34 2   
    81   34   35 1   
    82   35   36 1   
    83   35   99 1   
    84   35  100 1   
    85   36   37 1   
    86   36  101 1   
    87   36  102 1   
    88   37   38 1   
    89   37  103 1   
    90   37  104 1   
    91   38   39 1   
    92   38  105 1   
    93   38  106 1   
    94   39   40 1   
    95   39  107 1   
    96   39  108 1   
    97   40   41 1   
    98   40  109 1   
    99   40  110 1   
   100   41   42 1   
   101   41  111 1   
   102   41  112 1   
   103   42   43 1   
   104   42  113 1   
   105   42  114 1   
   106   43   44 1   
   107   43  115 1   
   108   43  116 1   
   109   44   45 1   
   110   44  117 1   
   111   44  118 1   
   112   45   46 1   
   113   45  119 1   
   114   45  120 1   
   115   46   47 1   
   116   46  121 1   
   117   46  122 1   
   118   47   48 1   
   119   47  123 1   
   120   47  124 1   
   121   48   49 1   
   122   48  125 1   
   123   48  126 1   
   124   49   50 1   
   125   49  127 1   
   126   49  128 1   
   127   50   51 1   
   128   50  129 1   
   129   50  130 1   
   130   51  131 1   
   131   51  132 1   
   132   51  133 1   
@<TRIPOS>SUBSTRUCTURE
     1 3PE         1 TEMP              0 ****  ****    0 ROOT
