@<TRIPOS>MOLECULE
3PE
  133   132     1     0     0
SMALL
bcc


@<TRIPOS>ATOM
      1 P           0.4110   -1.0670   -1.2290 p5        1 3PE      1.449800
      2 N           2.9410   -2.0840   -3.1970 n4        1 3PE     -0.859600
      3 O11         1.8430   -0.2360   -1.2040 os        1 3PE     -0.605200
      4 O12         0.9540   -2.4550   -1.2140 o         1 3PE     -0.807000
      5 O13         0.2270   -0.7880   -2.8530 os        1 3PE     -0.558200
      6 O14        -0.6150   -0.4450   -0.4000 o         1 3PE     -0.807000
      7 C11         0.4890   -1.8110   -3.7470 c3        1 3PE      0.191400
      8 C12         1.9510   -1.7950   -4.2640 c3        1 3PE      0.072800
      9 C1          2.1760    0.4410   -0.0320 c3        1 3PE      0.167400
     10 C2          3.5090   -0.1040    0.5140 c3        1 3PE      0.114100
     11 C3          3.9760    0.7330    1.7040 c3        1 3PE      0.132400
     12 O31         5.4110    0.6810    1.6810 os        1 3PE     -0.447900
     13 O32         5.3890    1.8270    3.5980 o         1 3PE     -0.538000
     14 C31         6.0640    1.2700    2.7310 c         1 3PE      0.633100
     15 C32         7.5500    1.1140    2.6430 c3        1 3PE     -0.126400
     16 C33         8.2570    2.3570    3.1400 c3        1 3PE     -0.079400
     17 C34         9.7550    2.1410    3.1830 c3        1 3PE     -0.078400
     18 C35        10.4700    3.3870    3.6620 c3        1 3PE     -0.079400
     19 C36        11.9680    3.1740    3.7120 c3        1 3PE     -0.078400
     20 C37        12.6830    4.4190    4.1900 c3        1 3PE     -0.079400
     21 C38        14.1810    4.2070    4.2400 c3        1 3PE     -0.078400
     22 C39        14.8970    5.4510    4.7190 c3        1 3PE     -0.079400
     23 C3A        16.3940    5.2390    4.7690 c3        1 3PE     -0.078400
     24 C3B        17.1100    6.4840    5.2480 c3        1 3PE     -0.079400
     25 C3C        18.6080    6.2720    5.2980 c3        1 3PE     -0.078400
     26 C3D        19.3230    7.5160    5.7770 c3        1 3PE     -0.079400
     27 C3E        20.8210    7.3040    5.8280 c3        1 3PE     -0.078400
     28 C3F        21.5370    8.5490    6.3070 c3        1 3PE     -0.079400
     29 C3G        23.0350    8.3370    6.3570 c3        1 3PE     -0.079400
     30 C3H        23.7520    9.5810    6.8360 c3        1 3PE     -0.080400
     31 C3I        25.2440    9.3750    6.8880 c3        1 3PE     -0.092100
     32 O21         3.2890   -1.4310    1.0280 os        1 3PE     -0.430900
     33 O22         4.2160   -2.3300   -0.8080 o         1 3PE     -0.638000
     34 C21         3.5850   -2.5050    0.2450 c         1 3PE      0.694100
     35 C22         3.0400   -3.7830    0.7970 c3        1 3PE     -0.146400
     36 C23         3.9930   -4.9370    0.5800 c3        1 3PE     -0.071400
     37 C24         3.3520   -6.2450    0.9930 c3        1 3PE     -0.080400
     38 C25         4.3020   -7.4060    0.7930 c3        1 3PE     -0.078400
     39 C26         3.6610   -8.7150    1.2020 c3        1 3PE     -0.079400
     40 C27         4.6110   -9.8770    1.0030 c3        1 3PE     -0.078400
     41 C28         3.9700  -11.1860    1.4120 c3        1 3PE     -0.079400
     42 C29         4.9200  -12.3480    1.2140 c3        1 3PE     -0.078400
     43 C2A         4.2790  -13.6570    1.6230 c3        1 3PE     -0.079400
     44 C2B         5.2290  -14.8190    1.4250 c3        1 3PE     -0.078400
     45 C2C         4.5880  -16.1280    1.8350 c3        1 3PE     -0.079400
     46 C2D         5.5370  -17.2900    1.6380 c3        1 3PE     -0.078400
     47 C2E         4.8970  -18.5980    2.0480 c3        1 3PE     -0.079400
     48 C2F         5.8470  -19.7610    1.8510 c3        1 3PE     -0.079400
     49 C2G         5.2060  -21.0690    2.2610 c3        1 3PE     -0.079400
     50 C2H         6.1550  -22.2330    2.0640 c3        1 3PE     -0.080400
     51 C2I         5.5220  -23.5380    2.4720 c3        1 3PE     -0.092100
     52 HN1         3.4350   -1.2340   -2.9060 hn        1 3PE      0.470800
     53 HN2         2.4300   -2.4210   -2.3230 hn        1 3PE      0.470800
     54 HN3         3.6200   -2.7840   -3.4770 hn        1 3PE      0.470800
     55 H111        0.2580   -2.8120   -3.2860 h1        1 3PE      0.063700
     56 H112       -0.1620   -1.6400   -4.6510 h1        1 3PE      0.063700
     57 H121        2.0500   -2.5710   -5.0700 hx        1 3PE      0.082700
     58 H122        2.1730   -0.7780   -4.6910 hx        1 3PE      0.082700
     59 H11         2.3240    1.5310   -0.2770 h1        1 3PE      0.056700
     60 H12         1.3570    0.3320    0.7320 h1        1 3PE      0.056700
     61 H2          4.2870   -0.1260   -0.2960 h1        1 3PE      0.090700
     62 H31         3.6550    1.8010    1.5990 h1        1 3PE      0.072200
     63 H32         3.6020    0.3160    2.6750 h1        1 3PE      0.072200
     64 H321        7.8440    0.8890    1.5840 hc        1 3PE      0.077700
     65 H322        7.8300    0.2270    3.2730 hc        1 3PE      0.077700
     66 H331        8.0180    3.2210    2.4670 hc        1 3PE      0.058200
     67 H332        7.8760    2.6190    4.1630 hc        1 3PE      0.058200
     68 H341        9.9930    1.2850    3.8680 hc        1 3PE      0.040700
     69 H342       10.1260    1.8630    2.1620 hc        1 3PE      0.040700
     70 H351       10.0950    3.6670    4.6820 hc        1 3PE      0.043200
     71 H352       10.2340    4.2430    2.9770 hc        1 3PE      0.043200
     72 H361       12.2030    2.3180    4.3980 hc        1 3PE      0.039200
     73 H362       12.3420    2.8930    2.6920 hc        1 3PE      0.039200
     74 H371       12.4470    5.2750    3.5040 hc        1 3PE      0.040700
     75 H372       12.3090    4.7000    5.2100 hc        1 3PE      0.040700
     76 H381       14.5560    3.9260    3.2200 hc        1 3PE      0.039200
     77 H382       14.4170    3.3500    4.9260 hc        1 3PE      0.039200
     78 H391       14.6610    6.3080    4.0330 hc        1 3PE      0.040200
     79 H392       14.5220    5.7320    5.7380 hc        1 3PE      0.040200
     80 H3A1       16.7690    4.9590    3.7490 hc        1 3PE      0.039200
     81 H3A2       16.6300    4.3830    5.4540 hc        1 3PE      0.039200
     82 H3B1       16.8740    7.3400    4.5630 hc        1 3PE      0.039700
     83 H3B2       16.7350    6.7640    6.2680 hc        1 3PE      0.039700
     84 H3C1       18.9830    5.9920    4.2780 hc        1 3PE      0.039700
     85 H3C2       18.8440    5.4150    5.9830 hc        1 3PE      0.039700
     86 H3D1       18.9490    7.7970    6.7970 hc        1 3PE      0.039700
     87 H3D2       19.0880    8.3730    5.0920 hc        1 3PE      0.039700
     88 H3E1       21.1960    7.0240    4.8080 hc        1 3PE      0.039700
     89 H3E2       21.0570    6.4480    6.5130 hc        1 3PE      0.039700
     90 H3F1       21.1620    8.8290    7.3270 hc        1 3PE      0.039700
     91 H3F2       21.3010    9.4060    5.6220 hc        1 3PE      0.039700
     92 H3G1       23.2710    7.4810    7.0420 hc        1 3PE      0.039700
     93 H3G2       23.4100    8.0570    5.3370 hc        1 3PE      0.039700
     94 H3H1       23.5130   10.4370    6.1510 hc        1 3PE      0.038700
     95 H3H2       23.3740    9.8610    7.8560 hc        1 3PE      0.038700
     96 H3I1       25.7520   10.3030    7.2430 hc        1 3PE      0.032700
     97 H3I2       25.5030    8.5420    7.5850 hc        1 3PE      0.032700
     98 H3I3       25.6420    9.1200    5.8760 hc        1 3PE      0.032700
     99 H221        2.8090   -3.6600    1.8880 hc        1 3PE      0.107200
    100 H222        2.0630   -3.9530    0.2540 hc        1 3PE      0.107200
    101 H231        4.2890   -4.9820   -0.5010 hc        1 3PE      0.045700
    102 H232        4.9310   -4.7720    1.1730 hc        1 3PE      0.045700
    103 H241        3.0460   -6.1900    2.0720 hc        1 3PE      0.045700
    104 H242        2.4190   -6.4120    0.3930 hc        1 3PE      0.045700
    105 H251        4.6110   -7.4580   -0.2840 hc        1 3PE      0.038700
    106 H252        5.2340   -7.2380    1.3960 hc        1 3PE      0.038700
    107 H261        2.7300   -8.8820    0.6000 hc        1 3PE      0.041200
    108 H262        3.3530   -8.6620    2.2800 hc        1 3PE      0.041200
    109 H271        4.9200   -9.9300   -0.0740 hc        1 3PE      0.038700
    110 H272        5.5420   -9.7090    1.6060 hc        1 3PE      0.038700
    111 H281        3.6610  -11.1320    2.4900 hc        1 3PE      0.040200
    112 H282        3.0390  -11.3530    0.8090 hc        1 3PE      0.040200
    113 H291        5.2290  -12.4010    0.1370 hc        1 3PE      0.039200
    114 H292        5.8510  -12.1800    1.8170 hc        1 3PE      0.039200
    115 H2A1        3.9700  -13.6030    2.7010 hc        1 3PE      0.040200
    116 H2A2        3.3480  -13.8250    1.0200 hc        1 3PE      0.040200
    117 H2B1        5.5380  -14.8730    0.3480 hc        1 3PE      0.039200
    118 H2B2        6.1600  -14.6510    2.0290 hc        1 3PE      0.039200
    119 H2C1        4.2790  -16.0740    2.9130 hc        1 3PE      0.039700
    120 H2C2        3.6570  -16.2960    1.2320 hc        1 3PE      0.039700
    121 H2D1        5.8470  -17.3440    0.5610 hc        1 3PE      0.039200
    122 H2D2        6.4690  -17.1210    2.2410 hc        1 3PE      0.039200
    123 H2E1        3.9660  -18.7670    1.4450 hc        1 3PE      0.039700
    124 H2E2        4.5880  -18.5440    3.1250 hc        1 3PE      0.039700
    125 H2F1        6.7780  -19.5920    2.4540 hc        1 3PE      0.039200
    126 H2F2        6.1560  -19.8150    0.7740 hc        1 3PE      0.039200
    127 H2G1        4.2750  -21.2380    1.6580 hc        1 3PE      0.039700
    128 H2G2        4.8970  -21.0150    3.3380 hc        1 3PE      0.039700
    129 H2H1        7.0860  -22.0610    2.6670 hc        1 3PE      0.038200
    130 H2H2        6.4650  -22.2840    0.9870 hc        1 3PE      0.038200
    131 H2I1        4.6060  -23.7380    1.8650 hc        1 3PE      0.032700
    132 H2I2        5.2290  -23.5150    3.5490 hc        1 3PE      0.032700
    133 H2I3        6.2370  -24.3810    2.3190 hc        1 3PE      0.032700
@<TRIPOS>BOND
     1    1    3 1   
     2    1    4 1   
     3    1    5 1   
     4    1    6 1   
     5    2    8 1   
     6    2   52 1   
     7    2   53 1   
     8    2   54 1   
     9    3    9 1   
    10    5    7 1   
    11    7    8 1   
    12    7   55 1   
    13    7   56 1   
    14    8   57 1   
    15    8   58 1   
    16    9   10 1   
    17    9   59 1   
    18    9   60 1   
    19   10   11 1   
    20   10   32 1   
    21   10   61 1   
    22   11   12 1   
    23   11   62 1   
    24   11   63 1   
    25   12   14 1   
    26   13   14 2   
    27   14   15 1   
    28   15   16 1   
    29   15   64 1   
    30   15   65 1   
    31   16   17 1   
    32   16   66 1   
    33   16   67 1   
    34   17   18 1   
    35   17   68 1   
    36   17   69 1   
    37   18   19 1   
    38   18   70 1   
    39   18   71 1   
    40   19   20 1   
    41   19   72 1   
    42   19   73 1   
    43   20   21 1   
    44   20   74 1   
    45   20   75 1   
    46   21   22 1   
    47   21   76 1   
    48   21   77 1   
    49   22   23 1   
    50   22   78 1   
    51   22   79 1   
    52   23   24 1   
    53   23   80 1   
    54   23   81 1   
    55   24   25 1   
    56   24   82 1   
    57   24   83 1   
    58   25   26 1   
    59   25   84 1   
    60   25   85 1   
    61   26   27 1   
    62   26   86 1   
    63   26   87 1   
    64   27   28 1   
    65   27   88 1   
    66   27   89 1   
    67   28   29 1   
    68   28   90 1   
    69   28   91 1   
    70   29   30 1   
    71   29   92 1   
    72   29   93 1   
    73   30   31 1   
    74   30   94 1   
    75   30   95 1   
    76   31   96 1   
    77   31   97 1   
    78   31   98 1   
    79   32   34 1   
    80   33   34 2   
    81   34   35 1   
    82   35   36 1   
    83   35   99 1   
    84   35  100 1   
    85   36   37 1   
    86   36  101 1   
    87   36  102 1   
    88   37   38 1   
    89   37  103 1   
    90   37  104 1   
    91   38   39 1   
    92   38  105 1   
    93   38  106 1   
    94   39   40 1   
    95   39  107 1   
    96   39  108 1   
    97   40   41 1   
    98   40  109 1   
    99   40  110 1   
   100   41   42 1   
   101   41  111 1   
   102   41  112 1   
   103   42   43 1   
   104   42  113 1   
   105   42  114 1   
   106   43   44 1   
   107   43  115 1   
   108   43  116 1   
   109   44   45 1   
   110   44  117 1   
   111   44  118 1   
   112   45   46 1   
   113   45  119 1   
   114   45  120 1   
   115   46   47 1   
   116   46  121 1   
   117   46  122 1   
   118   47   48 1   
   119   47  123 1   
   120   47  124 1   
   121   48   49 1   
   122   48  125 1   
   123   48  126 1   
   124   49   50 1   
   125   49  127 1   
   126   49  128 1   
   127   50   51 1   
   128   50  129 1   
   129   50  130 1   
   130   51  131 1   
   131   51  132 1   
   132   51  133 1   
@<TRIPOS>SUBSTRUCTURE
     1 3PE         1 TEMP              0 ****  ****    0 ROOT
