@<TRIPOS>MOLECULE
3PE
  133   131     1     0     0
SMALL
bcc


@<TRIPOS>ATOM
      1 P           1.3630    3.8500   -4.5250 p3        1 3PE      2.620000
      2 N          -1.3150    4.3650   -8.7530 n4        1 3PE     -0.371000
      3 O11         1.7620    4.7720   -3.2750 o         1 3PE     -0.731000
      4 O12         2.6190    3.3980   -5.2420 o         1 3PE     -0.927000
      5 O13         0.4460    4.6860   -5.5350 os        1 3PE     -0.766000
      6 O14         0.5940    2.6320   -4.0300 o         1 3PE     -0.927000
      7 C11         0.0900    4.0880   -6.7950 c3        1 3PE      0.020000
      8 C12        -0.9900    4.9370   -7.4760 c3        1 3PE     -0.109000
      9 C1          1.5620    4.2440   -1.9380 c3        1 3PE      0.039000
     10 C2          2.8060    4.4820   -1.1090 c3        1 3PE     -0.013000
     11 C3          2.7200    5.8620   -0.4450 c3        1 3PE     -0.035000
     12 O31         1.3490    6.2940   -0.4180 os        1 3PE     -0.289000
     13 O32         1.7860    7.6700    1.3720 o         1 3PE     -0.344000
     14 C31         1.1220    7.4740    0.3760 c2        1 3PE      0.310000
     15 C32         0.1360    8.5270   -0.0970 c3        1 3PE     -0.155000
     16 C33        -0.8690    8.8390    1.0340 c3        1 3PE     -0.158000
     17 C34        -2.0790    9.6140    0.4480 c3        1 3PE     -0.157000
     18 C35        -3.2410    9.6010    1.4600 c3        1 3PE     -0.158000
     19 C36        -4.5970    9.7850    0.6970 c3        1 3PE     -0.158000
     20 C37        -5.7250    9.0890    1.4770 c3        1 3PE     -0.158000
     21 C38        -6.8430    8.6460    0.4860 c3        1 3PE     -0.157000
     22 C39        -7.7050    7.5400    1.1370 c3        1 3PE     -0.158000
     23 C3A        -8.7740    7.0370    0.1070 c3        1 3PE     -0.158000
     24 C3B        -9.4370    5.7660    0.6360 c3        1 3PE     -0.158000
     25 C3C       -10.2680    5.1000   -0.5110 c3        1 3PE     -0.158000
     26 C3D       -10.7920    3.7370   -0.0410 c3        1 3PE     -0.158000
     27 C3E       -11.3550    2.9710   -1.2340 c3        1 3PE     -0.157000
     28 C3F       -11.9220    1.6240   -0.7570 c3        1 3PE     -0.158000
     29 C3G       -12.2630    0.7540   -1.9730 c3        1 3PE     -0.158000
     30 C3H       -12.8940   -0.5730   -1.4980 c3        1 3PE     -0.159000
     31 C3I       -13.3280   -1.3990   -2.7190 c3        1 3PE     -0.210000
     32 O21         2.9030    3.4980   -0.1250 os        1 3PE     -0.286000
     33 O22         4.8150    2.7600   -1.2030 o         1 3PE     -0.355000
     34 C21         4.0910    2.6520   -0.2440 c2        1 3PE      0.322000
     35 C22         4.4630    1.6490    0.9150 c3        1 3PE     -0.147000
     36 C23         4.5990    0.2030    0.3310 c3        1 3PE     -0.175000
     37 C24         5.1150   -0.7520    1.4300 c3        1 3PE     -0.150000
     38 C25         4.9900   -2.2120    0.9420 c3        1 3PE     -0.159000
     39 C26         5.5990   -3.1660    2.0020 c3        1 3PE     -0.157000
     40 C27         5.4070   -4.6490    1.5410 c3        1 3PE     -0.158000
     41 C28         6.0990   -5.5870    2.5300 c3        1 3PE     -0.158000
     42 C29         5.9640   -7.0690    2.0250 c3        1 3PE     -0.158000
     43 C2A         6.7810   -8.0080    2.9460 c3        1 3PE     -0.158000
     44 C2B         6.8210   -9.4310    2.3320 c3        1 3PE     -0.158000
     45 C2C         7.7080  -10.3320    3.1960 c3        1 3PE     -0.158000
     46 C2D         7.8880  -11.7160    2.4980 c3        1 3PE     -0.158000
     47 C2E         8.7960  -12.5850    3.3330 c3        1 3PE     -0.158000
     48 C2F         9.0870  -13.8760    2.5870 c3        1 3PE     -0.158000
     49 C2G        10.1400  -14.6930    3.3600 c3        1 3PE     -0.158000
     50 C2H        10.4600  -15.9930    2.5800 c3        1 3PE     -0.159000
     51 C2I        11.4980  -16.7900    3.3350 c3        1 3PE     -0.210000
     52 HN1        -0.6350    4.5470   -9.3550 hn        1 3PE      0.201667
     53 HN2        -1.4130    3.4530   -8.6660 hn        1 3PE      0.201667
     54 HN3        -2.1010    4.7290   -9.0610 hn        1 3PE      0.201667
     55 H111        0.8780    4.0440   -7.3670 h1        1 3PE      0.100500
     56 H112       -0.2510    3.1910   -6.6420 h1        1 3PE      0.100500
     57 H121       -0.6550    5.8540   -7.6020 hx        1 3PE      0.082000
     58 H122       -1.7970    4.9570   -6.9110 hx        1 3PE      0.082000
     59 H11         0.7960    4.6990   -1.5170 h1        1 3PE      0.104500
     60 H12         1.3840    3.2870   -1.9890 h1        1 3PE      0.104500
     61 H2          3.5880    4.4450   -1.6810 h1        1 3PE      0.146000
     62 H31         3.2580    6.5070   -0.9570 h1        1 3PE      0.122000
     63 H32         3.0620    5.8060    0.4730 h1        1 3PE      0.122000
     64 H321        0.6230    9.3460   -0.3380 hc        1 3PE      0.116500
     65 H322       -0.3450    8.1960   -0.8750 hc        1 3PE      0.116500
     66 H331       -0.4280    9.3890    1.7220 hc        1 3PE      0.097500
     67 H332       -1.1800    8.0030    1.4340 hc        1 3PE      0.097500
     68 H341       -2.3670    9.1880   -0.3830 hc        1 3PE      0.080000
     69 H342       -1.8170   10.5350    0.2670 hc        1 3PE      0.080000
     70 H351       -3.2480    8.7500    1.9370 hc        1 3PE      0.082000
     71 H352       -3.1230   10.3410    2.1060 hc        1 3PE      0.082000
     72 H361       -4.5250    9.3850   -0.2010 hc        1 3PE      0.079000
     73 H362       -4.7970   10.7350    0.6140 hc        1 3PE      0.079000
     74 H371       -5.3680    8.3080    1.9350 hc        1 3PE      0.080000
     75 H372       -6.1010    9.7140    2.1380 hc        1 3PE      0.080000
     76 H381       -7.4050    9.4080    0.2700 hc        1 3PE      0.078500
     77 H382       -6.4320    8.2980   -0.3380 hc        1 3PE      0.078500
     78 H391       -7.1270    6.7890    1.4050 hc        1 3PE      0.079500
     79 H392       -8.1570    7.9020    1.9270 hc        1 3PE      0.079500
     80 H3A1       -9.4470    7.7220   -0.0200 hc        1 3PE      0.078500
     81 H3A2       -8.3360    6.8440   -0.7530 hc        1 3PE      0.078500
     82 H3B1      -10.0310    5.9920    1.3800 hc        1 3PE      0.079000
     83 H3B2       -8.7470    5.1400    0.9460 hc        1 3PE      0.079000
     84 H3C1       -9.6910    4.9750   -1.3080 hc        1 3PE      0.079000
     85 H3C2      -11.0290    5.6810   -0.7440 hc        1 3PE      0.079000
     86 H3D1      -11.4990    3.8700    0.6250 hc        1 3PE      0.079000
     87 H3D2      -10.0610    3.2260    0.3580 hc        1 3PE      0.079000
     88 H3E1      -10.6390    2.8110   -1.8890 hc        1 3PE      0.079000
     89 H3E2      -12.0710    3.4970   -1.6520 hc        1 3PE      0.079000
     90 H3F1      -12.7360    1.7800   -0.2270 hc        1 3PE      0.079000
     91 H3F2      -11.2520    1.1660   -0.2020 hc        1 3PE      0.079000
     92 H3G1      -12.8950    1.2290   -2.5450 hc        1 3PE      0.079000
     93 H3G2      -11.4460    0.5640   -2.4780 hc        1 3PE      0.079000
     94 H3H1      -12.2360   -1.0800   -0.9760 hc        1 3PE      0.078000
     95 H3H2      -13.6760   -0.3810   -0.9390 hc        1 3PE      0.078000
     96 H3I1      -12.5330   -1.7240   -3.1920 hc        1 3PE      0.072000
     97 H3I2      -13.8730   -2.1710   -2.4190 hc        1 3PE      0.072000
     98 H3I3      -13.8570   -0.8400   -3.3200 hc        1 3PE      0.072000
     99 H221        3.7560    1.6610    1.5980 hc        1 3PE      0.113000
    100 H222        5.3170    1.9200    1.3220 hc        1 3PE      0.113000
    101 H231        5.2360    0.2110   -0.4230 hc        1 3PE      0.117500
    102 H232        3.7230   -0.1060    0.0150 hc        1 3PE      0.117500
    103 H241        6.0560   -0.5510    1.6230 hc        1 3PE      0.074000
    104 H242        4.5830   -0.6320    2.2400 hc        1 3PE      0.074000
    105 H251        4.0430   -2.4330    0.8090 hc        1 3PE      0.086500
    106 H252        5.4700   -2.3150    0.0980 hc        1 3PE      0.086500
    107 H261        6.5620   -2.9760    2.1000 hc        1 3PE      0.076500
    108 H262        5.1450   -3.0290    2.8690 hc        1 3PE      0.076500
    109 H271        5.7940   -4.7670    0.6610 hc        1 3PE      0.079500
    110 H272        4.4520   -4.8580    1.5070 hc        1 3PE      0.079500
    111 H281        7.0410   -5.3520    2.5950 hc        1 3PE      0.078000
    112 H282        5.6800   -5.5020    3.4100 hc        1 3PE      0.078000
    113 H291        5.0140   -7.3360    2.0410 hc        1 3PE      0.078500
    114 H292        6.3070   -7.1340    1.1020 hc        1 3PE      0.078500
    115 H2A1        6.3610   -8.0450    3.8320 hc        1 3PE      0.078500
    116 H2A2        7.6950   -7.6650    3.0330 hc        1 3PE      0.078500
    117 H2B1        7.1860   -9.3850    1.4290 hc        1 3PE      0.078500
    118 H2B2        5.9180   -9.7970    2.3000 hc        1 3PE      0.078500
    119 H2C1        7.2860  -10.4610    4.0770 hc        1 3PE      0.078500
    120 H2C2        8.5850   -9.9090    3.3130 hc        1 3PE      0.078500
    121 H2D1        8.2850  -11.5870    1.6130 hc        1 3PE      0.078500
    122 H2D2        7.0130  -12.1530    2.4040 hc        1 3PE      0.078500
    123 H2E1        8.3610  -12.7900    4.1790 hc        1 3PE      0.078500
    124 H2E2        9.6240  -12.1170    3.5010 hc        1 3PE      0.078500
    125 H2F1        9.4290  -13.6660    1.6930 hc        1 3PE      0.078500
    126 H2F2        8.2610  -14.4010    2.5080 hc        1 3PE      0.078500
    127 H2G1        9.7860  -14.9240    4.2570 hc        1 3PE      0.078500
    128 H2G2       10.9650  -14.1570    3.4590 hc        1 3PE      0.078500
    129 H2H1        9.6470  -16.5240    2.4860 hc        1 3PE      0.077500
    130 H2H2       10.8060  -15.7640    1.6890 hc        1 3PE      0.077500
    131 H2I1       12.3300  -16.2670    3.4000 hc        1 3PE      0.072000
    132 H2I2       11.1650  -16.9900    4.2360 hc        1 3PE      0.072000
    133 H2I3       11.6750  -17.6230    2.8630 hc        1 3PE      0.072000
@<TRIPOS>BOND
     1    1    4 1   
     2    1    5 1   
     3    1    6 1   
     4    2    8 1   
     5    2   52 1   
     6    2   53 1   
     7    2   54 1   
     8    3    9 1   
     9    5    7 1   
    10    7    8 1   
    11    7   55 1   
    12    7   56 1   
    13    8   57 1   
    14    8   58 1   
    15    9   10 1   
    16    9   59 1   
    17    9   60 1   
    18   10   11 1   
    19   10   32 1   
    20   10   61 1   
    21   11   12 1   
    22   11   62 1   
    23   11   63 1   
    24   12   14 1   
    25   13   14 1   
    26   14   15 1   
    27   15   16 1   
    28   15   64 1   
    29   15   65 1   
    30   16   17 1   
    31   16   66 1   
    32   16   67 1   
    33   17   18 1   
    34   17   68 1   
    35   17   69 1   
    36   18   19 1   
    37   18   70 1   
    38   18   71 1   
    39   19   20 1   
    40   19   72 1   
    41   19   73 1   
    42   20   21 1   
    43   20   74 1   
    44   20   75 1   
    45   21   22 1   
    46   21   76 1   
    47   21   77 1   
    48   22   23 1   
    49   22   78 1   
    50   22   79 1   
    51   23   24 1   
    52   23   80 1   
    53   23   81 1   
    54   24   25 1   
    55   24   82 1   
    56   24   83 1   
    57   25   26 1   
    58   25   84 1   
    59   25   85 1   
    60   26   27 1   
    61   26   86 1   
    62   26   87 1   
    63   27   28 1   
    64   27   88 1   
    65   27   89 1   
    66   28   29 1   
    67   28   90 1   
    68   28   91 1   
    69   29   30 1   
    70   29   92 1   
    71   29   93 1   
    72   30   31 1   
    73   30   94 1   
    74   30   95 1   
    75   31   96 1   
    76   31   97 1   
    77   31   98 1   
    78   32   34 1   
    79   33   34 1   
    80   34   35 1   
    81   35   36 1   
    82   35   99 1   
    83   35  100 1   
    84   36   37 1   
    85   36  101 1   
    86   36  102 1   
    87   37   38 1   
    88   37  103 1   
    89   37  104 1   
    90   38   39 1   
    91   38  105 1   
    92   38  106 1   
    93   39   40 1   
    94   39  107 1   
    95   39  108 1   
    96   40   41 1   
    97   40  109 1   
    98   40  110 1   
    99   41   42 1   
   100   41  111 1   
   101   41  112 1   
   102   42   43 1   
   103   42  113 1   
   104   42  114 1   
   105   43   44 1   
   106   43  115 1   
   107   43  116 1   
   108   44   45 1   
   109   44  117 1   
   110   44  118 1   
   111   45   46 1   
   112   45  119 1   
   113   45  120 1   
   114   46   47 1   
   115   46  121 1   
   116   46  122 1   
   117   47   48 1   
   118   47  123 1   
   119   47  124 1   
   120   48   49 1   
   121   48  125 1   
   122   48  126 1   
   123   49   50 1   
   124   49  127 1   
   125   49  128 1   
   126   50   51 1   
   127   50  129 1   
   128   50  130 1   
   129   51  131 1   
   130   51  132 1   
   131   51  133 1   
@<TRIPOS>SUBSTRUCTURE
     1 3PE         1 TEMP              0 ****  ****    0 ROOT
