@<TRIPOS>MOLECULE
3PE
  133   132     1     0     0
SMALL
bcc


@<TRIPOS>ATOM
      1 P          -6.9790   12.3130   -8.5220 p5        1 3PE      1.448800
      2 N          -5.1150   13.3940   -5.9430 n4        1 3PE     -0.857600
      3 O11        -5.4320   11.7580   -8.3130 os        1 3PE     -0.606200
      4 O12        -6.7360   13.7590   -8.2530 o         1 3PE     -0.808500
      5 O13        -7.4250   11.7540   -7.0260 os        1 3PE     -0.557200
      6 O14        -7.6680   11.6640   -9.6310 o         1 3PE     -0.808500
      7 C11        -7.5310   12.6490   -5.9760 c3        1 3PE      0.190400
      8 C12        -6.2170   12.7800   -5.1620 c3        1 3PE      0.072800
      9 C1         -4.7110   11.4130   -9.4540 c3        1 3PE      0.170400
     10 C2         -3.4670   12.3120   -9.5690 c3        1 3PE      0.088100
     11 C3         -2.5270   11.7860  -10.6520 c3        1 3PE      0.134400
     12 O31        -1.2610   12.4480  -10.6120 os        1 3PE     -0.433900
     13 O32        -0.6870   11.1780   -8.8610 o         1 3PE     -0.549000
     14 C31        -0.3630   12.0670   -9.6510 c         1 3PE      0.632100
     15 C32         0.9130   12.8460   -9.7230 c3        1 3PE     -0.127400
     16 C33         2.1050   11.9670   -9.4070 c3        1 3PE     -0.079400
     17 C34         3.3750   12.7880   -9.3440 c3        1 3PE     -0.078400
     18 C35         4.5740   11.9120   -9.0480 c3        1 3PE     -0.079400
     19 C36         5.8460   12.7300   -8.9790 c3        1 3PE     -0.079400
     20 C37         7.0450   11.8550   -8.6830 c3        1 3PE     -0.079400
     21 C38         8.3180   12.6720   -8.6150 c3        1 3PE     -0.078400
     22 C39         9.5170   11.7980   -8.3190 c3        1 3PE     -0.079400
     23 C3A        10.7890   12.6150   -8.2500 c3        1 3PE     -0.079400
     24 C3B        11.9890   11.7400   -7.9540 c3        1 3PE     -0.079400
     25 C3C        13.2610   12.5570   -7.8850 c3        1 3PE     -0.079400
     26 C3D        14.4600   11.6820   -7.5890 c3        1 3PE     -0.079400
     27 C3E        15.7330   12.4990   -7.5210 c3        1 3PE     -0.079400
     28 C3F        16.9320   11.6250   -7.2240 c3        1 3PE     -0.079400
     29 C3G        18.2050   12.4410   -7.1560 c3        1 3PE     -0.079400
     30 C3H        19.4050   11.5680   -6.8600 c3        1 3PE     -0.080400
     31 C3I        20.6740   12.3770   -6.7910 c3        1 3PE     -0.092100
     32 O21        -3.8880   13.6210   -9.9960 os        1 3PE     -0.428900
     33 O22        -3.5650   14.4290   -7.9290 o         1 3PE     -0.642000
     34 C21        -4.0140   14.6120   -9.0700 c         1 3PE      0.696100
     35 C22        -4.7370   15.8070   -9.6030 c3        1 3PE     -0.144400
     36 C23        -4.1540   17.0970   -9.0700 c3        1 3PE     -0.072400
     37 C24        -5.0050   18.2790   -9.4850 c3        1 3PE     -0.080400
     38 C25        -4.4230   19.5770   -8.9690 c3        1 3PE     -0.078400
     39 C26        -5.2740   20.7600   -9.3780 c3        1 3PE     -0.079400
     40 C27        -4.6940   22.0590   -8.8620 c3        1 3PE     -0.078400
     41 C28        -5.5460   23.2420   -9.2710 c3        1 3PE     -0.079400
     42 C29        -4.9660   24.5410   -8.7550 c3        1 3PE     -0.078400
     43 C2A        -5.8180   25.7240   -9.1640 c3        1 3PE     -0.079400
     44 C2B        -5.2380   27.0230   -8.6480 c3        1 3PE     -0.078400
     45 C2C        -6.0910   28.2060   -9.0570 c3        1 3PE     -0.079400
     46 C2D        -5.5110   29.5050   -8.5410 c3        1 3PE     -0.078400
     47 C2E        -6.3630   30.6880   -8.9490 c3        1 3PE     -0.079400
     48 C2F        -5.7840   31.9870   -8.4340 c3        1 3PE     -0.079400
     49 C2G        -6.6360   33.1690   -8.8420 c3        1 3PE     -0.079400
     50 C2H        -6.0570   34.4700   -8.3270 c3        1 3PE     -0.080400
     51 C2I        -6.9030   35.6500   -8.7310 c3        1 3PE     -0.092100
     52 HN1        -4.4250   12.6910   -6.2260 hn        1 3PE      0.471133
     53 HN2        -4.6470   14.1380   -5.4370 hn        1 3PE      0.471133
     54 HN3        -5.5050   13.7840   -6.8560 hn        1 3PE      0.471133
     55 H111       -8.2980   12.2350   -5.2610 h1        1 3PE      0.063700
     56 H112       -7.8530   13.6620   -6.3470 h1        1 3PE      0.063700
     57 H121       -5.8930   11.7550   -4.8310 hx        1 3PE      0.082700
     58 H122       -6.4210   13.4190   -4.2610 hx        1 3PE      0.082700
     59 H11        -4.3590   10.3480   -9.3460 h1        1 3PE      0.056200
     60 H12        -5.3570   11.5090  -10.3700 h1        1 3PE      0.056200
     61 H2         -2.9350   12.3710   -8.5810 h1        1 3PE      0.090700
     62 H31        -2.9130   12.0360  -11.6770 h1        1 3PE      0.081200
     63 H32        -2.3890   10.6810  -10.5250 h1        1 3PE      0.081200
     64 H321        0.8360   13.6830   -8.9770 hc        1 3PE      0.079200
     65 H322        1.0190   13.3040  -10.7410 hc        1 3PE      0.079200
     66 H331        1.9360   11.4440   -8.4280 hc        1 3PE      0.057200
     67 H332        2.2050   11.1730  -10.1930 hc        1 3PE      0.057200
     68 H341        3.2780   13.5740   -8.5500 hc        1 3PE      0.041200
     69 H342        3.5300   13.3200  -10.3200 hc        1 3PE      0.041200
     70 H351        4.4180   11.3770   -8.0740 hc        1 3PE      0.042700
     71 H352        4.6740   11.1280   -9.8440 hc        1 3PE      0.042700
     72 H361        6.0020   13.2660   -9.9530 hc        1 3PE      0.039700
     73 H362        5.7470   13.5140   -8.1830 hc        1 3PE      0.039700
     74 H371        7.1450   11.0710   -9.4800 hc        1 3PE      0.040700
     75 H372        6.8890   11.3200   -7.7100 hc        1 3PE      0.040700
     76 H381        8.4740   13.2080   -9.5880 hc        1 3PE      0.039700
     77 H382        8.2190   13.4570   -7.8190 hc        1 3PE      0.039700
     78 H391        9.6160   11.0140   -9.1150 hc        1 3PE      0.039700
     79 H392        9.3610   11.2620   -7.3450 hc        1 3PE      0.039700
     80 H3A1       10.9460   13.1500   -9.2230 hc        1 3PE      0.039700
     81 H3A2       10.6900   13.3990   -7.4540 hc        1 3PE      0.039700
     82 H3B1       11.8320   11.2050   -6.9800 hc        1 3PE      0.039700
     83 H3B2       12.0880   10.9560   -8.7490 hc        1 3PE      0.039700
     84 H3C1       13.1620   13.3420   -7.0890 hc        1 3PE      0.039700
     85 H3C2       13.4170   13.0920   -8.8590 hc        1 3PE      0.039700
     86 H3D1       14.3040   11.1470   -6.6150 hc        1 3PE      0.039700
     87 H3D2       14.5590   10.8980   -8.3840 hc        1 3PE      0.039700
     88 H3E1       15.8890   13.0340   -8.4940 hc        1 3PE      0.039700
     89 H3E2       15.6340   13.2840   -6.7250 hc        1 3PE      0.039700
     90 H3F1       16.7760   11.0900   -6.2500 hc        1 3PE      0.039700
     91 H3F2       17.0310   10.8400   -8.0200 hc        1 3PE      0.039700
     92 H3G1       18.3610   12.9760   -8.1300 hc        1 3PE      0.039700
     93 H3G2       18.1060   13.2260   -6.3600 hc        1 3PE      0.039700
     94 H3H1       19.5010   10.7830   -7.6560 hc        1 3PE      0.038700
     95 H3H2       19.2460   11.0320   -5.8860 hc        1 3PE      0.038700
     96 H3I1       21.5460   11.7140   -6.5720 hc        1 3PE      0.032700
     97 H3I2       20.6070   13.1490   -5.9870 hc        1 3PE      0.032700
     98 H3I3       20.8630   12.8980   -7.7610 hc        1 3PE      0.032700
     99 H221       -5.8110   15.6780   -9.2740 hc        1 3PE      0.107200
    100 H222       -4.7170   15.7970  -10.7250 hc        1 3PE      0.107200
    101 H231       -4.0910   17.0460   -7.9510 hc        1 3PE      0.045700
    102 H232       -3.1090   17.2290   -9.4560 hc        1 3PE      0.045700
    103 H241       -6.0470   18.1490   -9.0910 hc        1 3PE      0.046200
    104 H242       -5.0760   18.3170  -10.6040 hc        1 3PE      0.046200
    105 H251       -4.3480   19.5370   -7.8500 hc        1 3PE      0.038700
    106 H252       -3.3820   19.7080   -9.3660 hc        1 3PE      0.038700
    107 H261       -5.3500   20.7990  -10.4970 hc        1 3PE      0.041200
    108 H262       -6.3160   20.6290   -8.9810 hc        1 3PE      0.041200
    109 H271       -3.6530   22.1900   -9.2600 hc        1 3PE      0.038700
    110 H272       -4.6180   22.0200   -7.7440 hc        1 3PE      0.038700
    111 H281       -5.6220   23.2820  -10.3900 hc        1 3PE      0.040200
    112 H282       -6.5870   23.1110   -8.8740 hc        1 3PE      0.040200
    113 H291       -3.9250   24.6730   -9.1530 hc        1 3PE      0.039200
    114 H292       -4.8900   24.5020   -7.6370 hc        1 3PE      0.039200
    115 H2A1       -5.8940   25.7640  -10.2830 hc        1 3PE      0.039700
    116 H2A2       -6.8590   25.5920   -8.7670 hc        1 3PE      0.039700
    117 H2B1       -5.1620   26.9830   -7.5290 hc        1 3PE      0.039200
    118 H2B2       -4.1970   27.1550   -9.0460 hc        1 3PE      0.039200
    119 H2C1       -7.1310   28.0740   -8.6590 hc        1 3PE      0.039700
    120 H2C2       -6.1670   28.2460  -10.1750 hc        1 3PE      0.039700
    121 H2D1       -5.4340   29.4650   -7.4220 hc        1 3PE      0.039200
    122 H2D2       -4.4700   29.6370   -8.9380 hc        1 3PE      0.039200
    123 H2E1       -6.4400   30.7270  -10.0680 hc        1 3PE      0.039700
    124 H2E2       -7.4040   30.5560   -8.5520 hc        1 3PE      0.039700
    125 H2F1       -5.7070   31.9470   -7.3150 hc        1 3PE      0.039200
    126 H2F2       -4.7430   32.1190   -8.8310 hc        1 3PE      0.039200
    127 H2G1       -6.7130   33.2100   -9.9600 hc        1 3PE      0.039700
    128 H2G2       -7.6770   33.0380   -8.4440 hc        1 3PE      0.039700
    129 H2H1       -5.0160   34.5990   -8.7240 hc        1 3PE      0.038200
    130 H2H2       -5.9800   34.4270   -7.2080 hc        1 3PE      0.038200
    131 H2I1       -6.4590   36.5980   -8.3410 hc        1 3PE      0.032700
    132 H2I2       -7.9380   35.5520   -8.3230 hc        1 3PE      0.032700
    133 H2I3       -6.9710   35.7240   -9.8430 hc        1 3PE      0.032700
@<TRIPOS>BOND
     1    1    3 1   
     2    1    4 1   
     3    1    5 1   
     4    1    6 1   
     5    2    8 1   
     6    2   52 1   
     7    2   53 1   
     8    2   54 1   
     9    3    9 1   
    10    5    7 1   
    11    7    8 1   
    12    7   55 1   
    13    7   56 1   
    14    8   57 1   
    15    8   58 1   
    16    9   10 1   
    17    9   59 1   
    18    9   60 1   
    19   10   11 1   
    20   10   32 1   
    21   10   61 1   
    22   11   12 1   
    23   11   62 1   
    24   11   63 1   
    25   12   14 1   
    26   13   14 2   
    27   14   15 1   
    28   15   16 1   
    29   15   64 1   
    30   15   65 1   
    31   16   17 1   
    32   16   66 1   
    33   16   67 1   
    34   17   18 1   
    35   17   68 1   
    36   17   69 1   
    37   18   19 1   
    38   18   70 1   
    39   18   71 1   
    40   19   20 1   
    41   19   72 1   
    42   19   73 1   
    43   20   21 1   
    44   20   74 1   
    45   20   75 1   
    46   21   22 1   
    47   21   76 1   
    48   21   77 1   
    49   22   23 1   
    50   22   78 1   
    51   22   79 1   
    52   23   24 1   
    53   23   80 1   
    54   23   81 1   
    55   24   25 1   
    56   24   82 1   
    57   24   83 1   
    58   25   26 1   
    59   25   84 1   
    60   25   85 1   
    61   26   27 1   
    62   26   86 1   
    63   26   87 1   
    64   27   28 1   
    65   27   88 1   
    66   27   89 1   
    67   28   29 1   
    68   28   90 1   
    69   28   91 1   
    70   29   30 1   
    71   29   92 1   
    72   29   93 1   
    73   30   31 1   
    74   30   94 1   
    75   30   95 1   
    76   31   96 1   
    77   31   97 1   
    78   31   98 1   
    79   32   34 1   
    80   33   34 2   
    81   34   35 1   
    82   35   36 1   
    83   35   99 1   
    84   35  100 1   
    85   36   37 1   
    86   36  101 1   
    87   36  102 1   
    88   37   38 1   
    89   37  103 1   
    90   37  104 1   
    91   38   39 1   
    92   38  105 1   
    93   38  106 1   
    94   39   40 1   
    95   39  107 1   
    96   39  108 1   
    97   40   41 1   
    98   40  109 1   
    99   40  110 1   
   100   41   42 1   
   101   41  111 1   
   102   41  112 1   
   103   42   43 1   
   104   42  113 1   
   105   42  114 1   
   106   43   44 1   
   107   43  115 1   
   108   43  116 1   
   109   44   45 1   
   110   44  117 1   
   111   44  118 1   
   112   45   46 1   
   113   45  119 1   
   114   45  120 1   
   115   46   47 1   
   116   46  121 1   
   117   46  122 1   
   118   47   48 1   
   119   47  123 1   
   120   47  124 1   
   121   48   49 1   
   122   48  125 1   
   123   48  126 1   
   124   49   50 1   
   125   49  127 1   
   126   49  128 1   
   127   50   51 1   
   128   50  129 1   
   129   50  130 1   
   130   51  131 1   
   131   51  132 1   
   132   51  133 1   
@<TRIPOS>SUBSTRUCTURE
     1 3PE         1 TEMP              0 ****  ****    0 ROOT
