@<TRIPOS>MOLECULE
3PF
   22    23     1     0     0
SMALL
bcc


@<TRIPOS>ATOM
      1 CAA         0.0750    0.0450   -0.0610 c3        1 3PF      0.081300
      2 OAB         0.5790    0.1720    2.6710 o         1 3PF     -0.663500
      3 CAC         6.2580   -0.0280   -0.0160 ca        1 3PF     -0.162000
      4 CAD         6.3970    0.0180    1.3710 ca        1 3PF     -0.090000
      5 CAE         4.9880   -0.0590   -0.5860 ca        1 3PF     -0.087000
      6 CAF         5.2800    0.0350    2.1980 ca        1 3PF     -0.180000
      7 CAG         2.4930   -0.1020   -0.4040 c3        1 3PF      0.146300
      8 NAH         2.8440   -0.0130    2.4290 ns        1 3PF     -0.468100
      9 CAI         1.5520    0.1060    1.8830 c         1 3PF      0.808500
     10 CAJ         3.8510   -0.0470    0.2210 ca        1 3PF     -0.150300
     11 CAK         3.9870   -0.0010    1.6300 ca        1 3PF      0.091600
     12 NAL         1.3940    0.1910    0.4910 n         1 3PF     -0.458800
     13 HAA        -0.6930    0.3370    0.7050 h1        1 3PF      0.049700
     14 HAAA       -0.0140    0.7190   -0.9540 h1        1 3PF      0.049700
     15 HAAB       -0.1160   -1.0140   -0.3860 h1        1 3PF      0.049700
     16 HAC         7.1500   -0.0390   -0.6600 ha        1 3PF      0.136000
     17 HAD         7.4020    0.0440    1.8200 ha        1 3PF      0.135000
     18 HAE         4.8740   -0.0930   -1.6800 ha        1 3PF      0.135000
     19 HAF         5.4060    0.0740    3.2900 ha        1 3PF      0.138000
     20 HAG         2.4420    0.6490   -1.2490 h1        1 3PF      0.048200
     21 HAGA        2.3510   -1.1300   -0.8590 h1        1 3PF      0.048200
     22 HNAH        2.9280    0.0780    3.4150 hn        1 3PF      0.343500
@<TRIPOS>BOND
     1    1   12 1   
     2    1   13 1   
     3    1   14 1   
     4    1   15 1   
     5    2    9 2   
     6    3    4 ar  
     7    3    5 ar  
     8    3   16 1   
     9    4    6 ar  
    10    4   17 1   
    11    5   10 ar  
    12    5   18 1   
    13    6   11 ar  
    14    6   19 1   
    15    7   10 1   
    16    7   12 1   
    17    7   20 1   
    18    7   21 1   
    19    8    9 1   
    20    8   11 1   
    21    8   22 1   
    22    9   12 1   
    23   10   11 ar  
@<TRIPOS>SUBSTRUCTURE
     1 3PF         1 TEMP              0 ****  ****    0 ROOT
