@<TRIPOS>MOLECULE
3PF
   22    23     1     0     0
SMALL
bcc


@<TRIPOS>ATOM
      1 CAA         3.0440    1.2940   -0.0530 c3        1 3PF      0.081300
      2 OAB         2.7660   -1.4720   -0.0790 o         1 3PF     -0.663500
      3 CAC        -3.1160    0.7470   -0.0230 ca        1 3PF     -0.162000
      4 CAD        -3.1410   -0.6480   -0.0170 ca        1 3PF     -0.090000
      5 CAE        -1.8960    1.4190   -0.0050 ca        1 3PF     -0.087000
      6 CAF        -1.9600   -1.3810    0.0060 ca        1 3PF     -0.180000
      7 CAG         0.6050    1.4440    0.0620 c3        1 3PF      0.146300
      8 NAH         0.4860   -1.4100    0.0800 n         1 3PF     -0.468100
      9 CAI         1.7310   -0.7650   -0.0500 c         1 3PF      0.808500
     10 CAJ        -0.6980    0.7080    0.0220 ca        1 3PF     -0.150300
     11 CAK        -0.7180   -0.7080    0.0290 ca        1 3PF      0.091600
     12 NAL         1.7750    0.6310   -0.1880 n         1 3PF     -0.458800
     13 HAA         3.1960    1.6730    0.9940 h1        1 3PF      0.049700
     14 HAAA        3.8740    0.5830   -0.3100 h1        1 3PF      0.049700
     15 HAAB        3.0670    2.1650   -0.7610 h1        1 3PF      0.049700
     16 HAC        -4.0570    1.3150   -0.0440 ha        1 3PF      0.136000
     17 HAD        -4.1060   -1.1790   -0.0330 ha        1 3PF      0.135000
     18 HAE        -1.8720    2.5190   -0.0130 ha        1 3PF      0.135000
     19 HAF        -1.9960   -2.4800    0.0090 ha        1 3PF      0.138000
     20 HAG         0.5950    2.2600   -0.7200 h1        1 3PF      0.048200
     21 HAGA        0.6990    1.9470    1.0720 h1        1 3PF      0.048200
     22 HNAH        0.4840   -2.4030    0.0270 hn        1 3PF      0.343500
@<TRIPOS>BOND
     1    1   12 1   
     2    1   13 1   
     3    1   14 1   
     4    1   15 1   
     5    2    9 2   
     6    3    4 ar  
     7    3    5 ar  
     8    3   16 1   
     9    4    6 ar  
    10    4   17 1   
    11    5   10 ar  
    12    5   18 1   
    13    6   11 ar  
    14    6   19 1   
    15    7   10 1   
    16    7   12 1   
    17    7   20 1   
    18    7   21 1   
    19    8    9 1   
    20    8   11 1   
    21    8   22 1   
    22    9   12 1   
    23   10   11 ar  
@<TRIPOS>SUBSTRUCTURE
     1 3PF         1 TEMP              0 ****  ****    0 ROOT
