@<TRIPOS>MOLECULE
3PF
   22    23     1     0     0
SMALL
bcc


@<TRIPOS>ATOM
      1 CAA         0.0740    0.0430   -0.0570 c3        1 3PF      0.081300
      2 OAB         0.5810    0.1750    2.6740 o         1 3PF     -0.663500
      3 CAC         6.2580   -0.0280   -0.0200 ca        1 3PF     -0.162000
      4 CAD         6.3980    0.0210    1.3670 ca        1 3PF     -0.090000
      5 CAE         4.9860   -0.0610   -0.5880 ca        1 3PF     -0.087000
      6 CAF         5.2820    0.0380    2.1950 ca        1 3PF     -0.180000
      7 CAG         2.4910   -0.1050   -0.4030 c3        1 3PF      0.146300
      8 NAH         2.8460   -0.0100    2.4290 n         1 3PF     -0.468100
      9 CAI         1.5530    0.1070    1.8850 c         1 3PF      0.808500
     10 CAJ         3.8500   -0.0480    0.2210 ca        1 3PF     -0.150300
     11 CAK         3.9890    0.0010    1.6290 ca        1 3PF      0.091600
     12 NAL         1.3940    0.1900    0.4930 n         1 3PF     -0.458800
     13 HAA        -0.1170   -1.0170   -0.3800 h1        1 3PF      0.049700
     14 HAAA       -0.0160    0.7150   -0.9510 h1        1 3PF      0.049700
     15 HAAB       -0.6930    0.3360    0.7090 h1        1 3PF      0.049700
     16 HAC         7.1480   -0.0390   -0.6650 ha        1 3PF      0.136000
     17 HAD         7.4040    0.0490    1.8140 ha        1 3PF      0.135000
     18 HAE         4.8700   -0.0970   -1.6820 ha        1 3PF      0.135000
     19 HAF         5.4100    0.0790    3.2870 ha        1 3PF      0.138000
     20 HAG         2.4390    0.6430   -1.2490 h1        1 3PF      0.048200
     21 HAGA        2.3490   -1.1340   -0.8540 h1        1 3PF      0.048200
     22 HNAH        2.9320    0.0830    3.4160 hn        1 3PF      0.343500
@<TRIPOS>BOND
     1    1   12 1   
     2    1   13 1   
     3    1   14 1   
     4    1   15 1   
     5    2    9 2   
     6    3    4 ar  
     7    3    5 ar  
     8    3   16 1   
     9    4    6 ar  
    10    4   17 1   
    11    5   10 ar  
    12    5   18 1   
    13    6   11 ar  
    14    6   19 1   
    15    7   10 1   
    16    7   12 1   
    17    7   20 1   
    18    7   21 1   
    19    8    9 1   
    20    8   11 1   
    21    8   22 1   
    22    9   12 1   
    23   10   11 ar  
@<TRIPOS>SUBSTRUCTURE
     1 3PF         1 TEMP              0 ****  ****    0 ROOT
