@<TRIPOS>MOLECULE
3PF
   22    21     1     0     0
SMALL
bcc


@<TRIPOS>ATOM
      1 CAA        -3.2140    0.0100   -0.7440 c3        1 3PF     -0.074000
      2 OAB        -2.6790   -0.2010    1.8950 o         1 3PF     -0.388000
      3 CAC         3.0170    0.0100   -0.7440 c1        1 3PF     -0.126000
      4 CAD         3.1740    0.0100    0.6380 c1        1 3PF     -0.126000
      5 CAE         1.7440    0.0100   -1.2980 c1        1 3PF     -0.087000
      6 CAF         2.0590    0.0100    1.4630 c1        1 3PF     -0.180000
      7 CAG        -0.7360    0.0100   -1.0640 c3        1 3PF      0.023000
      8 NAH        -0.3970    0.0100    1.7650 n         1 3PF     -0.322000
      9 CAI        -1.7110    0.0100    1.1920 c2        1 3PF      0.399000
     10 CAJ         0.6140    0.0100   -0.4630 c2        1 3PF     -0.143000
     11 CAK         0.7690    0.0100    0.9030 c2        1 3PF      0.099000
     12 NAL        -1.8720    0.0100   -0.2240 n         1 3PF     -0.317000
     13 HAA        -3.6460   -0.8400   -0.5310 h1        1 3PF      0.089000
     14 HAAA       -3.7190    0.7410   -0.3410 h1        1 3PF      0.089000
     15 HAAB       -3.1880    0.1270   -1.7130 h1        1 3PF      0.089000
     16 HAC         3.8020    0.0100   -1.3240 ha        1 3PF      0.135500
     17 HAD         4.0690    0.0100    1.0270 ha        1 3PF      0.135500
     18 HAE         1.6340    0.0100   -2.2680 ha        1 3PF      0.135000
     19 HAF         2.1700    0.0100    2.4330 ha        1 3PF      0.138000
     20 HAG        -0.7990   -0.7780   -1.6370 h1        1 3PF      0.087500
     21 HAGA       -0.7990    0.7970   -1.6370 h1        1 3PF      0.087500
     22 HNAH       -0.2940    0.0100    2.6710 hn        1 3PF      0.257000
@<TRIPOS>BOND
     1    1   12 1   
     2    1   13 1   
     3    1   14 1   
     4    1   15 1   
     5    2    9 1   
     6    3    4 1   
     7    3   16 1   
     8    4   17 1   
     9    5   10 1   
    10    5   18 1   
    11    6   11 1   
    12    6   19 1   
    13    7   10 1   
    14    7   12 1   
    15    7   20 1   
    16    7   21 1   
    17    8    9 1   
    18    8   11 1   
    19    8   22 1   
    20    9   12 1   
    21   10   11 1   
@<TRIPOS>SUBSTRUCTURE
     1 3PF         1 TEMP              0 ****  ****    0 ROOT
