@<TRIPOS>MOLECULE
3PF
   22    23     1     0     0
SMALL
bcc


@<TRIPOS>ATOM
      1 CAA         0.0730    0.0510   -0.0540 c3        1 3PF      0.081300
      2 OAB         0.5820    0.1530    2.6770 o         1 3PF     -0.663500
      3 CAC         6.2570   -0.0210   -0.0220 ca        1 3PF     -0.162000
      4 CAD         6.3990    0.0120    1.3650 ca        1 3PF     -0.090000
      5 CAE         4.9850   -0.0470   -0.5900 ca        1 3PF     -0.087000
      6 CAF         5.2830    0.0210    2.1940 ca        1 3PF     -0.180000
      7 CAG         2.4900   -0.0910   -0.4040 c3        1 3PF      0.146300
      8 NAH         2.8480   -0.0290    2.4290 n         1 3PF     -0.468100
      9 CAI         1.5540    0.0940    1.8870 c         1 3PF      0.808500
     10 CAJ         3.8500   -0.0420    0.2200 ca        1 3PF     -0.150300
     11 CAK         3.9890   -0.0090    1.6280 ca        1 3PF      0.091600
     12 NAL         1.3940    0.1930    0.4960 n         1 3PF     -0.458800
     13 HAA        -0.6930    0.3360    0.7150 h1        1 3PF      0.049700
     14 HAAA       -0.1180   -1.0050   -0.3890 h1        1 3PF      0.049700
     15 HAAB       -0.0180    0.7340   -0.9410 h1        1 3PF      0.049700
     16 HAC         7.1470   -0.0260   -0.6680 ha        1 3PF      0.136000
     17 HAD         7.4040    0.0340    1.8120 ha        1 3PF      0.135000
     18 HAE         4.8690   -0.0700   -1.6840 ha        1 3PF      0.135000
     19 HAF         5.4110    0.0490    3.2860 ha        1 3PF      0.138000
     20 HAG         2.4380    0.6680   -1.2410 h1        1 3PF      0.048200
     21 HAGA        2.3480   -1.1140   -0.8680 h1        1 3PF      0.048200
     22 HNAH        2.9330    0.0520    3.4170 hn        1 3PF      0.343500
@<TRIPOS>BOND
     1    1   12 1   
     2    1   13 1   
     3    1   14 1   
     4    1   15 1   
     5    2    9 2   
     6    3    4 ar  
     7    3    5 ar  
     8    3   16 1   
     9    4    6 ar  
    10    4   17 1   
    11    5   10 ar  
    12    5   18 1   
    13    6   11 ar  
    14    6   19 1   
    15    7   10 1   
    16    7   12 1   
    17    7   20 1   
    18    7   21 1   
    19    8    9 1   
    20    8   11 1   
    21    8   22 1   
    22    9   12 1   
    23   10   11 ar  
@<TRIPOS>SUBSTRUCTURE
     1 3PF         1 TEMP              0 ****  ****    0 ROOT
