@<TRIPOS>MOLECULE
3PG
   15    13     1     0     0
SMALL
bcc


@<TRIPOS>ATOM
      1 C1         -1.5480   -1.4020    0.0480 c1        1 3PG      0.329000
      2 O1         -2.0330   -2.0850   -0.8920 o         1 3PG     -0.651000
      3 O2         -2.3060   -0.7170    0.7840 os        1 3PG     -0.614000
      4 C2         -0.0560   -1.4050    0.2940 c3        1 3PG     -0.035000
      5 O3          0.1910   -1.3780    1.6790 oh        1 3PG     -0.386000
      6 C3          0.5630   -0.1870   -0.3530 c3        1 3PG      0.047000
      7 O1P        -0.0520    0.9760    0.1510 os        1 3PG     -0.760000
      8 P           0.4390    2.3800   -0.3830 p5        1 3PG      1.563500
      9 O2P         0.2540    2.4420   -1.8800 o         1 3PG     -0.948500
     10 O3P        -0.3670    3.4770    0.2700 o         1 3PG     -0.948500
     11 O4P         1.9010    2.5620   -0.0490 o         1 3PG     -0.948500
     12 H2          0.3360   -2.2130   -0.0920 h1        1 3PG      0.049000
     13 HO3         0.7230   -2.0570    1.8980 ho        1 3PG      0.215000
     14 H31         0.4340   -0.2300   -1.3230 h1        1 3PG      0.043500
     15 H32         1.5210   -0.1620   -0.1520 h1        1 3PG      0.043500
@<TRIPOS>BOND
     1    1    2 1   
     2    1    4 1   
     3    4    5 1   
     4    4    6 1   
     5    4   12 1   
     6    5   13 1   
     7    6    7 1   
     8    6   14 1   
     9    6   15 1   
    10    7    8 1   
    11    8    9 1   
    12    8   10 1   
    13    8   11 1   
@<TRIPOS>SUBSTRUCTURE
     1 3PG         1 TEMP              0 ****  ****    0 ROOT
