@<TRIPOS>MOLECULE
3PG
   15    14     1     0     0
SMALL
bcc


@<TRIPOS>ATOM
      1 C1         -0.2760    0.1680   -2.9560 c         1 3PG      0.885600
      2 O1          0.0270   -0.9220   -3.5420 o         1 3PG     -0.900300
      3 O2         -1.0910    0.9880   -3.4860 o         1 3PG     -0.900300
      4 C2          0.4280    0.5200   -1.6310 c3        1 3PG      0.019100
      5 O3          1.7780    0.0660   -1.7160 oh        1 3PG     -0.639800
      6 C3         -0.2880   -0.0520   -0.3840 c3        1 3PG      0.205400
      7 O1P        -0.0500    0.7240    0.7310 os        1 3PG     -0.583200
      8 P          -0.0420   -0.0790    2.2560 p5        1 3PG      1.326900
      9 O2P         0.6400   -1.4020    2.0010 o         1 3PG     -0.950500
     10 O3P         0.7320    0.8860    3.1230 o         1 3PG     -0.950500
     11 O4P        -1.5080   -0.1930    2.6040 o         1 3PG     -0.950500
     12 H2          0.5150    1.6350   -1.5280 h1        1 3PG      0.049700
     13 HO3         1.7170   -0.8900   -1.8310 ho        1 3PG      0.391000
     14 H31        -1.3920   -0.0590   -0.6330 h1        1 3PG     -0.001800
     15 H32         0.0550   -1.1100   -0.2030 h1        1 3PG     -0.001800
@<TRIPOS>BOND
     1    1    2 1   
     2    1    3 1   
     3    1    4 1   
     4    4    5 1   
     5    4    6 1   
     6    4   12 1   
     7    5   13 1   
     8    6    7 1   
     9    6   14 1   
    10    6   15 1   
    11    7    8 1   
    12    8    9 1   
    13    8   10 1   
    14    8   11 1   
@<TRIPOS>SUBSTRUCTURE
     1 3PG         1 TEMP              0 ****  ****    0 ROOT
