@<TRIPOS>MOLECULE
3PG
   15    14     1     0     0
SMALL
bcc


@<TRIPOS>ATOM
      1 C1          0.0730   -0.3710   -0.0580 c         1 3PG      0.885600
      2 O1         -0.5980    0.0770    0.9280 o         1 3PG     -0.900300
      3 O2         -0.4760   -1.1010   -0.9420 o         1 3PG     -0.900300
      4 C2          1.5860   -0.0840   -0.1190 c3        1 3PG      0.019100
      5 O3          2.0950   -0.1250    1.2140 oh        1 3PG     -0.639800
      6 C3          1.9310    1.2510   -0.8190 c3        1 3PG      0.205400
      7 O1P         3.1830    1.2080   -1.3930 os        1 3PG     -0.583200
      8 P           4.0510    2.6930   -1.4950 p5        1 3PG      1.326900
      9 O2P         3.7530    3.4130   -0.2010 o         1 3PG     -0.950500
     10 O3P         5.4780    2.2220   -1.6530 o         1 3PG     -0.950500
     11 O4P         3.4720    3.3590   -2.7220 o         1 3PG     -0.950500
     12 H2          2.1140   -0.9240   -0.6430 h1        1 3PG      0.049700
     13 HO3         1.6290    0.5760    1.6850 ho        1 3PG      0.391000
     14 H31         1.1370    1.4030   -1.6110 h1        1 3PG     -0.001800
     15 H32         1.8730    2.0950   -0.0750 h1        1 3PG     -0.001800
@<TRIPOS>BOND
     1    1    2 1   
     2    1    3 1   
     3    1    4 1   
     4    4    5 1   
     5    4    6 1   
     6    4   12 1   
     7    5   13 1   
     8    6    7 1   
     9    6   14 1   
    10    6   15 1   
    11    7    8 1   
    12    8    9 1   
    13    8   10 1   
    14    8   11 1   
@<TRIPOS>SUBSTRUCTURE
     1 3PG         1 TEMP              0 ****  ****    0 ROOT
