@<TRIPOS>MOLECULE
3PH
  123   122     1     0     0
SMALL
bcc


@<TRIPOS>ATOM
      1 O13        -2.5420    1.3570   -3.0620 o         1 3PH     -0.913167
      2 P          -1.2730    0.5540   -3.0220 p5        1 3PH      1.321900
      3 O14        -1.3070   -0.8250   -2.4370 o         1 3PH     -0.913167
      4 O12        -0.3660    0.7410   -4.2170 o         1 3PH     -0.913167
      5 O11        -0.3450    1.4360   -1.8450 os        1 3PH     -0.566200
      6 C1          0.6950    0.7570   -1.2790 c3        1 3PH      0.225400
      7 C2          2.0880    1.3690   -1.5920 c3        1 3PH      0.075100
      8 O21         2.1370    2.6660   -0.9570 os        1 3PH     -0.394900
      9 C21         3.2360    3.0220   -0.2580 c         1 3PH      0.640100
     10 O22         4.1470    2.2160   -0.0240 o         1 3PH     -0.600000
     11 C22         3.1760    4.4600    0.1760 c3        1 3PH     -0.140400
     12 C23         3.9900    4.6930    1.4290 c3        1 3PH     -0.074400
     13 C24         4.0360    6.1650    1.7790 c3        1 3PH     -0.079400
     14 C25         4.8360    6.4040    3.0420 c3        1 3PH     -0.078400
     15 C26         4.8880    7.8760    3.3900 c3        1 3PH     -0.079400
     16 C27         5.6870    8.1150    4.6540 c3        1 3PH     -0.078400
     17 C28         5.7390    9.5870    5.0020 c3        1 3PH     -0.079400
     18 C29         6.5380    9.8260    6.2650 c3        1 3PH     -0.078400
     19 C2A         6.5900   11.2990    6.6130 c3        1 3PH     -0.079400
     20 C2B         7.3890   11.5380    7.8760 c3        1 3PH     -0.078400
     21 C2C         7.4410   13.0100    8.2240 c3        1 3PH     -0.079400
     22 C2D         8.2390   13.2490    9.4870 c3        1 3PH     -0.078400
     23 C2E         8.2920   14.7220    9.8340 c3        1 3PH     -0.079400
     24 C2F         9.0900   14.9610   11.0980 c3        1 3PH     -0.079400
     25 C2G         9.1430   16.4330   11.4450 c3        1 3PH     -0.079400
     26 C2H         9.9410   16.6740   12.7090 c3        1 3PH     -0.080400
     27 C2I         9.9960   18.1390   13.0580 c3        1 3PH     -0.092100
     28 C3          2.3360    1.5290   -3.0930 c3        1 3PH      0.066400
     29 O31         2.8330    2.8210   -3.4500 os        1 3PH     -0.448900
     30 C31         1.9420    3.8250   -3.7520 c         1 3PH      0.666100
     31 O32         2.5370    4.8210   -4.1980 o         1 3PH     -0.614000
     32 C32         0.4990    3.6470   -3.4770 c3        1 3PH     -0.239400
     33 C33        -0.3980    4.7690   -3.9380 c3        1 3PH     -0.036400
     34 C34        -1.8340    4.4210   -3.5830 c3        1 3PH     -0.122400
     35 C35        -2.7840    4.5670   -4.7530 c3        1 3PH     -0.046400
     36 C36        -4.0850    3.8510   -4.4490 c3        1 3PH     -0.115400
     37 C37        -4.9940    3.8070   -5.6570 c3        1 3PH     -0.064400
     38 C38        -6.2660    3.0470   -5.3490 c3        1 3PH     -0.082400
     39 C39        -7.1660    2.9530   -6.5630 c3        1 3PH     -0.076400
     40 C3A        -8.4350    2.1880   -6.2500 c3        1 3PH     -0.080400
     41 C3B        -9.3330    2.0870   -7.4650 c3        1 3PH     -0.078400
     42 C3C       -10.6000    1.3210   -7.1510 c3        1 3PH     -0.079400
     43 C3D       -11.4980    1.2180   -8.3650 c3        1 3PH     -0.078400
     44 C3E       -12.7650    0.4520   -8.0500 c3        1 3PH     -0.079400
     45 C3F       -13.6630    0.3480   -9.2640 c3        1 3PH     -0.078400
     46 C3G       -14.9300   -0.4180   -8.9480 c3        1 3PH     -0.079400
     47 C3H       -15.8290   -0.5220  -10.1610 c3        1 3PH     -0.080400
     48 C3I       -17.0910   -1.2840   -9.8520 c3        1 3PH     -0.091100
     49 H11         0.7230   -0.3150   -1.6350 h1        1 3PH      0.011700
     50 H12         0.5990    0.7740   -0.1530 h1        1 3PH      0.011700
     51 H2          2.8770    0.7070   -1.1410 h1        1 3PH      0.038700
     52 H221        2.1050    4.7520    0.3370 hc        1 3PH      0.080200
     53 H222        3.5720    5.0780   -0.6740 hc        1 3PH      0.080200
     54 H231        5.0300    4.3000    1.2760 hc        1 3PH      0.048700
     55 H232        3.5420    4.1150    2.2800 hc        1 3PH      0.048700
     56 H241        4.4930    6.7390    0.9300 hc        1 3PH      0.040200
     57 H242        2.9920    6.5530    1.9150 hc        1 3PH      0.040200
     58 H251        5.8780    6.0120    2.9060 hc        1 3PH      0.037700
     59 H252        4.3760    5.8320    3.8910 hc        1 3PH      0.037700
     60 H261        5.3470    8.4470    2.5410 hc        1 3PH      0.039200
     61 H262        3.8450    8.2670    3.5250 hc        1 3PH      0.039200
     62 H271        6.7290    7.7230    4.5190 hc        1 3PH      0.037200
     63 H272        5.2270    7.5440    5.5030 hc        1 3PH      0.037200
     64 H281        4.6960    9.9790    5.1360 hc        1 3PH      0.039200
     65 H282        6.1990   10.1580    4.1520 hc        1 3PH      0.039200
     66 H291        6.0770    9.2550    7.1140 hc        1 3PH      0.038200
     67 H292        7.5800    9.4340    6.1310 hc        1 3PH      0.038200
     68 H2A1        7.0500   11.8690    5.7630 hc        1 3PH      0.039200
     69 H2A2        5.5470   11.6900    6.7470 hc        1 3PH      0.039200
     70 H2B1        6.9280   10.9670    8.7260 hc        1 3PH      0.038200
     71 H2B2        8.4310   11.1460    7.7420 hc        1 3PH      0.038200
     72 H2C1        6.3980   13.4020    8.3570 hc        1 3PH      0.039200
     73 H2C2        7.9020   13.5800    7.3740 hc        1 3PH      0.039200
     74 H2D1        7.7790   12.6790   10.3360 hc        1 3PH      0.038700
     75 H2D2        9.2820   12.8570    9.3530 hc        1 3PH      0.038700
     76 H2E1        8.7530   15.2920    8.9850 hc        1 3PH      0.039200
     77 H2E2        7.2490   15.1140    9.9680 hc        1 3PH      0.039200
     78 H2F1        8.6290   14.3910   11.9470 hc        1 3PH      0.038700
     79 H2F2       10.1330   14.5680   10.9640 hc        1 3PH      0.038700
     80 H2G1        8.1000   16.8260   11.5790 hc        1 3PH      0.039200
     81 H2G2        9.6040   17.0030   10.5960 hc        1 3PH      0.039200
     82 H2H1        9.4790   16.1020   13.5560 hc        1 3PH      0.037700
     83 H2H2       10.9820   16.2790   12.5730 hc        1 3PH      0.037700
     84 H2I1       10.4750   18.7220   12.2350 hc        1 3PH      0.030700
     85 H2I2        8.9680   18.5440   13.2210 hc        1 3PH      0.030700
     86 H2I3       10.5880   18.2940   13.9920 hc        1 3PH      0.030700
     87 H31         1.3830    1.2530   -3.6620 h1        1 3PH      0.109200
     88 H32         3.1760    0.8510   -3.4060 h1        1 3PH      0.109200
     89 H321        0.1210    2.6630   -3.9360 hc        1 3PH      0.158200
     90 H322        0.3930    3.4930   -2.3610 hc        1 3PH      0.158200
     91 H331       -0.0950    5.7350   -3.4560 hc        1 3PH      0.009200
     92 H332       -0.2810    4.9120   -5.0440 hc        1 3PH      0.009200
     93 H341       -2.1810    5.0680   -2.7380 hc        1 3PH      0.085200
     94 H342       -1.8940    3.3350   -3.2230 hc        1 3PH      0.085200
     95 H351       -2.3220    4.1120   -5.6680 hc        1 3PH      0.007200
     96 H352       -2.9750    5.6490   -4.9790 hc        1 3PH      0.007200
     97 H361       -3.8340    2.8000   -4.0980 hc        1 3PH      0.087200
     98 H362       -4.6100    4.3670   -3.6030 hc        1 3PH      0.087200
     99 H371       -5.2480    4.8480   -5.9920 hc        1 3PH      0.017200
    100 H372       -4.4580    3.3070   -6.5070 hc        1 3PH      0.017200
    101 H381       -5.9990    2.0170   -4.9900 hc        1 3PH      0.048200
    102 H382       -6.8150    3.5560   -4.5130 hc        1 3PH      0.048200
    103 H391       -7.4270    3.9830   -6.9220 hc        1 3PH      0.029200
    104 H392       -6.6160    2.4420   -7.3960 hc        1 3PH      0.029200
    105 H3A1       -8.1700    1.1600   -5.8900 hc        1 3PH      0.040700
    106 H3A2       -8.9850    2.6990   -5.4170 hc        1 3PH      0.040700
    107 H3B1       -8.7810    1.5750   -8.2970 hc        1 3PH      0.034200
    108 H3B2       -9.5950    3.1160   -7.8260 hc        1 3PH      0.034200
    109 H3C1      -10.3360    0.2920   -6.7900 hc        1 3PH      0.039700
    110 H3C2      -11.1510    1.8310   -6.3170 hc        1 3PH      0.039700
    111 H3D1      -11.7610    2.2470   -8.7260 hc        1 3PH      0.036200
    112 H3D2      -10.9470    0.7060   -9.1970 hc        1 3PH      0.036200
    113 H3E1      -13.3160    0.9620   -7.2160 hc        1 3PH      0.039200
    114 H3E2      -12.5010   -0.5770   -7.6880 hc        1 3PH      0.039200
    115 H3F1      -13.9260    1.3770   -9.6250 hc        1 3PH      0.037200
    116 H3F2      -13.1120   -0.1630  -10.0960 hc        1 3PH      0.037200
    117 H3G1      -14.6660   -1.4470   -8.5870 hc        1 3PH      0.039200
    118 H3G2      -15.4810    0.0930   -8.1150 hc        1 3PH      0.039200
    119 H3H1      -15.2750   -1.0320  -10.9930 hc        1 3PH      0.036700
    120 H3H2      -16.0900    0.5080  -10.5220 hc        1 3PH      0.036700
    121 H3I1      -17.6690   -0.7780   -9.0410 hc        1 3PH      0.029367
    122 H3I2      -17.7400   -1.3490  -10.7590 hc        1 3PH      0.029367
    123 H3I3      -16.8520   -2.3220   -9.5140 hc        1 3PH      0.029367
@<TRIPOS>BOND
     1    1    2 1   
     2    2    3 1   
     3    2    4 1   
     4    2    5 1   
     5    5    6 1   
     6    6    7 1   
     7    6   49 1   
     8    6   50 1   
     9    7    8 1   
    10    7   28 1   
    11    7   51 1   
    12    8    9 1   
    13    9   10 2   
    14    9   11 1   
    15   11   12 1   
    16   11   52 1   
    17   11   53 1   
    18   12   13 1   
    19   12   54 1   
    20   12   55 1   
    21   13   14 1   
    22   13   56 1   
    23   13   57 1   
    24   14   15 1   
    25   14   58 1   
    26   14   59 1   
    27   15   16 1   
    28   15   60 1   
    29   15   61 1   
    30   16   17 1   
    31   16   62 1   
    32   16   63 1   
    33   17   18 1   
    34   17   64 1   
    35   17   65 1   
    36   18   19 1   
    37   18   66 1   
    38   18   67 1   
    39   19   20 1   
    40   19   68 1   
    41   19   69 1   
    42   20   21 1   
    43   20   70 1   
    44   20   71 1   
    45   21   22 1   
    46   21   72 1   
    47   21   73 1   
    48   22   23 1   
    49   22   74 1   
    50   22   75 1   
    51   23   24 1   
    52   23   76 1   
    53   23   77 1   
    54   24   25 1   
    55   24   78 1   
    56   24   79 1   
    57   25   26 1   
    58   25   80 1   
    59   25   81 1   
    60   26   27 1   
    61   26   82 1   
    62   26   83 1   
    63   27   84 1   
    64   27   85 1   
    65   27   86 1   
    66   28   29 1   
    67   28   87 1   
    68   28   88 1   
    69   29   30 1   
    70   30   31 2   
    71   30   32 1   
    72   32   33 1   
    73   32   89 1   
    74   32   90 1   
    75   33   34 1   
    76   33   91 1   
    77   33   92 1   
    78   34   35 1   
    79   34   93 1   
    80   34   94 1   
    81   35   36 1   
    82   35   95 1   
    83   35   96 1   
    84   36   37 1   
    85   36   97 1   
    86   36   98 1   
    87   37   38 1   
    88   37   99 1   
    89   37  100 1   
    90   38   39 1   
    91   38  101 1   
    92   38  102 1   
    93   39   40 1   
    94   39  103 1   
    95   39  104 1   
    96   40   41 1   
    97   40  105 1   
    98   40  106 1   
    99   41   42 1   
   100   41  107 1   
   101   41  108 1   
   102   42   43 1   
   103   42  109 1   
   104   42  110 1   
   105   43   44 1   
   106   43  111 1   
   107   43  112 1   
   108   44   45 1   
   109   44  113 1   
   110   44  114 1   
   111   45   46 1   
   112   45  115 1   
   113   45  116 1   
   114   46   47 1   
   115   46  117 1   
   116   46  118 1   
   117   47   48 1   
   118   47  119 1   
   119   47  120 1   
   120   48  121 1   
   121   48  122 1   
   122   48  123 1   
@<TRIPOS>SUBSTRUCTURE
     1 3PH         1 TEMP              0 ****  ****    0 ROOT
