@<TRIPOS>MOLECULE
3PH
  123   122     1     0     0
SMALL
bcc


@<TRIPOS>ATOM
      1 O13        -5.9460    3.3740    2.3260 o         1 3PH     -0.925833
      2 P          -4.4520    3.4860    2.4620 p5        1 3PH      1.316900
      3 O14        -4.0850    3.5620    3.9160 o         1 3PH     -0.925833
      4 O12        -3.9730    4.7400    1.7540 o         1 3PH     -0.925833
      5 O11        -3.7690    2.2200    1.8120 os        1 3PH     -0.564200
      6 C1         -4.0880    0.9200    2.3470 c3        1 3PH      0.224400
      7 C2         -3.3190   -0.1530    1.5790 c3        1 3PH      0.080100
      8 O21        -4.0960   -0.6080    0.5030 os        1 3PH     -0.433900
      9 C21        -3.5480   -0.2890   -0.7760 c         1 3PH      0.650100
     10 O22        -2.5480    0.4350   -0.8550 o         1 3PH     -0.601000
     11 C22        -4.2350   -0.7970   -2.0610 c3        1 3PH     -0.198400
     12 C23        -3.6160   -0.0980   -3.2830 c3        1 3PH     -0.058400
     13 C24        -4.5200   -0.3540   -4.5530 c3        1 3PH     -0.087400
     14 C25        -3.7290   -0.0120   -5.8200 c3        1 3PH     -0.073400
     15 C26        -4.6900   -0.0080   -7.0520 c3        1 3PH     -0.082400
     16 C27        -3.8480   -0.0580   -8.3720 c3        1 3PH     -0.076400
     17 C28        -4.7730    0.0960   -9.5760 c3        1 3PH     -0.080400
     18 C29        -4.0490   -0.3890  -10.8410 c3        1 3PH     -0.077400
     19 C2A        -4.9220   -0.0980  -12.0790 c3        1 3PH     -0.079400
     20 C2B        -4.4330   -0.9760  -13.2870 c3        1 3PH     -0.078400
     21 C2C        -5.2810   -0.6250  -14.5670 c3        1 3PH     -0.079400
     22 C2D        -5.1430   -1.7490  -15.6030 c3        1 3PH     -0.078400
     23 C2E        -5.7250   -1.2690  -16.9600 c3        1 3PH     -0.079400
     24 C2F        -5.8510   -2.4340  -17.8930 c3        1 3PH     -0.078400
     25 C2G        -6.2550   -1.9340  -19.2900 c3        1 3PH     -0.079400
     26 C2H        -6.7430   -3.1090  -20.1230 c3        1 3PH     -0.080400
     27 C2I        -6.9930   -2.6520  -21.5550 c3        1 3PH     -0.092100
     28 C3         -3.0060   -1.3160    2.5090 c3        1 3PH      0.107400
     29 O31        -1.7690   -1.0870    3.1530 os        1 3PH     -0.425900
     30 C31        -1.5880   -1.8520    4.3280 c         1 3PH      0.638100
     31 O32        -2.5290   -2.3920    4.8440 o         1 3PH     -0.584000
     32 C32        -0.1800   -2.0480    4.9090 c3        1 3PH     -0.137400
     33 C33        -0.2400   -1.9700    6.4470 c3        1 3PH     -0.077400
     34 C34         1.1700   -2.2770    7.0390 c3        1 3PH     -0.078400
     35 C35         1.3290   -1.5490    8.3930 c3        1 3PH     -0.078400
     36 C36         2.6570   -1.9740    9.0570 c3        1 3PH     -0.079400
     37 C37         3.1590   -0.8390    9.9810 c3        1 3PH     -0.079400
     38 C38         4.3730   -1.3480   10.8160 c3        1 3PH     -0.078400
     39 C39         4.8590   -0.2120   11.7720 c3        1 3PH     -0.079400
     40 C3A         6.2970   -0.5020   12.2310 c3        1 3PH     -0.079400
     41 C3B         6.7250    0.5590   13.2810 c3        1 3PH     -0.079400
     42 C3C         8.2480    0.7340   13.2490 c3        1 3PH     -0.079400
     43 C3D         8.6360    1.9440   14.1000 c3        1 3PH     -0.079400
     44 C3E        10.1290    2.2740   13.8820 c3        1 3PH     -0.079400
     45 C3F        10.4380    3.6600   14.4750 c3        1 3PH     -0.079400
     46 C3G        11.8340    4.1210   14.0040 c3        1 3PH     -0.079400
     47 C3H        12.0230    5.6240   14.3350 c3        1 3PH     -0.080400
     48 C3I        13.3390    6.1140   13.7360 c3        1 3PH     -0.092100
     49 H11        -5.0590    0.7560    2.2580 h1        1 3PH      0.005200
     50 H12        -3.8350    0.8860    3.3010 h1        1 3PH      0.005200
     51 H2         -2.4890    0.2240    1.2420 h1        1 3PH      0.076700
     52 H221       -5.1850   -0.5990   -2.0220 hc        1 3PH      0.117700
     53 H222       -4.1080   -1.7580   -2.1390 hc        1 3PH      0.117700
     54 H231       -2.7220   -0.4560   -3.4420 hc        1 3PH      0.033700
     55 H232       -3.5570    0.8740   -3.1110 hc        1 3PH      0.033700
     56 H241       -5.3230    0.2130   -4.5050 hc        1 3PH      0.057200
     57 H242       -4.7830   -1.2870   -4.5790 hc        1 3PH      0.057200
     58 H251       -3.3230    0.8710   -5.7210 hc        1 3PH      0.028700
     59 H252       -3.0420   -0.6660   -5.9530 hc        1 3PH      0.028700
     60 H261       -5.2800   -0.7950   -7.0100 hc        1 3PH      0.045700
     61 H262       -5.2390    0.8180   -7.0410 hc        1 3PH      0.045700
     62 H271       -3.3820   -0.9160   -8.4270 hc        1 3PH      0.032200
     63 H272       -3.1900    0.6730   -8.3680 hc        1 3PH      0.032200
     64 H281       -5.0180    1.0400   -9.6820 hc        1 3PH      0.042200
     65 H282       -5.5750   -0.4340   -9.4380 hc        1 3PH      0.042200
     66 H291       -3.8880   -1.3480  -10.7750 hc        1 3PH      0.034700
     67 H292       -3.1920    0.0820  -10.9270 hc        1 3PH      0.034700
     68 H2A1       -4.8490    0.8450  -12.3140 hc        1 3PH      0.040700
     69 H2A2       -5.8550   -0.3120  -11.8780 hc        1 3PH      0.040700
     70 H2B1       -3.4810   -0.7910  -13.4630 hc        1 3PH      0.036700
     71 H2B2       -4.5460   -1.9240  -13.0690 hc        1 3PH      0.036700
     72 H2C1       -6.2210   -0.5270  -14.3180 hc        1 3PH      0.039700
     73 H2C2       -4.9570    0.2150  -14.9540 hc        1 3PH      0.039700
     74 H2D1       -4.2000   -1.9750  -15.7160 hc        1 3PH      0.037700
     75 H2D2       -5.6350   -2.5420  -15.2960 hc        1 3PH      0.037700
     76 H2E1       -6.6080   -0.8730  -16.8130 hc        1 3PH      0.039700
     77 H2E2       -5.1270   -0.5970  -17.3530 hc        1 3PH      0.039700
     78 H2F1       -6.5380   -3.0500  -17.5550 hc        1 3PH      0.038200
     79 H2F2       -4.9970   -2.8990  -17.9480 hc        1 3PH      0.038200
     80 H2G1       -6.9720   -1.2730  -19.2050 hc        1 3PH      0.039200
     81 H2G2       -5.4820   -1.5230  -19.7260 hc        1 3PH      0.039200
     82 H2H1       -7.5760   -3.4550  -19.7410 hc        1 3PH      0.037200
     83 H2H2       -6.0620   -3.8160  -20.1200 hc        1 3PH      0.037200
     84 H2I1       -7.2840   -3.4190  -22.0970 hc        1 3PH      0.030367
     85 H2I2       -7.6890   -1.9640  -21.5620 hc        1 3PH      0.030367
     86 H2I3       -6.1620   -2.2810  -21.9310 hc        1 3PH      0.030367
     87 H31        -3.7170   -1.3950    3.1840 h1        1 3PH      0.122700
     88 H32        -2.9530   -2.1560    1.9820 h1        1 3PH      0.122700
     89 H321        0.4220   -1.3360    4.5640 hc        1 3PH      0.069200
     90 H322        0.1630   -2.9190    4.6410 hc        1 3PH      0.069200
     91 H331       -0.5220   -1.0640    6.7210 hc        1 3PH      0.053700
     92 H332       -0.8860   -2.6290    6.7840 hc        1 3PH      0.053700
     93 H341        1.2650   -3.2360    7.1730 hc        1 3PH      0.036700
     94 H342        1.8680   -1.9610    6.4110 hc        1 3PH      0.036700
     95 H351        1.3330   -0.5870    8.2460 hc        1 3PH      0.040200
     96 H352        0.5780   -1.7870    8.9830 hc        1 3PH      0.040200
     97 H361        2.5120   -2.7850    9.5840 hc        1 3PH      0.037200
     98 H362        3.3250   -2.1490    8.3650 hc        1 3PH      0.037200
     99 H371        3.4330   -0.0760    9.4400 hc        1 3PH      0.039200
    100 H372        2.4360   -0.5680   10.5870 hc        1 3PH      0.039200
    101 H381        5.1050   -1.6020   10.2090 hc        1 3PH      0.038200
    102 H382        4.0990   -2.1340   11.3500 hc        1 3PH      0.038200
    103 H391        4.2700   -0.1700   12.5550 hc        1 3PH      0.039200
    104 H392        4.8350    0.6500   11.2960 hc        1 3PH      0.039200
    105 H3A1        6.3380   -1.3920   12.6320 hc        1 3PH      0.038700
    106 H3A2        6.9040   -0.4620   11.4550 hc        1 3PH      0.038700
    107 H3B1        6.4490    0.2620   14.1760 hc        1 3PH      0.039200
    108 H3B2        6.2910    1.4200   13.0730 hc        1 3PH      0.039200
    109 H3C1        8.5420    0.8750   12.3270 hc        1 3PH      0.038700
    110 H3C2        8.6740   -0.0630   13.6060 hc        1 3PH      0.038700
    111 H3D1        8.4820    1.7400   15.0490 hc        1 3PH      0.039200
    112 H3D2        8.0900    2.7140   13.8400 hc        1 3PH      0.039200
    113 H3E1       10.3240    2.2780   12.9270 hc        1 3PH      0.039200
    114 H3E2       10.6830    1.5950   14.3270 hc        1 3PH      0.039200
    115 H3F1       10.4250    3.6070   15.4470 hc        1 3PH      0.038700
    116 H3F2        9.7680    4.2970   14.1760 hc        1 3PH      0.038700
    117 H3G1       12.5260    3.5940   14.4660 hc        1 3PH      0.038700
    118 H3G2       11.9130    3.9880   13.0370 hc        1 3PH      0.038700
    119 H3H1       11.2800    6.1380   13.9560 hc        1 3PH      0.037700
    120 H3H2       12.0410    5.7450   15.3060 hc        1 3PH      0.037700
    121 H3I1       13.3650    5.8940   12.7850 hc        1 3PH      0.031033
    122 H3I2       13.4100    7.0940   13.8500 hc        1 3PH      0.031033
    123 H3I3       14.0870    5.6780   14.1930 hc        1 3PH      0.031033
@<TRIPOS>BOND
     1    1    2 1   
     2    2    3 1   
     3    2    4 1   
     4    2    5 1   
     5    5    6 1   
     6    6    7 1   
     7    6   49 1   
     8    6   50 1   
     9    7    8 1   
    10    7   28 1   
    11    7   51 1   
    12    8    9 1   
    13    9   10 2   
    14    9   11 1   
    15   11   12 1   
    16   11   52 1   
    17   11   53 1   
    18   12   13 1   
    19   12   54 1   
    20   12   55 1   
    21   13   14 1   
    22   13   56 1   
    23   13   57 1   
    24   14   15 1   
    25   14   58 1   
    26   14   59 1   
    27   15   16 1   
    28   15   60 1   
    29   15   61 1   
    30   16   17 1   
    31   16   62 1   
    32   16   63 1   
    33   17   18 1   
    34   17   64 1   
    35   17   65 1   
    36   18   19 1   
    37   18   66 1   
    38   18   67 1   
    39   19   20 1   
    40   19   68 1   
    41   19   69 1   
    42   20   21 1   
    43   20   70 1   
    44   20   71 1   
    45   21   22 1   
    46   21   72 1   
    47   21   73 1   
    48   22   23 1   
    49   22   74 1   
    50   22   75 1   
    51   23   24 1   
    52   23   76 1   
    53   23   77 1   
    54   24   25 1   
    55   24   78 1   
    56   24   79 1   
    57   25   26 1   
    58   25   80 1   
    59   25   81 1   
    60   26   27 1   
    61   26   82 1   
    62   26   83 1   
    63   27   84 1   
    64   27   85 1   
    65   27   86 1   
    66   28   29 1   
    67   28   87 1   
    68   28   88 1   
    69   29   30 1   
    70   30   31 2   
    71   30   32 1   
    72   32   33 1   
    73   32   89 1   
    74   32   90 1   
    75   33   34 1   
    76   33   91 1   
    77   33   92 1   
    78   34   35 1   
    79   34   93 1   
    80   34   94 1   
    81   35   36 1   
    82   35   95 1   
    83   35   96 1   
    84   36   37 1   
    85   36   97 1   
    86   36   98 1   
    87   37   38 1   
    88   37   99 1   
    89   37  100 1   
    90   38   39 1   
    91   38  101 1   
    92   38  102 1   
    93   39   40 1   
    94   39  103 1   
    95   39  104 1   
    96   40   41 1   
    97   40  105 1   
    98   40  106 1   
    99   41   42 1   
   100   41  107 1   
   101   41  108 1   
   102   42   43 1   
   103   42  109 1   
   104   42  110 1   
   105   43   44 1   
   106   43  111 1   
   107   43  112 1   
   108   44   45 1   
   109   44  113 1   
   110   44  114 1   
   111   45   46 1   
   112   45  115 1   
   113   45  116 1   
   114   46   47 1   
   115   46  117 1   
   116   46  118 1   
   117   47   48 1   
   118   47  119 1   
   119   47  120 1   
   120   48  121 1   
   121   48  122 1   
   122   48  123 1   
@<TRIPOS>SUBSTRUCTURE
     1 3PH         1 TEMP              0 ****  ****    0 ROOT
