@<TRIPOS>MOLECULE
3PH
  123   122     1     0     0
SMALL
bcc


@<TRIPOS>ATOM
      1 O13         4.8740   -1.5740   -0.7540 o         1 3PH     -0.913167
      2 P           4.3220   -2.9720   -0.7450 p5        1 3PH      1.321900
      3 O14         4.5750   -3.8580   -1.9260 o         1 3PH     -0.913167
      4 O12         4.3410   -3.6520    0.6050 o         1 3PH     -0.913167
      5 O11         2.6150   -2.6700   -0.8650 os        1 3PH     -0.566200
      6 C1          1.8530   -3.7220   -1.2820 c3        1 3PH      0.225400
      7 C2          0.8330   -4.2180   -0.2190 c3        1 3PH      0.075100
      8 O21        -0.1270   -3.1560   -0.0210 os        1 3PH     -0.394900
      9 C21        -1.4430   -3.4510    0.0190 c         1 3PH      0.640100
     10 O22        -1.8650   -4.5830   -0.2530 o         1 3PH     -0.600000
     11 C22        -2.2690   -2.2550    0.4070 c3        1 3PH     -0.140400
     12 C23        -3.6730   -2.3490   -0.1460 c3        1 3PH     -0.074400
     13 C24        -4.5330   -1.2140    0.3650 c3        1 3PH     -0.079400
     14 C25        -5.9360   -1.2930   -0.1980 c3        1 3PH     -0.078400
     15 C26        -6.8000   -0.1610    0.3160 c3        1 3PH     -0.079400
     16 C27        -8.2030   -0.2400   -0.2470 c3        1 3PH     -0.078400
     17 C28        -9.0670    0.8920    0.2670 c3        1 3PH     -0.079400
     18 C29       -10.4700    0.8130   -0.2960 c3        1 3PH     -0.078400
     19 C2A       -11.3340    1.9450    0.2180 c3        1 3PH     -0.079400
     20 C2B       -12.7370    1.8660   -0.3440 c3        1 3PH     -0.078400
     21 C2C       -13.6000    2.9980    0.1700 c3        1 3PH     -0.079400
     22 C2D       -15.0030    2.9190   -0.3920 c3        1 3PH     -0.078400
     23 C2E       -15.8660    4.0510    0.1220 c3        1 3PH     -0.079400
     24 C2F       -17.2690    3.9730   -0.4410 c3        1 3PH     -0.079400
     25 C2G       -18.1320    5.1040    0.0740 c3        1 3PH     -0.079400
     26 C2H       -19.5360    5.0270   -0.4880 c3        1 3PH     -0.080400
     27 C2I       -20.3990    6.1520    0.0220 c3        1 3PH     -0.092100
     28 C3          1.4960   -4.5590    1.1160 c3        1 3PH      0.066400
     29 O31         0.8260   -3.9880    2.2430 os        1 3PH     -0.448900
     30 C31         1.1920   -2.7340    2.6770 c         1 3PH      0.666100
     31 O32         0.6340   -2.4620    3.7540 o         1 3PH     -0.614000
     32 C32         2.0850   -1.8920    1.8510 c3        1 3PH     -0.239400
     33 C33         2.5010   -0.5790    2.4680 c3        1 3PH     -0.036400
     34 C34         3.4140    0.1490    1.4960 c3        1 3PH     -0.122400
     35 C35         4.7010    0.6250    2.1360 c3        1 3PH     -0.046400
     36 C36         5.7070    0.9820    1.0610 c3        1 3PH     -0.115400
     37 C37         7.0680    1.2820    1.6470 c3        1 3PH     -0.064400
     38 C38         8.0710    1.5900    0.5560 c3        1 3PH     -0.082400
     39 C39         9.4510    1.8460    1.1250 c3        1 3PH     -0.076400
     40 C3A        10.4510    2.1480    0.0290 c3        1 3PH     -0.080400
     41 C3B        11.8330    2.3970    0.5950 c3        1 3PH     -0.078400
     42 C3C        12.8310    2.6980   -0.5030 c3        1 3PH     -0.079400
     43 C3D        14.2140    2.9470    0.0620 c3        1 3PH     -0.078400
     44 C3E        15.2120    3.2470   -1.0360 c3        1 3PH     -0.079400
     45 C3F        16.5940    3.4950   -0.4710 c3        1 3PH     -0.078400
     46 C3G        17.5910    3.7960   -1.5700 c3        1 3PH     -0.079400
     47 C3H        18.9750    4.0440   -1.0070 c3        1 3PH     -0.080400
     48 C3I        19.9710    4.3430   -2.0970 c3        1 3PH     -0.091100
     49 H11         1.2370   -3.4200   -2.1800 h1        1 3PH      0.011700
     50 H12         2.4980   -4.6090   -1.5520 h1        1 3PH      0.011700
     51 H2          0.3050   -5.1220   -0.6280 h1        1 3PH      0.038700
     52 H221       -2.2860   -2.2180    1.5300 hc        1 3PH      0.080200
     53 H222       -1.7600   -1.3230    0.0450 hc        1 3PH      0.080200
     54 H231       -3.6360   -2.3250   -1.2660 hc        1 3PH      0.048700
     55 H232       -4.1220   -3.3360    0.1460 hc        1 3PH      0.048700
     56 H241       -4.5740   -1.2480    1.4860 hc        1 3PH      0.040200
     57 H242       -4.0680   -0.2330    0.0810 hc        1 3PH      0.040200
     58 H251       -5.8940   -1.2560   -1.3180 hc        1 3PH      0.037700
     59 H252       -6.3980   -2.2760    0.0830 hc        1 3PH      0.037700
     60 H261       -6.8410   -0.1990    1.4360 hc        1 3PH      0.039200
     61 H262       -6.3370    0.8210    0.0350 hc        1 3PH      0.039200
     62 H271       -8.1610   -0.2020   -1.3680 hc        1 3PH      0.037200
     63 H272       -8.6650   -1.2230    0.0330 hc        1 3PH      0.037200
     64 H281       -9.1080    0.8540    1.3870 hc        1 3PH      0.039200
     65 H282       -8.6040    1.8750   -0.0130 hc        1 3PH      0.039200
     66 H291      -10.4280    0.8510   -1.4160 hc        1 3PH      0.038200
     67 H292      -10.9320   -0.1700   -0.0160 hc        1 3PH      0.038200
     68 H2A1      -11.3750    1.9070    1.3390 hc        1 3PH      0.039200
     69 H2A2      -10.8700    2.9280   -0.0610 hc        1 3PH      0.039200
     70 H2B1      -12.6950    1.9040   -1.4650 hc        1 3PH      0.038200
     71 H2B2      -13.1990    0.8830   -0.0640 hc        1 3PH      0.038200
     72 H2C1      -13.6410    2.9600    1.2910 hc        1 3PH      0.039200
     73 H2C2      -13.1370    3.9810   -0.1100 hc        1 3PH      0.039200
     74 H2D1      -14.9610    2.9580   -1.5130 hc        1 3PH      0.038700
     75 H2D2      -15.4660    1.9360   -0.1130 hc        1 3PH      0.038700
     76 H2E1      -15.9080    4.0130    1.2430 hc        1 3PH      0.039200
     77 H2E2      -15.4030    5.0340   -0.1580 hc        1 3PH      0.039200
     78 H2F1      -17.2270    4.0110   -1.5610 hc        1 3PH      0.038700
     79 H2F2      -17.7320    2.9900   -0.1610 hc        1 3PH      0.038700
     80 H2G1      -18.1740    5.0660    1.1950 hc        1 3PH      0.039200
     81 H2G2      -17.6700    6.0880   -0.2050 hc        1 3PH      0.039200
     82 H2H1      -19.4920    5.0640   -1.6090 hc        1 3PH      0.037700
     83 H2H2      -19.9960    4.0430   -0.2090 hc        1 3PH      0.037700
     84 H2I1      -20.4750    6.1170    1.1360 hc        1 3PH      0.030700
     85 H2I2      -19.9690    7.1410   -0.2680 hc        1 3PH      0.030700
     86 H2I3      -21.4280    6.0760   -0.4040 hc        1 3PH      0.030700
     87 H31         1.3950   -5.6630    1.3100 h1        1 3PH      0.109200
     88 H32         2.6010   -4.2730    1.0710 h1        1 3PH      0.109200
     89 H321        3.0320   -2.4750    1.5600 hc        1 3PH      0.158200
     90 H322        1.5550   -1.7130    0.8680 hc        1 3PH      0.158200
     91 H331        1.5990    0.0440    2.7040 hc        1 3PH      0.009200
     92 H332        3.0220   -0.7700    3.4420 hc        1 3PH      0.009200
     93 H341        3.6960   -0.5480    0.6300 hc        1 3PH      0.085200
     94 H342        2.8730    1.0230    1.0520 hc        1 3PH      0.085200
     95 H351        4.5110    1.5060    2.8050 hc        1 3PH      0.007200
     96 H352        5.1240   -0.1940    2.7760 hc        1 3PH      0.007200
     97 H361        5.7680    0.1120    0.3330 hc        1 3PH      0.087200
     98 H362        5.3420    1.8710    0.4850 hc        1 3PH      0.087200
     99 H371        7.0040    2.1500    2.3560 hc        1 3PH      0.017200
    100 H372        7.4210    0.3970    2.2390 hc        1 3PH      0.017200
    101 H381        8.1080    0.7260   -0.1610 hc        1 3PH      0.048200
    102 H382        7.7320    2.4870   -0.0250 hc        1 3PH      0.048200
    103 H391        9.4110    2.7060    1.8440 hc        1 3PH      0.029200
    104 H392        9.7890    0.9460    1.7030 hc        1 3PH      0.029200
    105 H3A1       10.4870    1.2880   -0.6900 hc        1 3PH      0.040700
    106 H3A2       10.1130    3.0480   -0.5500 hc        1 3PH      0.040700
    107 H3B1       11.7960    3.2570    1.3150 hc        1 3PH      0.034200
    108 H3B2       12.1690    1.4960    1.1720 hc        1 3PH      0.034200
    109 H3C1       12.8680    1.8380   -1.2220 hc        1 3PH      0.039700
    110 H3C2       12.4940    3.5980   -1.0810 hc        1 3PH      0.039700
    111 H3D1       14.1770    3.8060    0.7820 hc        1 3PH      0.036200
    112 H3D2       14.5500    2.0460    0.6400 hc        1 3PH      0.036200
    113 H3E1       15.2480    2.3870   -1.7550 hc        1 3PH      0.039200
    114 H3E2       14.8740    4.1470   -1.6150 hc        1 3PH      0.039200
    115 H3F1       16.5570    4.3550    0.2480 hc        1 3PH      0.037200
    116 H3F2       16.9310    2.5950    0.1070 hc        1 3PH      0.037200
    117 H3G1       17.6280    2.9360   -2.2890 hc        1 3PH      0.039200
    118 H3G2       17.2540    4.6960   -2.1480 hc        1 3PH      0.039200
    119 H3H1       18.9350    4.9030   -0.2860 hc        1 3PH      0.036700
    120 H3H2       19.3090    3.1430   -0.4270 hc        1 3PH      0.036700
    121 H3I1       20.0420    3.4880   -2.8110 hc        1 3PH      0.029367
    122 H3I2       19.6670    5.2530   -2.6700 hc        1 3PH      0.029367
    123 H3I3       20.9830    4.5230   -1.6610 hc        1 3PH      0.029367
@<TRIPOS>BOND
     1    1    2 1   
     2    2    3 1   
     3    2    4 1   
     4    2    5 1   
     5    5    6 1   
     6    6    7 1   
     7    6   49 1   
     8    6   50 1   
     9    7    8 1   
    10    7   28 1   
    11    7   51 1   
    12    8    9 1   
    13    9   10 2   
    14    9   11 1   
    15   11   12 1   
    16   11   52 1   
    17   11   53 1   
    18   12   13 1   
    19   12   54 1   
    20   12   55 1   
    21   13   14 1   
    22   13   56 1   
    23   13   57 1   
    24   14   15 1   
    25   14   58 1   
    26   14   59 1   
    27   15   16 1   
    28   15   60 1   
    29   15   61 1   
    30   16   17 1   
    31   16   62 1   
    32   16   63 1   
    33   17   18 1   
    34   17   64 1   
    35   17   65 1   
    36   18   19 1   
    37   18   66 1   
    38   18   67 1   
    39   19   20 1   
    40   19   68 1   
    41   19   69 1   
    42   20   21 1   
    43   20   70 1   
    44   20   71 1   
    45   21   22 1   
    46   21   72 1   
    47   21   73 1   
    48   22   23 1   
    49   22   74 1   
    50   22   75 1   
    51   23   24 1   
    52   23   76 1   
    53   23   77 1   
    54   24   25 1   
    55   24   78 1   
    56   24   79 1   
    57   25   26 1   
    58   25   80 1   
    59   25   81 1   
    60   26   27 1   
    61   26   82 1   
    62   26   83 1   
    63   27   84 1   
    64   27   85 1   
    65   27   86 1   
    66   28   29 1   
    67   28   87 1   
    68   28   88 1   
    69   29   30 1   
    70   30   31 2   
    71   30   32 1   
    72   32   33 1   
    73   32   89 1   
    74   32   90 1   
    75   33   34 1   
    76   33   91 1   
    77   33   92 1   
    78   34   35 1   
    79   34   93 1   
    80   34   94 1   
    81   35   36 1   
    82   35   95 1   
    83   35   96 1   
    84   36   37 1   
    85   36   97 1   
    86   36   98 1   
    87   37   38 1   
    88   37   99 1   
    89   37  100 1   
    90   38   39 1   
    91   38  101 1   
    92   38  102 1   
    93   39   40 1   
    94   39  103 1   
    95   39  104 1   
    96   40   41 1   
    97   40  105 1   
    98   40  106 1   
    99   41   42 1   
   100   41  107 1   
   101   41  108 1   
   102   42   43 1   
   103   42  109 1   
   104   42  110 1   
   105   43   44 1   
   106   43  111 1   
   107   43  112 1   
   108   44   45 1   
   109   44  113 1   
   110   44  114 1   
   111   45   46 1   
   112   45  115 1   
   113   45  116 1   
   114   46   47 1   
   115   46  117 1   
   116   46  118 1   
   117   47   48 1   
   118   47  119 1   
   119   47  120 1   
   120   48  121 1   
   121   48  122 1   
   122   48  123 1   
@<TRIPOS>SUBSTRUCTURE
     1 3PH         1 TEMP              0 ****  ****    0 ROOT
