@<TRIPOS>MOLECULE
3PH
  123   122     1     0     0
SMALL
bcc


@<TRIPOS>ATOM
      1 O13        -2.5740    1.3870   -3.0700 o         1 3PH     -0.913167
      2 P          -1.2960    0.5980   -3.0460 p5        1 3PH      1.321900
      3 O14        -1.3140   -0.7910   -2.4830 o         1 3PH     -0.913167
      4 O12        -0.3940    0.8140   -4.2400 o         1 3PH     -0.913167
      5 O11        -0.3740    1.4690   -1.8570 os        1 3PH     -0.566200
      6 C1          0.6730    0.7920   -1.3040 c3        1 3PH      0.225400
      7 C2          2.0600    1.4230   -1.6110 c3        1 3PH      0.075100
      8 O21         2.0980    2.7090   -0.9530 os        1 3PH     -0.394900
      9 C21         3.1980    3.0640   -0.2560 c         1 3PH      0.640100
     10 O22         4.1190    2.2640   -0.0400 o         1 3PH     -0.600000
     11 C22         3.1270    4.4950    0.2020 c3        1 3PH     -0.140400
     12 C23         3.9630    4.7220    1.4410 c3        1 3PH     -0.074400
     13 C24         3.9970    6.1890    1.8110 c3        1 3PH     -0.079400
     14 C25         4.8220    6.4210    3.0590 c3        1 3PH     -0.078400
     15 C26         4.8630    7.8880    3.4270 c3        1 3PH     -0.079400
     16 C27         5.6900    8.1210    4.6740 c3        1 3PH     -0.078400
     17 C28         5.7320    9.5880    5.0410 c3        1 3PH     -0.079400
     18 C29         6.5600    9.8210    6.2870 c3        1 3PH     -0.078400
     19 C2A         6.6030   11.2890    6.6530 c3        1 3PH     -0.079400
     20 C2B         7.4320   11.5210    7.8980 c3        1 3PH     -0.078400
     21 C2C         7.4760   12.9890    8.2640 c3        1 3PH     -0.079400
     22 C2D         8.3060   13.2220    9.5080 c3        1 3PH     -0.078400
     23 C2E         8.3510   14.6900    9.8730 c3        1 3PH     -0.079400
     24 C2F         9.1810   14.9230   11.1170 c3        1 3PH     -0.079400
     25 C2G         9.2260   16.3910   11.4820 c3        1 3PH     -0.079400
     26 C2H        10.0560   16.6250   12.7260 c3        1 3PH     -0.080400
     27 C2I        10.1040   18.0860   13.0920 c3        1 3PH     -0.092100
     28 C3          2.3010    1.6110   -3.1090 c3        1 3PH      0.066400
     29 O31         2.7840    2.9140   -3.4440 os        1 3PH     -0.448900
     30 C31         1.8810    3.9140   -3.7270 c         1 3PH      0.666100
     31 O32         2.4660    4.9240   -4.1570 o         1 3PH     -0.614000
     32 C32         0.4420    3.7160   -3.4520 c3        1 3PH     -0.239400
     33 C33        -0.4680    4.8370   -3.8930 c3        1 3PH     -0.036400
     34 C34        -1.9010    4.4670   -3.5470 c3        1 3PH     -0.122400
     35 C35        -2.8490    4.6160   -4.7170 c3        1 3PH     -0.046400
     36 C36        -4.1410    3.8810   -4.4270 c3        1 3PH     -0.115400
     37 C37        -5.0450    3.8400   -5.6390 c3        1 3PH     -0.064400
     38 C38        -6.3090    3.0590   -5.3460 c3        1 3PH     -0.082400
     39 C39        -7.2020    2.9670   -6.5650 c3        1 3PH     -0.076400
     40 C3A        -8.4600    2.1800   -6.2680 c3        1 3PH     -0.080400
     41 C3B        -9.3510    2.0800   -7.4880 c3        1 3PH     -0.078400
     42 C3C       -10.6070    1.2900   -7.1910 c3        1 3PH     -0.079400
     43 C3D       -11.4970    1.1870   -8.4110 c3        1 3PH     -0.078400
     44 C3E       -12.7520    0.3960   -8.1120 c3        1 3PH     -0.079400
     45 C3F       -13.6420    0.2930   -9.3320 c3        1 3PH     -0.078400
     46 C3G       -14.8970   -0.4990   -9.0340 c3        1 3PH     -0.079400
     47 C3H       -15.7870   -0.6030  -10.2540 c3        1 3PH     -0.080400
     48 C3I       -17.0380   -1.3910   -9.9610 c3        1 3PH     -0.091100
     49 H11         0.5800    0.7900   -0.1770 h1        1 3PH      0.011700
     50 H12         0.7110   -0.2740   -1.6770 h1        1 3PH      0.011700
     51 H2          2.8560    0.7600   -1.1740 h1        1 3PH      0.038700
     52 H221        3.4950    5.1310   -0.6470 hc        1 3PH      0.079700
     53 H222        2.0550    4.7690    0.3900 hc        1 3PH      0.079700
     54 H231        3.5420    4.1250    2.2920 hc        1 3PH      0.049200
     55 H232        5.0050    4.3450    1.2600 hc        1 3PH      0.049200
     56 H241        4.4260    6.7820    0.9600 hc        1 3PH      0.040200
     57 H242        2.9510    6.5590    1.9770 hc        1 3PH      0.040200
     58 H251        5.8660    6.0450    2.8930 hc        1 3PH      0.037700
     59 H252        4.3900    5.8310    3.9090 hc        1 3PH      0.037700
     60 H261        5.2940    8.4770    2.5750 hc        1 3PH      0.039200
     61 H262        3.8190    8.2630    3.5930 hc        1 3PH      0.039200
     62 H271        6.7340    7.7440    4.5080 hc        1 3PH      0.037200
     63 H272        5.2580    7.5320    5.5260 hc        1 3PH      0.037200
     64 H281        4.6880    9.9640    5.2080 hc        1 3PH      0.039200
     65 H282        6.1620   10.1770    4.1880 hc        1 3PH      0.039200
     66 H291        7.6030    9.4440    6.1200 hc        1 3PH      0.038200
     67 H292        6.1290    9.2330    7.1390 hc        1 3PH      0.038200
     68 H2A1        7.0330   11.8770    5.8000 hc        1 3PH      0.039200
     69 H2A2        5.5590   11.6650    6.8210 hc        1 3PH      0.039200
     70 H2B1        7.0020   10.9340    8.7510 hc        1 3PH      0.038700
     71 H2B2        8.4750   11.1440    7.7310 hc        1 3PH      0.038700
     72 H2C1        7.9060   13.5770    7.4100 hc        1 3PH      0.039200
     73 H2C2        6.4330   13.3660    8.4320 hc        1 3PH      0.039200
     74 H2D1        9.3490   12.8440    9.3400 hc        1 3PH      0.038700
     75 H2D2        7.8760   12.6350   10.3620 hc        1 3PH      0.038700
     76 H2E1        8.7800   15.2770    9.0190 hc        1 3PH      0.039200
     77 H2E2        7.3070   15.0670   10.0410 hc        1 3PH      0.039200
     78 H2F1        8.7510   14.3360   11.9710 hc        1 3PH      0.038700
     79 H2F2       10.2240   14.5450   10.9480 hc        1 3PH      0.038700
     80 H2G1        8.1830   16.7690   11.6500 hc        1 3PH      0.039200
     81 H2G2        9.6550   16.9780   10.6270 hc        1 3PH      0.039200
     82 H2H1       11.0990   16.2450   12.5560 hc        1 3PH      0.037700
     83 H2H2        9.6260   16.0360   13.5780 hc        1 3PH      0.037700
     84 H2I1       10.5530   18.6860   12.2640 hc        1 3PH      0.030700
     85 H2I2        9.0760   18.4770   13.2900 hc        1 3PH      0.030700
     86 H2I3       10.7210   18.2360   14.0110 hc        1 3PH      0.030700
     87 H31         1.3500    1.3350   -3.6800 h1        1 3PH      0.109200
     88 H32         3.1480    0.9480   -3.4360 h1        1 3PH      0.109200
     89 H321        0.0720    2.7370   -3.9280 hc        1 3PH      0.158200
     90 H322        0.3390    3.5410   -2.3400 hc        1 3PH      0.158200
     91 H331       -0.3510    5.0040   -4.9950 hc        1 3PH      0.009200
     92 H332       -0.1750    5.7960   -3.3910 hc        1 3PH      0.009200
     93 H341       -2.2580    5.1010   -2.6950 hc        1 3PH      0.085200
     94 H342       -1.9490    3.3770   -3.1990 hc        1 3PH      0.085200
     95 H351       -3.0520    5.6980   -4.9320 hc        1 3PH      0.007200
     96 H352       -2.3770    4.1770   -5.6370 hc        1 3PH      0.007200
     97 H361       -3.8790    2.8280   -4.0880 hc        1 3PH      0.087200
     98 H362       -4.6760    4.3800   -3.5780 hc        1 3PH      0.087200
     99 H371       -4.5000    3.3590   -6.4930 hc        1 3PH      0.017200
    100 H372       -5.3120    4.8810   -5.9610 hc        1 3PH      0.017200
    101 H381       -6.0290    2.0280   -4.9990 hc        1 3PH      0.048200
    102 H382       -6.8680    3.5500   -4.5060 hc        1 3PH      0.048200
    103 H391       -6.6400    2.4760   -7.4030 hc        1 3PH      0.029200
    104 H392       -7.4760    3.9980   -6.9120 hc        1 3PH      0.029200
    105 H3A1       -9.0220    2.6720   -5.4310 hc        1 3PH      0.040700
    106 H3A2       -8.1810    1.1510   -5.9190 hc        1 3PH      0.040700
    107 H3B1       -8.7870    1.5880   -8.3240 hc        1 3PH      0.034200
    108 H3B2       -9.6280    3.1090   -7.8380 hc        1 3PH      0.034200
    109 H3C1      -11.1700    1.7810   -6.3540 hc        1 3PH      0.039700
    110 H3C2      -10.3280    0.2610   -6.8410 hc        1 3PH      0.039700
    111 H3D1      -11.7750    2.2160   -8.7610 hc        1 3PH      0.036200
    112 H3D2      -10.9320    0.6960   -9.2460 hc        1 3PH      0.036200
    113 H3E1      -13.3160    0.8870   -7.2760 hc        1 3PH      0.039200
    114 H3E2      -12.4730   -0.6330   -7.7620 hc        1 3PH      0.039200
    115 H3F1      -13.9210    1.3220   -9.6820 hc        1 3PH      0.037200
    116 H3F2      -13.0770   -0.1980  -10.1680 hc        1 3PH      0.037200
    117 H3G1      -14.6180   -1.5280   -8.6840 hc        1 3PH      0.039200
    118 H3G2      -15.4610   -0.0080   -8.1980 hc        1 3PH      0.039200
    119 H3H1      -15.2200   -1.0930  -11.0890 hc        1 3PH      0.036700
    120 H3H2      -16.0640    0.4270  -10.6030 hc        1 3PH      0.036700
    121 H3I1      -17.6800   -1.4560  -10.8730 hc        1 3PH      0.029367
    122 H3I2      -17.6290   -0.9050   -9.1480 hc        1 3PH      0.029367
    123 H3I3      -16.7830   -2.4280   -9.6350 hc        1 3PH      0.029367
@<TRIPOS>BOND
     1    1    2 1   
     2    2    3 1   
     3    2    4 1   
     4    2    5 1   
     5    5    6 1   
     6    6    7 1   
     7    6   49 1   
     8    6   50 1   
     9    7    8 1   
    10    7   28 1   
    11    7   51 1   
    12    8    9 1   
    13    9   10 2   
    14    9   11 1   
    15   11   12 1   
    16   11   52 1   
    17   11   53 1   
    18   12   13 1   
    19   12   54 1   
    20   12   55 1   
    21   13   14 1   
    22   13   56 1   
    23   13   57 1   
    24   14   15 1   
    25   14   58 1   
    26   14   59 1   
    27   15   16 1   
    28   15   60 1   
    29   15   61 1   
    30   16   17 1   
    31   16   62 1   
    32   16   63 1   
    33   17   18 1   
    34   17   64 1   
    35   17   65 1   
    36   18   19 1   
    37   18   66 1   
    38   18   67 1   
    39   19   20 1   
    40   19   68 1   
    41   19   69 1   
    42   20   21 1   
    43   20   70 1   
    44   20   71 1   
    45   21   22 1   
    46   21   72 1   
    47   21   73 1   
    48   22   23 1   
    49   22   74 1   
    50   22   75 1   
    51   23   24 1   
    52   23   76 1   
    53   23   77 1   
    54   24   25 1   
    55   24   78 1   
    56   24   79 1   
    57   25   26 1   
    58   25   80 1   
    59   25   81 1   
    60   26   27 1   
    61   26   82 1   
    62   26   83 1   
    63   27   84 1   
    64   27   85 1   
    65   27   86 1   
    66   28   29 1   
    67   28   87 1   
    68   28   88 1   
    69   29   30 1   
    70   30   31 2   
    71   30   32 1   
    72   32   33 1   
    73   32   89 1   
    74   32   90 1   
    75   33   34 1   
    76   33   91 1   
    77   33   92 1   
    78   34   35 1   
    79   34   93 1   
    80   34   94 1   
    81   35   36 1   
    82   35   95 1   
    83   35   96 1   
    84   36   37 1   
    85   36   97 1   
    86   36   98 1   
    87   37   38 1   
    88   37   99 1   
    89   37  100 1   
    90   38   39 1   
    91   38  101 1   
    92   38  102 1   
    93   39   40 1   
    94   39  103 1   
    95   39  104 1   
    96   40   41 1   
    97   40  105 1   
    98   40  106 1   
    99   41   42 1   
   100   41  107 1   
   101   41  108 1   
   102   42   43 1   
   103   42  109 1   
   104   42  110 1   
   105   43   44 1   
   106   43  111 1   
   107   43  112 1   
   108   44   45 1   
   109   44  113 1   
   110   44  114 1   
   111   45   46 1   
   112   45  115 1   
   113   45  116 1   
   114   46   47 1   
   115   46  117 1   
   116   46  118 1   
   117   47   48 1   
   118   47  119 1   
   119   47  120 1   
   120   48  121 1   
   121   48  122 1   
   122   48  123 1   
@<TRIPOS>SUBSTRUCTURE
     1 3PH         1 TEMP              0 ****  ****    0 ROOT
