@<TRIPOS>MOLECULE
3PJ
   69    72     1     0     0
SMALL
bcc


@<TRIPOS>ATOM
      1 N1          0.3830   -3.1540   -2.5820 n         1 3PJ     -0.654000
      2 C2         -3.0090    0.6730    0.0620 ca        1 3PJ     -0.108000
      3 C4         -1.2540    2.3260   -0.0830 ca        1 3PJ     -0.107600
      4 C5         -1.0700    2.0040   -1.4290 ca        1 3PJ     -0.103500
      5 C6         -1.8270    0.9910   -2.0190 ca        1 3PJ     -0.108000
      6 C8         -3.4550   -2.1400   -1.1800 c3        1 3PJ      0.584900
      7 C10         1.7660   -1.2330   -1.8160 c3        1 3PJ     -0.157400
      8 O10        -5.0480   -0.4420   -1.8070 oh        1 3PJ     -0.567800
      9 C12         0.6690   -1.8130   -2.6900 c         1 3PJ      0.657100
     10 N12         0.4590    3.1940    1.5250 n         1 3PJ     -0.438800
     11 O13        -0.7740    4.6230    0.1910 o         1 3PJ     -0.580100
     12 C14         1.3400    2.0290    1.4600 c3        1 3PJ      0.116700
     13 C15         0.9260    4.2490    2.3760 cx        1 3PJ      0.032700
     14 C16         0.6780    0.7360    1.9610 c3        1 3PJ     -0.099900
     15 C17         1.6620   -0.4130    1.9710 c3        1 3PJ     -0.070400
     16 C18         2.3570   -0.6580    0.6190 c3        1 3PJ      0.005300
     17 C19         2.9770    0.6620    0.1440 c3        1 3PJ     -0.070400
     18 C20         1.9720    1.7920    0.0790 c3        1 3PJ     -0.099900
     19 F21        -2.1520   -2.5510   -1.0720 f         1 3PJ     -0.242633
     20 F22        -4.0860   -3.1880   -1.7980 f         1 3PJ     -0.242633
     21 F23        -3.9430   -2.1660    0.1020 f         1 3PJ     -0.242633
     22 C24         1.4170    5.6020    1.8980 cx        1 3PJ     -0.137400
     23 C25         0.1490    5.5090    2.6950 cx        1 3PJ     -0.137400
     24 C26         3.4510   -1.6760    0.8500 ca        1 3PJ     -0.069300
     25 C27         3.4090   -2.9690    0.3140 ca        1 3PJ     -0.130500
     26 C28         4.4340   -3.8830    0.5620 ca        1 3PJ     -0.127000
     27 C29         5.5190   -3.5260    1.3580 ca        1 3PJ     -0.129000
     28 C30         5.5670   -2.2480    1.9130 ca        1 3PJ     -0.127000
     29 C32         1.2990   -1.1450   -0.3770 c3        1 3PJ     -0.074400
     30 OAI         0.0480   -1.1080   -3.5140 o         1 3PJ     -0.636100
     31 CAV        -2.2350    1.6620    0.6620 ca        1 3PJ     -0.103500
     32 CAW         4.5440   -1.3370    1.6650 ca        1 3PJ     -0.130500
     33 CBU        -3.3970   -0.9500   -3.4010 c3        1 3PJ     -0.107100
     34 CBV        -2.8080    0.3200   -1.2810 ca        1 3PJ     -0.127300
     35 CBW        -0.4900    3.4580    0.5300 c         1 3PJ      0.671700
     36 CBZ        -3.6680   -0.7400   -1.9170 c3        1 3PJ      0.204100
     37 HN1         0.7430   -3.6740   -1.8230 hn        1 3PJ      0.307000
     38 HN1A       -0.4210   -3.5090   -3.0420 hn        1 3PJ      0.307000
     39 H2         -3.7730    0.1520    0.6610 ha        1 3PJ      0.155500
     40 H5         -0.3310    2.5530   -2.0330 ha        1 3PJ      0.150500
     41 H6         -1.6180    0.7210   -3.0680 ha        1 3PJ      0.155500
     42 H10         2.7000   -1.8450   -1.9040 hc        1 3PJ      0.076700
     43 H10A        1.9930   -0.2060   -2.2110 hc        1 3PJ      0.076700
     44 HO10       -5.2240   -0.1640   -0.8980 ho        1 3PJ      0.417000
     45 H14         2.2070    2.2290    2.1670 h1        1 3PJ      0.056700
     46 H15         1.4750    3.8060    3.2430 h1        1 3PJ      0.082700
     47 H16         0.3000    0.8940    3.0060 hc        1 3PJ      0.055200
     48 H16A       -0.2110    0.4830    1.3270 hc        1 3PJ      0.055200
     49 H17         2.4490   -0.2130    2.7460 hc        1 3PJ      0.048950
     50 H17A        1.1230   -1.3490    2.2740 hc        1 3PJ      0.048950
     51 H19         3.8040    0.9610    0.8420 hc        1 3PJ      0.048950
     52 H19A        3.4410    0.5160   -0.8660 hc        1 3PJ      0.048950
     53 H20         1.1810    1.5550   -0.6770 hc        1 3PJ      0.055200
     54 H20A        2.4950    2.7250   -0.2600 hc        1 3PJ      0.055200
     55 H24         2.3260    6.0210    2.3640 hc        1 3PJ      0.080950
     56 H24A        1.3350    5.8590    0.8260 hc        1 3PJ      0.080950
     57 H25        -0.8100    5.7180    2.1880 hc        1 3PJ      0.080950
     58 H25A        0.1430    5.8440    3.7480 hc        1 3PJ      0.080950
     59 H27         2.5650   -3.2970   -0.3100 ha        1 3PJ      0.128000
     60 H28         4.3790   -4.8920    0.1260 ha        1 3PJ      0.132500
     61 H29         6.3270   -4.2460    1.5510 ha        1 3PJ      0.134000
     62 H30         6.4150   -1.9570    2.5510 ha        1 3PJ      0.132500
     63 H32         0.4260   -0.4360   -0.3480 hc        1 3PJ      0.053700
     64 H32A        0.9100   -2.1380   -0.0270 hc        1 3PJ      0.053700
     65 HAV        -2.3960    1.9230    1.7190 ha        1 3PJ      0.150500
     66 HAW         4.6000   -0.3410    2.1310 ha        1 3PJ      0.128000
     67 HBU        -2.3420   -1.2920   -3.5480 hc        1 3PJ      0.073033
     68 HBUA       -4.1010   -1.7200   -3.8030 hc        1 3PJ      0.073033
     69 HBUB       -3.5670    0.0050   -3.9530 hc        1 3PJ      0.073033
@<TRIPOS>BOND
     1    1    9 1   
     2    1   37 1   
     3    1   38 1   
     4    2   31 ar  
     5    2   34 ar  
     6    2   39 1   
     7    3    4 ar  
     8    3   31 ar  
     9    3   35 1   
    10    4    5 ar  
    11    4   40 1   
    12    5   34 ar  
    13    5   41 1   
    14    6   19 1   
    15    6   20 1   
    16    6   21 1   
    17    6   36 1   
    18    7    9 1   
    19    7   29 1   
    20    7   42 1   
    21    7   43 1   
    22    8   36 1   
    23    8   44 1   
    24    9   30 2   
    25   10   12 1   
    26   10   13 1   
    27   10   35 1   
    28   11   35 2   
    29   12   14 1   
    30   12   18 1   
    31   12   45 1   
    32   13   22 1   
    33   13   23 1   
    34   13   46 1   
    35   14   15 1   
    36   14   47 1   
    37   14   48 1   
    38   15   16 1   
    39   15   49 1   
    40   15   50 1   
    41   16   17 1   
    42   16   24 1   
    43   16   29 1   
    44   17   18 1   
    45   17   51 1   
    46   17   52 1   
    47   18   53 1   
    48   18   54 1   
    49   22   23 1   
    50   22   55 1   
    51   22   56 1   
    52   23   57 1   
    53   23   58 1   
    54   24   25 ar  
    55   24   32 ar  
    56   25   26 ar  
    57   25   59 1   
    58   26   27 ar  
    59   26   60 1   
    60   27   28 ar  
    61   27   61 1   
    62   28   32 ar  
    63   28   62 1   
    64   29   63 1   
    65   29   64 1   
    66   31   65 1   
    67   32   66 1   
    68   33   36 1   
    69   33   67 1   
    70   33   68 1   
    71   33   69 1   
    72   34   36 1   
@<TRIPOS>SUBSTRUCTURE
     1 3PJ         1 TEMP              0 ****  ****    0 ROOT
