@<TRIPOS>MOLECULE
3PJ
   71    74     1     0     0
SMALL
bcc


@<TRIPOS>ATOM
      1 N1         -1.2050   -1.8840   -1.3600 n4        1 3PJ     -0.768400
      2 C2          8.3560    3.5060    2.3030 ca        1 3PJ     -0.095500
      3 C4          6.3170    2.8780    1.1690 ca        1 3PJ     -0.189600
      4 C5          6.3270    1.6400    1.8310 ca        1 3PJ     -0.081500
      5 C6          7.3640    1.3330    2.7050 ca        1 3PJ     -0.095500
      6 C8         10.2820    0.6060    3.3710 c3        1 3PJ      0.593900
      7 C10         0.8540   -0.5250   -2.0370 c3        1 3PJ     -0.153400
      8 O10        10.4560    2.9710    3.8390 oh        1 3PJ     -0.579800
      9 C12         0.1260   -1.2660   -0.9560 c         1 3PJ      0.548100
     10 N12         5.4310    3.4770   -1.1810 n4        1 3PJ     -0.564200
     11 O13         3.9950    3.2430    0.6180 o         1 3PJ     -0.439100
     12 C14         4.8740    2.3660   -2.0570 c3        1 3PJ      0.134500
     13 C15         6.8450    3.7270   -1.5090 cx        1 3PJ     -0.000500
     14 C16         5.1500    0.9670   -1.5060 c3        1 3PJ     -0.099900
     15 C17         4.6770   -0.0770   -2.4960 c3        1 3PJ     -0.076400
     16 C18         3.1900    0.0320   -2.8780 c3        1 3PJ      0.010300
     17 C19         2.8940    1.4800   -3.2780 c3        1 3PJ     -0.076400
     18 C20         3.3650    2.5180   -2.2790 c3        1 3PJ     -0.099900
     19 F21         9.5890   -0.5600    3.5600 f         1 3PJ     -0.226633
     20 F22        11.4730    0.4350    4.0240 f         1 3PJ     -0.226633
     21 F23        10.5990    0.6180    2.0400 f         1 3PJ     -0.226633
     22 C24         7.2340    4.3380   -2.8430 cx        1 3PJ     -0.102400
     23 C25         7.3910    5.1400   -1.5910 cx        1 3PJ     -0.102400
     24 C26         2.9350   -0.9170   -4.0270 ca        1 3PJ     -0.128300
     25 C27         3.3530   -2.2520   -3.9140 ca        1 3PJ     -0.141000
     26 C28         3.1630   -3.1510   -4.9610 ca        1 3PJ     -0.118000
     27 C29         2.5430   -2.7340   -6.1390 ca        1 3PJ     -0.105000
     28 C30         2.1090   -1.4150   -6.2560 ca        1 3PJ     -0.118000
     29 C32         2.3280   -0.3990   -1.6820 c3        1 3PJ     -0.074400
     30 OAI         0.4320   -1.4470    0.2080 o         1 3PJ     -0.383100
     31 CAV         7.3250    3.8160    1.4190 ca        1 3PJ     -0.081500
     32 CAW         2.3000   -0.5130   -5.2070 ca        1 3PJ     -0.141000
     33 CBU         9.0150    1.6640    5.2940 c3        1 3PJ     -0.138100
     34 CBV         8.3910    2.2590    2.9390 ca        1 3PJ     -0.022300
     35 CBW         5.1760    3.1900    0.3000 c         1 3PJ      0.594700
     36 CBZ         9.5170    1.9120    3.8780 c3        1 3PJ      0.175100
     37 HN1        -1.8250   -1.1680   -1.7490 hn        1 3PJ      0.473800
     38 HN1A       -1.0520   -2.6080   -2.0700 hn        1 3PJ      0.473800
     39 H2          9.1530    4.2470    2.5030 ha        1 3PJ      0.184500
     40 H5          5.5160    0.9140    1.6650 ha        1 3PJ      0.148000
     41 H6          7.3800    0.3520    3.2110 ha        1 3PJ      0.184500
     42 H10         0.3850    0.4950   -2.1310 hc        1 3PJ      0.113700
     43 H10A        0.7470   -1.0490   -3.0290 hc        1 3PJ      0.113700
     44 HO10       11.1130    2.8070    4.5330 ho        1 3PJ      0.446000
     45 H14         5.4010    2.4730   -3.0560 hx        1 3PJ      0.112700
     46 H15         7.4900    2.9220   -1.0830 hx        1 3PJ      0.150700
     47 H16         4.6270    0.8310   -0.5220 hc        1 3PJ      0.069450
     48 H16A        6.2510    0.8250   -1.3320 hc        1 3PJ      0.069450
     49 H17         4.8820   -1.0870   -2.0520 hc        1 3PJ      0.072700
     50 H17A        5.2830    0.0010   -3.4390 hc        1 3PJ      0.072700
     51 H19         3.3960    1.6830   -4.2640 hc        1 3PJ      0.072700
     52 H19A        1.7900    1.6130   -3.4260 hc        1 3PJ      0.072700
     53 H20         2.8200    2.4110   -1.3040 hc        1 3PJ      0.069450
     54 H20A        3.1280    3.5370   -2.6890 hc        1 3PJ      0.069450
     55 H24         6.4540    4.6300   -3.5720 hc        1 3PJ      0.111450
     56 H24A        8.1300    3.9260   -3.3490 hc        1 3PJ      0.111450
     57 H25         8.4040    5.3190   -1.1780 hc        1 3PJ      0.111450
     58 H25A        6.7240    6.0060   -1.4200 hc        1 3PJ      0.111450
     59 H27         3.8520   -2.6030   -2.9970 ha        1 3PJ      0.133000
     60 H28         3.5160   -4.1910   -4.8620 ha        1 3PJ      0.156500
     61 H29         2.4060   -3.4400   -6.9740 ha        1 3PJ      0.162000
     62 H30         1.6240   -1.0750   -7.1850 ha        1 3PJ      0.156500
     63 H32         2.7040   -1.3930   -1.3160 hc        1 3PJ      0.070200
     64 H32A        2.4440    0.3350   -0.8430 hc        1 3PJ      0.070200
     65 HAV         7.3060    4.8050    0.9340 ha        1 3PJ      0.148000
     66 HAW         1.9500    0.5210   -5.3450 ha        1 3PJ      0.133000
     67 HBU         8.5770    2.6040    5.7080 hc        1 3PJ      0.075700
     68 HBUA        9.8660    1.3450    5.9460 hc        1 3PJ      0.075700
     69 HBUB        8.2410    0.8600    5.2980 hc        1 3PJ      0.075700
     70 H13        -1.6590   -2.3140   -0.5420 hn        1 3PJ      0.473800
     71 H121        4.8930    4.3270   -1.4130 hn        1 3PJ      0.448800
@<TRIPOS>BOND
     1    1    9 1   
     2    1   37 1   
     3    1   38 1   
     4    1   70 1   
     5    2   31 ar  
     6    2   34 ar  
     7    2   39 1   
     8    3    4 ar  
     9    3   31 ar  
    10    3   35 1   
    11    4    5 ar  
    12    4   40 1   
    13    5   34 ar  
    14    5   41 1   
    15    6   19 1   
    16    6   20 1   
    17    6   21 1   
    18    6   36 1   
    19    7    9 1   
    20    7   29 1   
    21    7   42 1   
    22    7   43 1   
    23    8   36 1   
    24    8   44 1   
    25    9   30 2   
    26   10   12 1   
    27   10   13 1   
    28   10   35 1   
    29   10   71 1   
    30   11   35 2   
    31   12   14 1   
    32   12   18 1   
    33   12   45 1   
    34   13   22 1   
    35   13   23 1   
    36   13   46 1   
    37   14   15 1   
    38   14   47 1   
    39   14   48 1   
    40   15   16 1   
    41   15   49 1   
    42   15   50 1   
    43   16   17 1   
    44   16   24 1   
    45   16   29 1   
    46   17   18 1   
    47   17   51 1   
    48   17   52 1   
    49   18   53 1   
    50   18   54 1   
    51   22   23 1   
    52   22   55 1   
    53   22   56 1   
    54   23   57 1   
    55   23   58 1   
    56   24   25 ar  
    57   24   32 ar  
    58   25   26 ar  
    59   25   59 1   
    60   26   27 ar  
    61   26   60 1   
    62   27   28 ar  
    63   27   61 1   
    64   28   32 ar  
    65   28   62 1   
    66   29   63 1   
    67   29   64 1   
    68   31   65 1   
    69   32   66 1   
    70   33   36 1   
    71   33   67 1   
    72   33   68 1   
    73   33   69 1   
    74   34   36 1   
@<TRIPOS>SUBSTRUCTURE
     1 3PJ         1 TEMP              0 ****  ****    0 ROOT
