@<TRIPOS>MOLECULE
3PJ
   69    67     1     0     0
SMALL
bcc


@<TRIPOS>ATOM
      1 N1         -2.0070   -2.0100    6.5870 n         1 3PJ     -0.441000
      2 C2          0.6910    3.6220   -3.9140 c1        1 3PJ     -0.104000
      3 C4          1.4030    1.6490   -2.7180 c1        1 3PJ     -0.086000
      4 C5          0.5440    1.9710   -1.6750 c2        1 3PJ     -0.105000
      5 C6         -0.2430    3.1180   -1.7490 c1        1 3PJ     -0.107000
      6 C8         -0.7500    6.2070   -2.0390 c3        1 3PJ      0.425000
      7 C10        -1.1680   -1.6630    4.1760 c3        1 3PJ     -0.180000
      8 O10        -1.0720    5.5970   -4.3270 oh        1 3PJ     -0.307000
      9 C12        -1.8180   -1.1330    5.4660 c2        1 3PJ      0.302000
     10 N12         1.9710   -0.6730   -1.5820 n3        1 3PJ     -0.300000
     11 O13         2.8150   -0.0630   -3.6810 o         1 3PJ     -0.350000
     12 C14         1.2090   -0.2780   -0.4320 c3        1 3PJ      0.037000
     13 C15         2.5480   -2.0030   -1.6460 cx        1 3PJ     -0.040000
     14 C16        -0.2750   -0.5690   -0.6950 c3        1 3PJ     -0.170500
     15 C17        -1.1420   -0.3500    0.5450 c3        1 3PJ     -0.147500
     16 C18        -0.6110   -1.0920    1.7620 c3        1 3PJ     -0.010000
     17 C19         0.8740   -0.8010    2.0260 c3        1 3PJ     -0.147500
     18 C20         1.7400   -1.0190    0.7870 c3        1 3PJ     -0.170500
     19 F21        -1.1300    5.8590   -0.7990 f         1 3PJ     -0.160667
     20 F22        -1.3620    7.3460   -2.3910 f         1 3PJ     -0.160667
     21 F23         0.5820    6.3880   -2.0650 f         1 3PJ     -0.160667
     22 C24         4.0070   -2.0700   -2.0730 cx        1 3PJ     -0.207000
     23 C25         3.6280   -2.3060   -0.6180 cx        1 3PJ     -0.207000
     24 C26        -0.7870   -2.5810    1.5410 c2        1 3PJ     -0.058000
     25 C27         0.1710   -3.4680    2.0080 c2        1 3PJ     -0.136000
     26 C28        -0.0320   -4.8320    1.8870 c1        1 3PJ     -0.132000
     27 C29        -1.1920   -5.3120    1.2990 c1        1 3PJ     -0.129500
     28 C30        -2.1500   -4.4250    0.8320 c1        1 3PJ     -0.129500
     29 C32        -1.4380   -0.6670    3.0120 c3        1 3PJ     -0.147000
     30 OAI        -2.2270    0.0140    5.5150 o         1 3PJ     -0.377000
     31 CAV         1.4770    2.4760   -3.8410 c1        1 3PJ     -0.104000
     32 CAW        -1.9480   -3.0600    0.9530 c1        1 3PJ     -0.127000
     33 CBU        -2.5500    4.6260   -2.7160 c3        1 3PJ     -0.252000
     34 CBV        -0.1690    3.9440   -2.8700 c1        1 3PJ     -0.122000
     35 CBW         2.1680    0.2770   -2.7070 c1        1 3PJ      0.345000
     36 CBZ        -1.1320    5.1020   -3.0160 c3        1 3PJ      0.102000
     37 HN1        -1.2760   -2.3700    7.0200 hn        1 3PJ      0.223500
     38 HN1A       -2.8510   -2.1720    6.9040 hn        1 3PJ      0.223500
     39 H2          0.7440    4.2030   -4.7040 ha        1 3PJ      0.152000
     40 H5          0.4910    1.3980   -0.8950 ha        1 3PJ      0.149000
     41 H6         -0.8520    3.3460   -1.0100 ha        1 3PJ      0.146000
     42 H10        -0.1950   -1.7540    4.3110 hc        1 3PJ      0.106500
     43 H10A       -1.5510   -2.5400    3.9520 hc        1 3PJ      0.106500
     44 HO10       -1.7180    5.2200   -4.8180 ho        1 3PJ      0.221000
     45 H14         1.3240    0.6870   -0.2920 h1        1 3PJ      0.099000
     46 H15         1.9810   -2.7790   -1.9200 h1        1 3PJ      0.119000
     47 H16        -0.5930    0.0240   -1.4140 hc        1 3PJ      0.092000
     48 H16A       -0.3700   -1.5040   -0.9880 hc        1 3PJ      0.092000
     49 H17        -1.1720    0.6120    0.7460 hc        1 3PJ      0.086250
     50 H17A       -2.0540   -0.6650    0.3540 hc        1 3PJ      0.086250
     51 H19         0.9680    0.1340    2.3190 hc        1 3PJ      0.086250
     52 H19A        1.1920   -1.3940    2.7460 hc        1 3PJ      0.086250
     53 H20         1.7700   -1.9830    0.5850 hc        1 3PJ      0.092000
     54 H20A        2.6500   -0.7060    0.9770 hc        1 3PJ      0.092000
     55 H24         4.2680   -2.8760   -2.5850 hc        1 3PJ      0.119250
     56 H24A        4.4370   -1.2040   -2.2680 hc        1 3PJ      0.119250
     57 H25         3.8460   -1.5710    0.0060 hc        1 3PJ      0.119250
     58 H25A        3.6760   -3.2530   -0.3070 hc        1 3PJ      0.119250
     59 H27         0.9870   -3.1310    2.4220 ha        1 3PJ      0.131000
     60 H28         0.6440   -5.4570    2.2160 ha        1 3PJ      0.130000
     61 H29        -1.3340   -6.2740    1.2140 ha        1 3PJ      0.132500
     62 H30        -2.9640   -4.7620    0.4190 ha        1 3PJ      0.132500
     63 H32        -2.3980   -0.6740    2.7890 hc        1 3PJ      0.103000
     64 H32A       -1.1730    0.2390    3.2880 hc        1 3PJ      0.103000
     65 HAV         2.0850    2.2490   -4.5790 ha        1 3PJ      0.147000
     66 HAW        -2.6240   -2.4330    0.6230 ha        1 3PJ      0.136000
     67 HBU        -2.8290    4.9640   -1.8340 hc        1 3PJ      0.104667
     68 HBUA       -3.1620    4.9650   -3.4060 hc        1 3PJ      0.104667
     69 HBUB       -2.5720    3.6410   -2.7120 hc        1 3PJ      0.104667
@<TRIPOS>BOND
     1    1    9 1   
     2    1   37 1   
     3    1   38 1   
     4    2   34 1   
     5    2   39 1   
     6    3    4 1   
     7    3   31 1   
     8    4    5 1   
     9    4   40 1   
    10    5   41 1   
    11    6   19 1   
    12    6   20 1   
    13    6   21 1   
    14    6   36 1   
    15    7    9 1   
    16    7   29 1   
    17    7   42 1   
    18    7   43 1   
    19    8   36 1   
    20    8   44 1   
    21    9   30 1   
    22   10   12 1   
    23   10   13 1   
    24   10   35 1   
    25   11   35 1   
    26   12   14 1   
    27   12   18 1   
    28   12   45 1   
    29   13   22 1   
    30   13   23 1   
    31   13   46 1   
    32   14   15 1   
    33   14   47 1   
    34   14   48 1   
    35   15   16 1   
    36   15   49 1   
    37   15   50 1   
    38   16   17 1   
    39   16   24 1   
    40   16   29 1   
    41   17   18 1   
    42   17   51 1   
    43   17   52 1   
    44   18   53 1   
    45   18   54 1   
    46   22   23 1   
    47   22   55 1   
    48   22   56 1   
    49   23   57 1   
    50   23   58 1   
    51   24   25 1   
    52   24   32 1   
    53   25   26 1   
    54   25   59 1   
    55   26   60 1   
    56   27   28 1   
    57   27   61 1   
    58   28   62 1   
    59   29   63 1   
    60   29   64 1   
    61   31   65 1   
    62   32   66 1   
    63   33   36 1   
    64   33   67 1   
    65   33   68 1   
    66   33   69 1   
    67   34   36 1   
@<TRIPOS>SUBSTRUCTURE
     1 3PJ         1 TEMP              0 ****  ****    0 ROOT
