@<TRIPOS>MOLECULE
3PJ
   71    74     1     0     0
SMALL
bcc


@<TRIPOS>ATOM
      1 N1         -1.2260   -1.8150   -1.3050 nz        1 3PJ     -0.768400
      2 C2          8.3830    3.5310    2.2780 ca        1 3PJ     -0.095500
      3 C4          6.3360    2.9120    1.1520 ca        1 3PJ     -0.189600
      4 C5          6.3270    1.6860    1.8350 ca        1 3PJ     -0.081500
      5 C6          7.3590    1.3800    2.7170 ca        1 3PJ     -0.095500
      6 C8         10.2650    0.6230    3.3990 c3        1 3PJ      0.593900
      7 C10         0.8450   -0.4870   -2.0030 c3        1 3PJ     -0.153400
      8 O10        10.4730    2.9930    3.8250 oh        1 3PJ     -0.579800
      9 C12         0.1090   -1.2020   -0.9100 c         1 3PJ      0.548100
     10 N12         5.4610    3.4840   -1.2090 nx        1 3PJ     -0.564200
     11 O13         4.0190    3.2980    0.5920 o         1 3PJ     -0.439100
     12 C14         4.8930    2.3640   -2.0660 c3        1 3PJ      0.134500
     13 C15         6.8780    3.7130   -1.5380 cx        1 3PJ     -0.000500
     14 C16         5.1560    0.9720   -1.4920 c3        1 3PJ     -0.099900
     15 C17         4.6730   -0.0840   -2.4650 c3        1 3PJ     -0.076400
     16 C18         3.1870    0.0340   -2.8500 c3        1 3PJ      0.010300
     17 C19         2.9060    1.4770   -3.2750 c3        1 3PJ     -0.076400
     18 C20         3.3860    2.5270   -2.2930 c3        1 3PJ     -0.099900
     19 F21         9.5560   -0.5300    3.6090 f         1 3PJ     -0.226633
     20 F22        11.4540    0.4460    4.0570 f         1 3PJ     -0.226633
     21 F23        10.5840    0.6060    2.0680 f         1 3PJ     -0.226633
     22 C24         7.2740    4.2990   -2.8820 cx        1 3PJ     -0.102400
     23 C25         7.4380    5.1200   -1.6440 cx        1 3PJ     -0.102400
     24 C26         2.9240   -0.9320   -3.9840 ca        1 3PJ     -0.128300
     25 C27         3.3290   -2.2690   -3.8480 ca        1 3PJ     -0.141000
     26 C28         3.1310   -3.1840   -4.8800 ca        1 3PJ     -0.118000
     27 C29         2.5160   -2.7800   -6.0660 ca        1 3PJ     -0.105000
     28 C30         2.0950   -1.4580   -6.2050 ca        1 3PJ     -0.118000
     29 C32         2.3200   -0.3700   -1.6480 c3        1 3PJ     -0.074400
     30 OAI         0.4120   -1.3650    0.2580 o         1 3PJ     -0.383100
     31 CAV         7.3570    3.8400    1.3870 ca        1 3PJ     -0.081500
     32 CAW         2.2930   -0.5420   -5.1710 ca        1 3PJ     -0.141000
     33 CBU         9.0120    1.7340    5.3020 c3        1 3PJ     -0.138100
     34 CBV         8.3990    2.2950    2.9360 ca        1 3PJ     -0.022300
     35 CBW         5.2000    3.2250    0.2760 c         1 3PJ      0.594700
     36 CBZ         9.5200    1.9480    3.8820 c3        1 3PJ      0.175100
     37 HN1        -1.8390   -1.1010   -1.7080 hn        1 3PJ      0.473800
     38 HN1A       -1.0790   -2.5540   -2.0010 hn        1 3PJ      0.473800
     39 H2          9.1900    4.2640    2.4660 ha        1 3PJ      0.184500
     40 H5          5.5060    0.9690    1.6820 ha        1 3PJ      0.148000
     41 H6          7.3610    0.4070    3.2400 ha        1 3PJ      0.184500
     42 H10         0.7340   -1.0270   -2.9860 hc        1 3PJ      0.113700
     43 H10A        0.3860    0.5350   -2.1150 hc        1 3PJ      0.113700
     44 HO10       11.1270    2.8320    4.5230 ho        1 3PJ      0.446000
     45 H14         5.4220    2.4490   -3.0670 hx        1 3PJ      0.112700
     46 H15         7.5140    2.9100   -1.0990 hx        1 3PJ      0.150700
     47 H16         6.2550    0.8220   -1.3150 hc        1 3PJ      0.069450
     48 H16A        4.6300    0.8570   -0.5060 hc        1 3PJ      0.069450
     49 H17         5.2800   -0.0270   -3.4090 hc        1 3PJ      0.072700
     50 H17A        4.8670   -1.0890   -2.0050 hc        1 3PJ      0.072700
     51 H19         1.8040    1.6190   -3.4260 hc        1 3PJ      0.072700
     52 H19A        3.4110    1.6590   -4.2640 hc        1 3PJ      0.072700
     53 H20         3.1600    3.5420   -2.7200 hc        1 3PJ      0.069450
     54 H20A        2.8400    2.4420   -1.3170 hc        1 3PJ      0.069450
     55 H24         8.1660    3.8690   -3.3800 hc        1 3PJ      0.111450
     56 H24A        6.4980    4.5870   -3.6170 hc        1 3PJ      0.111450
     57 H25         6.7790    5.9960   -1.4880 hc        1 3PJ      0.111450
     58 H25A        8.4530    5.2960   -1.2320 hc        1 3PJ      0.111450
     59 H27         3.8240   -2.6100   -2.9250 ha        1 3PJ      0.133000
     60 H28         3.4730   -4.2250   -4.7640 ha        1 3PJ      0.156500
     61 H29         2.3730   -3.4980   -6.8890 ha        1 3PJ      0.162000
     62 H30         1.6140   -1.1290   -7.1400 ha        1 3PJ      0.156500
     63 H32         2.6860   -1.3610   -1.2650 hc        1 3PJ      0.070200
     64 H32A        2.4430    0.3770   -0.8210 hc        1 3PJ      0.070200
     65 HAV         7.3520    4.8210    0.8850 ha        1 3PJ      0.148000
     66 HAW         1.9540    0.4930   -5.3260 ha        1 3PJ      0.133000
     67 HBU         8.5870    2.6870    5.6980 hc        1 3PJ      0.075700
     68 HBUA        8.2270    0.9410    5.3190 hc        1 3PJ      0.075700
     69 HBUB        9.8580    1.4140    5.9600 hc        1 3PJ      0.075700
     70 H13        -1.6860   -2.2250   -0.4800 hn        1 3PJ      0.473800
     71 H121        4.9310    4.3350   -1.4560 hn        1 3PJ      0.448800
@<TRIPOS>BOND
     1    1    9 1   
     2    1   37 1   
     3    1   38 1   
     4    1   70 1   
     5    2   31 ar  
     6    2   34 ar  
     7    2   39 1   
     8    3    4 ar  
     9    3   31 ar  
    10    3   35 1   
    11    4    5 ar  
    12    4   40 1   
    13    5   34 ar  
    14    5   41 1   
    15    6   19 1   
    16    6   20 1   
    17    6   21 1   
    18    6   36 1   
    19    7    9 1   
    20    7   29 1   
    21    7   42 1   
    22    7   43 1   
    23    8   36 1   
    24    8   44 1   
    25    9   30 2   
    26   10   12 1   
    27   10   13 1   
    28   10   35 1   
    29   10   71 1   
    30   11   35 2   
    31   12   14 1   
    32   12   18 1   
    33   12   45 1   
    34   13   22 1   
    35   13   23 1   
    36   13   46 1   
    37   14   15 1   
    38   14   47 1   
    39   14   48 1   
    40   15   16 1   
    41   15   49 1   
    42   15   50 1   
    43   16   17 1   
    44   16   24 1   
    45   16   29 1   
    46   17   18 1   
    47   17   51 1   
    48   17   52 1   
    49   18   53 1   
    50   18   54 1   
    51   22   23 1   
    52   22   55 1   
    53   22   56 1   
    54   23   57 1   
    55   23   58 1   
    56   24   25 ar  
    57   24   32 ar  
    58   25   26 ar  
    59   25   59 1   
    60   26   27 ar  
    61   26   60 1   
    62   27   28 ar  
    63   27   61 1   
    64   28   32 ar  
    65   28   62 1   
    66   29   63 1   
    67   29   64 1   
    68   31   65 1   
    69   32   66 1   
    70   33   36 1   
    71   33   67 1   
    72   33   68 1   
    73   33   69 1   
    74   34   36 1   
@<TRIPOS>SUBSTRUCTURE
     1 3PJ         1 TEMP              0 ****  ****    0 ROOT
