@<TRIPOS>MOLECULE
3PJ
   71    74     1     0     0
SMALL
bcc


@<TRIPOS>ATOM
      1 N1         -1.2410   -1.7610   -1.4280 n4        1 3PJ     -0.768400
      2 C2          8.3460    3.4880    2.3500 ca        1 3PJ     -0.095500
      3 C4          6.3140    2.8900    1.1850 ca        1 3PJ     -0.189600
      4 C5          6.2840    1.6610    1.8610 ca        1 3PJ     -0.081500
      5 C6          7.2980    1.3430    2.7590 ca        1 3PJ     -0.095500
      6 C8         10.1860    0.5590    3.4890 c3        1 3PJ      0.593900
      7 C10         0.8540   -0.4480   -2.0840 c3        1 3PJ     -0.153400
      8 O10        10.4040    2.9250    3.9300 oh        1 3PJ     -0.579800
      9 C12         0.0940   -1.1630   -1.0080 c         1 3PJ      0.548100
     10 N12         5.4860    3.4820   -1.1880 n4        1 3PJ     -0.564200
     11 O13         4.0110    3.2970    0.5850 o         1 3PJ     -0.439100
     12 C14         4.9250    2.3710   -2.0620 c3        1 3PJ      0.134500
     13 C15         6.9100    3.7020   -1.4920 cx        1 3PJ     -0.000500
     14 C16         5.1660    0.9740   -1.4910 c3        1 3PJ     -0.099900
     15 C17         4.6920   -0.0720   -2.4780 c3        1 3PJ     -0.076400
     16 C18         3.2150    0.0590   -2.8880 c3        1 3PJ      0.010300
     17 C19         2.9520    1.5070   -3.3100 c3        1 3PJ     -0.076400
     18 C20         3.4230    2.5480   -2.3140 c3        1 3PJ     -0.099900
     19 F21         9.4630   -0.5890    3.6790 f         1 3PJ     -0.226633
     20 F22        11.3600    0.3690    4.1660 f         1 3PJ     -0.226633
     21 F23        10.5280    0.5470    2.1640 f         1 3PJ     -0.226633
     22 C24         7.3340    4.2920   -2.8250 cx        1 3PJ     -0.102400
     23 C25         7.4830    5.1050   -1.5790 cx        1 3PJ     -0.102400
     24 C26         2.9640   -0.8990   -4.0310 ca        1 3PJ     -0.128300
     25 C27         3.3560   -2.2400   -3.8960 ca        1 3PJ     -0.141000
     26 C28         3.1690   -3.1470   -4.9360 ca        1 3PJ     -0.118000
     27 C29         2.5780   -2.7330   -6.1300 ca        1 3PJ     -0.105000
     28 C30         2.1690   -1.4070   -6.2690 ca        1 3PJ     -0.118000
     29 C32         2.3240   -0.3440   -1.7030 c3        1 3PJ     -0.074400
     30 OAI         0.3770   -1.3360    0.1630 o         1 3PJ     -0.383100
     31 CAV         7.3390    3.8090    1.4420 ca        1 3PJ     -0.081500
     32 CAW         2.3570   -0.4980   -5.2270 ca        1 3PJ     -0.141000
     33 CBU         8.9080    1.6690    5.3740 c3        1 3PJ     -0.138100
     34 CBV         8.3410    2.2480    3.0010 ca        1 3PJ     -0.022300
     35 CBW         5.1970    3.2170    0.2910 c         1 3PJ      0.594700
     36 CBZ         9.4410    1.8870    3.9650 c3        1 3PJ      0.175100
     37 HN1        -1.0890   -2.4960   -2.1270 hn        1 3PJ      0.473800
     38 HN1A       -1.7180   -2.1720   -0.6130 hn        1 3PJ      0.473800
     39 H2          9.1550    4.2130    2.5560 ha        1 3PJ      0.184500
     40 H5          5.4600    0.9510    1.6890 ha        1 3PJ      0.148000
     41 H6          7.2820    0.3670    3.2770 ha        1 3PJ      0.184500
     42 H10         0.7560   -0.9830   -3.0710 hc        1 3PJ      0.113700
     43 H10A        0.4050    0.5780   -2.1990 hc        1 3PJ      0.113700
     44 HO10       11.0440    2.7550    4.6390 ho        1 3PJ      0.446000
     45 H14         5.4720    2.4570   -3.0520 hx        1 3PJ      0.112700
     46 H15         7.5320    2.8920   -1.0460 hx        1 3PJ      0.150700
     47 H16         4.6220    0.8580   -0.5150 hc        1 3PJ      0.069450
     48 H16A        6.2610    0.8150   -1.2960 hc        1 3PJ      0.069450
     49 H17         4.8710   -1.0810   -2.0200 hc        1 3PJ      0.072700
     50 H17A        5.3160   -0.0150   -3.4100 hc        1 3PJ      0.072700
     51 H19         3.4750    1.6890   -4.2890 hc        1 3PJ      0.072700
     52 H19A        1.8530    1.6580   -3.4790 hc        1 3PJ      0.072700
     53 H20         2.8590    2.4620   -1.3480 hc        1 3PJ      0.069450
     54 H20A        3.2120    3.5660   -2.7400 hc        1 3PJ      0.069450
     55 H24         8.2320    3.8580   -3.3090 hc        1 3PJ      0.111450
     56 H24A        6.5740    4.5900   -3.5720 hc        1 3PJ      0.111450
     57 H25         8.4910    5.2710   -1.1490 hc        1 3PJ      0.111450
     58 H25A        6.8280    5.9850   -1.4300 hc        1 3PJ      0.111450
     59 H27         3.8330   -2.5890   -2.9660 ha        1 3PJ      0.133000
     60 H28         3.5020   -4.1910   -4.8200 ha        1 3PJ      0.156500
     61 H29         2.4440   -3.4460   -6.9600 ha        1 3PJ      0.162000
     62 H30         1.7070   -1.0700   -7.2110 ha        1 3PJ      0.156500
     63 H32         2.6750   -1.3400   -1.3190 hc        1 3PJ      0.070200
     64 H32A        2.4380    0.3970   -0.8700 hc        1 3PJ      0.070200
     65 HAV         7.3500    4.7930    0.9450 ha        1 3PJ      0.148000
     66 HAW         2.0280    0.5410   -5.3820 ha        1 3PJ      0.133000
     67 HBU         8.1160    0.8820    5.3740 hc        1 3PJ      0.075700
     68 HBUA        8.4830    2.6240    5.7680 hc        1 3PJ      0.075700
     69 HBUB        9.7390    1.3400    6.0460 hc        1 3PJ      0.075700
     70 H13        -1.8410   -1.0380   -1.8360 hn        1 3PJ      0.473800
     71 H121        4.9670    4.3390   -1.4400 hn        1 3PJ      0.448800
@<TRIPOS>BOND
     1    1    9 1   
     2    1   37 1   
     3    1   38 1   
     4    1   70 1   
     5    2   31 ar  
     6    2   34 ar  
     7    2   39 1   
     8    3    4 ar  
     9    3   31 ar  
    10    3   35 1   
    11    4    5 ar  
    12    4   40 1   
    13    5   34 ar  
    14    5   41 1   
    15    6   19 1   
    16    6   20 1   
    17    6   21 1   
    18    6   36 1   
    19    7    9 1   
    20    7   29 1   
    21    7   42 1   
    22    7   43 1   
    23    8   36 1   
    24    8   44 1   
    25    9   30 2   
    26   10   12 1   
    27   10   13 1   
    28   10   35 1   
    29   10   71 1   
    30   11   35 2   
    31   12   14 1   
    32   12   18 1   
    33   12   45 1   
    34   13   22 1   
    35   13   23 1   
    36   13   46 1   
    37   14   15 1   
    38   14   47 1   
    39   14   48 1   
    40   15   16 1   
    41   15   49 1   
    42   15   50 1   
    43   16   17 1   
    44   16   24 1   
    45   16   29 1   
    46   17   18 1   
    47   17   51 1   
    48   17   52 1   
    49   18   53 1   
    50   18   54 1   
    51   22   23 1   
    52   22   55 1   
    53   22   56 1   
    54   23   57 1   
    55   23   58 1   
    56   24   25 ar  
    57   24   32 ar  
    58   25   26 ar  
    59   25   59 1   
    60   26   27 ar  
    61   26   60 1   
    62   27   28 ar  
    63   27   61 1   
    64   28   32 ar  
    65   28   62 1   
    66   29   63 1   
    67   29   64 1   
    68   31   65 1   
    69   32   66 1   
    70   33   36 1   
    71   33   67 1   
    72   33   68 1   
    73   33   69 1   
    74   34   36 1   
@<TRIPOS>SUBSTRUCTURE
     1 3PJ         1 TEMP              0 ****  ****    0 ROOT
