@<TRIPOS>MOLECULE
3PK
   44    43     1     0     0
SMALL
bcc


@<TRIPOS>ATOM
      1 CA1         0.1840   -0.5200   -0.2050 c         1 3PK      0.634100
      2 OA1         1.3410   -0.9100   -0.3800 o         1 3PK     -0.543000
      3 CA2        -0.6360   -0.5220    1.0470 c3        1 3PK     -0.126400
      4 CA3         0.2110   -0.1760    2.2530 c3        1 3PK     -0.080400
      5 CA4        -0.5880   -0.3190    3.5310 c3        1 3PK     -0.079400
      6 CA5         0.2400    0.0430    4.7370 c3        1 3PK     -0.093100
      7 CB1        -2.2350   -1.1550   -4.9710 c         1 3PK      0.635100
      8 OB1        -2.0840   -0.3350   -5.8780 o         1 3PK     -0.546000
      9 CB2        -3.0350   -2.4210   -4.9690 c3        1 3PK     -0.127400
     10 CB3        -2.9290   -3.1320   -6.3020 c3        1 3PK     -0.079400
     11 CB4        -3.8480   -4.3330   -6.3450 c3        1 3PK     -0.079400
     12 CB5        -3.7340   -5.0610   -7.6680 c3        1 3PK     -0.080400
     13 CB6        -4.6510   -6.2560   -7.7200 c3        1 3PK     -0.093100
     14 CG1         0.1850   -0.0180   -2.5380 c3        1 3PK      0.135400
     15 OG1        -0.4990   -0.0130   -1.2770 os        1 3PK     -0.435900
     16 CG2        -0.8430    0.2770   -3.6300 c3        1 3PK      0.148100
     17 OG2        -1.6210   -0.9280   -3.7690 os        1 3PK     -0.439900
     18 CG3        -1.7460    1.4430   -3.2960 c3        1 3PK     -0.114100
     19 H1A2       -1.0710   -1.5520    1.1580 hc        1 3PK      0.078700
     20 H2A2       -1.4880    0.2000    0.9420 hc        1 3PK      0.078700
     21 H1A3        1.1090   -0.8490    2.2840 hc        1 3PK      0.057700
     22 H2A3        0.5890    0.8760    2.1580 hc        1 3PK      0.057700
     23 H1A4       -1.4940    0.3420    3.4820 hc        1 3PK      0.040200
     24 H2A4       -0.9530   -1.3750    3.6280 hc        1 3PK      0.040200
     25 H1A5        0.5900    1.1020    4.6720 hc        1 3PK      0.035700
     26 H2A5       -0.3640   -0.0720    5.6690 hc        1 3PK      0.035700
     27 H3A5        1.1370   -0.6180    4.8120 hc        1 3PK      0.035700
     28 H1B2       -2.6870   -3.0880   -4.1370 hc        1 3PK      0.078700
     29 H2B2       -4.1030   -2.1400   -4.7600 hc        1 3PK      0.078700
     30 H1B3       -3.1900   -2.4180   -7.1280 hc        1 3PK      0.057700
     31 H2B3       -1.8690   -3.4600   -6.4700 hc        1 3PK      0.057700
     32 HB4        -4.9090   -4.0030   -6.1890 hc        1 3PK      0.040700
     33 HB5        -2.6730   -5.3920   -7.8210 hc        1 3PK      0.041700
     34 H1B6       -5.7150   -5.9430   -7.5940 hc        1 3PK      0.033367
     35 H2B6       -4.5510   -6.7780   -8.7020 hc        1 3PK      0.033367
     36 H3B6       -4.4010   -6.9810   -6.9080 hc        1 3PK      0.033367
     37 H1G1        0.6670   -1.0180   -2.7000 h1        1 3PK      0.065200
     38 H2G1        0.9640    0.7870   -2.5200 h1        1 3PK      0.065200
     39 HG2        -0.2900    0.4690   -4.5940 h1        1 3PK      0.076700
     40 H1G3       -2.3360    1.2240   -2.3730 hc        1 3PK      0.053367
     41 H2G3       -2.4490    1.6290   -4.1430 hc        1 3PK      0.053367
     42 H3G3       -1.1290    2.3560   -3.1220 hc        1 3PK      0.053367
     43 H25        -3.5930   -5.0350   -5.5070 hc        1 3PK      0.040700
     44 H26        -3.9850   -4.3560   -8.5040 hc        1 3PK      0.041700
@<TRIPOS>BOND
     1    1    2 2   
     2    1    3 1   
     3    1   15 1   
     4    3    4 1   
     5    3   19 1   
     6    3   20 1   
     7    4    5 1   
     8    4   21 1   
     9    4   22 1   
    10    5    6 1   
    11    5   23 1   
    12    5   24 1   
    13    6   25 1   
    14    6   26 1   
    15    6   27 1   
    16    7    8 2   
    17    7    9 1   
    18    7   17 1   
    19    9   10 1   
    20    9   28 1   
    21    9   29 1   
    22   10   11 1   
    23   10   30 1   
    24   10   31 1   
    25   11   12 1   
    26   11   32 1   
    27   11   43 1   
    28   12   13 1   
    29   12   33 1   
    30   12   44 1   
    31   13   34 1   
    32   13   35 1   
    33   13   36 1   
    34   14   15 1   
    35   14   16 1   
    36   14   37 1   
    37   14   38 1   
    38   16   17 1   
    39   16   18 1   
    40   16   39 1   
    41   18   40 1   
    42   18   41 1   
    43   18   42 1   
@<TRIPOS>SUBSTRUCTURE
     1 3PK         1 TEMP              0 ****  ****    0 ROOT
