@<TRIPOS>MOLECULE
3PK
   44    43     1     0     0
SMALL
bcc


@<TRIPOS>ATOM
      1 CA1         0.1840   -0.5230   -0.2080 c         1 3PK      0.634100
      2 OA1         1.3360   -0.9250   -0.3810 o         1 3PK     -0.543000
      3 CA2        -0.6380   -0.5170    1.0430 c3        1 3PK     -0.126400
      4 CA3         0.2120   -0.1860    2.2510 c3        1 3PK     -0.080400
      5 CA4        -0.5910   -0.3200    3.5270 c3        1 3PK     -0.079400
      6 CA5         0.2390    0.0270    4.7360 c3        1 3PK     -0.093100
      7 CB1        -2.2310   -1.1500   -4.9730 c         1 3PK      0.635100
      8 OB1        -2.0740   -0.3340   -5.8830 o         1 3PK     -0.546000
      9 CB2        -3.0400   -2.4110   -4.9700 c3        1 3PK     -0.127400
     10 CB3        -2.9300   -3.1300   -6.2980 c3        1 3PK     -0.079400
     11 CB4        -3.8580   -4.3250   -6.3390 c3        1 3PK     -0.079400
     12 CB5        -3.7400   -5.0610   -7.6570 c3        1 3PK     -0.080400
     13 CB6        -4.6650   -6.2500   -7.7080 c3        1 3PK     -0.093100
     14 CG1         0.1930   -0.0230   -2.5410 c3        1 3PK      0.135400
     15 OG1        -0.4920   -0.0090   -1.2810 os        1 3PK     -0.435900
     16 CG2        -0.8310    0.2760   -3.6350 c3        1 3PK      0.148100
     17 OG2        -1.6180   -0.9240   -3.7720 os        1 3PK     -0.439900
     18 CG3        -1.7280    1.4500   -3.3050 c3        1 3PK     -0.114100
     19 H1A2       -1.0880   -1.5410    1.1500 hc        1 3PK      0.078700
     20 H2A2       -1.4800    0.2170    0.9380 hc        1 3PK      0.078700
     21 H1A3        1.1000   -0.8720    2.2830 hc        1 3PK      0.057700
     22 H2A3        0.6050    0.8610    2.1600 hc        1 3PK      0.057700
     23 H1A4       -1.4880    0.3530    3.4790 hc        1 3PK      0.040200
     24 H2A4       -0.9720   -1.3720    3.6220 hc        1 3PK      0.040200
     25 H1A5        1.1270   -0.6470    4.8110 hc        1 3PK      0.035700
     26 H2A5        0.6050    1.0800    4.6740 hc        1 3PK      0.035700
     27 H3A5       -0.3670   -0.0830    5.6670 hc        1 3PK      0.035700
     28 H1B2       -4.1070   -2.1220   -4.7690 hc        1 3PK      0.078700
     29 H2B2       -2.7010   -3.0750   -4.1320 hc        1 3PK      0.078700
     30 H1B3       -1.8720   -3.4660   -6.4570 hc        1 3PK      0.057700
     31 H2B3       -3.1820   -2.4190   -7.1290 hc        1 3PK      0.057700
     32 HB4        -3.6130   -5.0230   -5.4950 hc        1 3PK      0.041200
     33 HB5        -3.9800   -4.3600   -8.4990 hc        1 3PK      0.041700
     34 H1B6       -5.7280   -5.9290   -7.5910 hc        1 3PK      0.033367
     35 H2B6       -4.4250   -6.9730   -6.8910 hc        1 3PK      0.033367
     36 H3B6       -4.5620   -6.7790   -8.6870 hc        1 3PK      0.033367
     37 H1G1        0.9770    0.7780   -2.5230 h1        1 3PK      0.065200
     38 H2G1        0.6690   -1.0250   -2.7000 h1        1 3PK      0.065200
     39 HG2        -0.2760    0.4630   -4.5990 h1        1 3PK      0.076700
     40 H1G3       -1.1050    2.3580   -3.1330 hc        1 3PK      0.053367
     41 H2G3       -2.4290    1.6380   -4.1540 hc        1 3PK      0.053367
     42 H3G3       -2.3200    1.2370   -2.3820 hc        1 3PK      0.053367
     43 H25        -4.9170   -3.9870   -6.1920 hc        1 3PK      0.041200
     44 H26        -2.6810   -5.4010   -7.8020 hc        1 3PK      0.041700
@<TRIPOS>BOND
     1    1    2 2   
     2    1    3 1   
     3    1   15 1   
     4    3    4 1   
     5    3   19 1   
     6    3   20 1   
     7    4    5 1   
     8    4   21 1   
     9    4   22 1   
    10    5    6 1   
    11    5   23 1   
    12    5   24 1   
    13    6   25 1   
    14    6   26 1   
    15    6   27 1   
    16    7    8 2   
    17    7    9 1   
    18    7   17 1   
    19    9   10 1   
    20    9   28 1   
    21    9   29 1   
    22   10   11 1   
    23   10   30 1   
    24   10   31 1   
    25   11   12 1   
    26   11   32 1   
    27   11   43 1   
    28   12   13 1   
    29   12   33 1   
    30   12   44 1   
    31   13   34 1   
    32   13   35 1   
    33   13   36 1   
    34   14   15 1   
    35   14   16 1   
    36   14   37 1   
    37   14   38 1   
    38   16   17 1   
    39   16   18 1   
    40   16   39 1   
    41   18   40 1   
    42   18   41 1   
    43   18   42 1   
@<TRIPOS>SUBSTRUCTURE
     1 3PK         1 TEMP              0 ****  ****    0 ROOT
