@<TRIPOS>MOLECULE
3PK
   44    41     1     0     0
SMALL
bcc


@<TRIPOS>ATOM
      1 CA1         1.7230    1.6850    2.7660 c1        1 3PK      0.305000
      2 OA1         1.5340    0.8580    3.6370 o         1 3PK     -0.353000
      3 CA2         2.8540    2.6940    2.9060 c2        1 3PK     -0.156000
      4 CA3         3.8710    2.1850    3.9200 c3        1 3PK     -0.158000
      5 CA4         4.9640    3.1950    4.0820 c3        1 3PK     -0.158000
      6 CA5         5.9570    2.7040    5.1310 c3        1 3PK     -0.211000
      7 CB1        -1.6990   -0.6410   -1.3010 c1        1 3PK      0.308000
      8 OB1        -1.1310    0.0560   -2.1050 o         1 3PK     -0.355000
      9 CB2        -2.4720   -1.9170   -1.7790 c2        1 3PK     -0.156000
     10 CB3        -2.3300   -2.0590   -3.2980 c3        1 3PK     -0.158000
     11 CB4        -3.1380   -3.3050   -3.7900 c3        1 3PK     -0.158000
     12 CB5        -3.0800   -3.3750   -5.3290 c3        1 3PK     -0.159000
     13 CB6        -3.7290   -4.6610   -5.8070 c3        1 3PK     -0.211000
     14 CG1        -0.1810    0.7710    1.6530 c3        1 3PK     -0.016000
     15 OG1         0.9700    1.6440    1.5880 os        1 3PK     -0.283000
     16 CG2        -1.0020    0.9170    0.3680 c3        1 3PK      0.033000
     17 OG2        -1.6670   -0.3000    0.0910 os        1 3PK     -0.282000
     18 CG3        -2.0070    2.0040    0.5430 c3        1 3PK     -0.236000
     19 H1A2        3.2930    2.8150    2.0360 ha        1 3PK      0.118000
     20 H2A2        2.4880    3.5550    3.2120 ha        1 3PK      0.118000
     21 H1A3        4.2500    1.3450    3.6050 hc        1 3PK      0.097000
     22 H2A3        3.4320    2.0430    4.7780 hc        1 3PK      0.097000
     23 H1A4        4.5850    4.0390    4.3650 hc        1 3PK      0.079500
     24 H2A4        5.4260    3.3160    3.2270 hc        1 3PK      0.079500
     25 H1A5        6.6610    3.3770    5.2570 hc        1 3PK      0.075000
     26 H2A5        6.3620    1.8550    4.8280 hc        1 3PK      0.075000
     27 H3A5        5.4900    2.5580    5.9800 hc        1 3PK      0.075000
     28 H1B2       -2.0980   -2.7090   -1.3400 ha        1 3PK      0.117500
     29 H2B2       -3.4170   -1.8310   -1.5470 ha        1 3PK      0.117500
     30 H1B3       -2.6760   -1.2550   -3.7330 hc        1 3PK      0.096500
     31 H2B3       -1.3860   -2.1720   -3.5260 hc        1 3PK      0.096500
     32 HB4        -2.7460   -4.1250   -3.4090 hc        1 3PK      0.080500
     33 HB5        -3.5580   -2.6060   -5.7090 hc        1 3PK      0.081000
     34 H1B6       -3.2300   -5.4270   -5.4600 hc        1 3PK      0.073000
     35 H2B6       -3.7240   -4.6840   -6.7890 hc        1 3PK      0.073000
     36 H3B6       -4.6540   -4.6990   -5.4840 hc        1 3PK      0.073000
     37 H1G1       -0.7450    1.0200    2.4380 h1        1 3PK      0.107500
     38 H2G1        0.1180   -0.1580    1.7480 h1        1 3PK      0.107500
     39 HG2        -0.4130    1.1380   -0.3690 h1        1 3PK      0.130000
     40 H1G3       -2.4300    2.2000   -0.3200 hc        1 3PK      0.091000
     41 H2G3       -1.5600    2.8130    0.8800 hc        1 3PK      0.091000
     42 H3G3       -2.6860    1.7190    1.1810 hc        1 3PK      0.091000
     43 H25        -4.0720   -3.2250   -3.5020 hc        1 3PK      0.080500
     44 H26        -2.1460   -3.3530   -5.6210 hc        1 3PK      0.081000
@<TRIPOS>BOND
     1    1    2 1   
     2    1   15 1   
     3    3    4 1   
     4    3   19 1   
     5    3   20 1   
     6    4    5 1   
     7    4   21 1   
     8    4   22 1   
     9    5    6 1   
    10    5   23 1   
    11    5   24 1   
    12    6   25 1   
    13    6   26 1   
    14    6   27 1   
    15    7    8 1   
    16    7   17 1   
    17    9   10 1   
    18    9   28 1   
    19    9   29 1   
    20   10   11 1   
    21   10   30 1   
    22   10   31 1   
    23   11   12 1   
    24   11   32 1   
    25   11   43 1   
    26   12   13 1   
    27   12   33 1   
    28   12   44 1   
    29   13   34 1   
    30   13   35 1   
    31   13   36 1   
    32   14   15 1   
    33   14   16 1   
    34   14   37 1   
    35   14   38 1   
    36   16   17 1   
    37   16   18 1   
    38   16   39 1   
    39   18   40 1   
    40   18   41 1   
    41   18   42 1   
@<TRIPOS>SUBSTRUCTURE
     1 3PK         1 TEMP              0 ****  ****    0 ROOT
