@<TRIPOS>MOLECULE
3PK
   44    43     1     0     0
SMALL
bcc


@<TRIPOS>ATOM
      1 CA1         2.9080   -0.0620    0.7120 c         1 3PK      0.634100
      2 OA1         2.9960   -0.2560    1.9260 o         1 3PK     -0.543000
      3 CA2         3.7030    0.8600   -0.1590 c3        1 3PK     -0.126400
      4 CA3         5.1560    0.8920    0.2660 c3        1 3PK     -0.080400
      5 CA4         5.9250    1.9300   -0.5240 c3        1 3PK     -0.079400
      6 CA5         7.3780    1.9560   -0.1230 c3        1 3PK     -0.093100
      7 CB1        -2.2400   -1.0640   -0.4810 c         1 3PK      0.635100
      8 OB1        -2.6510   -2.2170   -0.6280 o         1 3PK     -0.546000
      9 CB2        -3.0000    0.2240   -0.5710 c3        1 3PK     -0.127400
     10 CB3        -4.3800    0.0840    0.0370 c3        1 3PK     -0.079400
     11 CB4        -5.1920    1.3410   -0.1810 c3        1 3PK     -0.079400
     12 CB5        -6.5670    1.2170    0.4400 c3        1 3PK     -0.080400
     13 CB6        -7.3860    2.4630    0.2230 c3        1 3PK     -0.093100
     14 CG1         1.1050   -1.6240    0.7670 c3        1 3PK      0.135400
     15 OG1         1.9570   -0.7530    0.0100 os        1 3PK     -0.435900
     16 CG2        -0.0660   -2.0290   -0.1280 c3        1 3PK      0.148100
     17 OG2        -0.9140   -0.8670   -0.2100 os        1 3PK     -0.439900
     18 CG3         0.3660   -2.4550   -1.5140 c3        1 3PK     -0.114100
     19 H1A2        3.6120    0.5400   -1.2310 hc        1 3PK      0.078700
     20 H2A2        3.2460    1.8830   -0.0660 hc        1 3PK      0.078700
     21 H1A3        5.2200    1.1190    1.3630 hc        1 3PK      0.057700
     22 H2A3        5.6160   -0.1190    0.1100 hc        1 3PK      0.057700
     23 H1A4        5.8400    1.7060   -1.6200 hc        1 3PK      0.040200
     24 H2A4        5.4700    2.9420   -0.3560 hc        1 3PK      0.040200
     25 H1A5        7.4830    2.1960    0.9630 hc        1 3PK      0.035700
     26 H2A5        7.8560    0.9640   -0.3100 hc        1 3PK      0.035700
     27 H3A5        7.9270    2.7300   -0.7120 hc        1 3PK      0.035700
     28 H1B2       -2.4240    1.0390   -0.0590 hc        1 3PK      0.078700
     29 H2B2       -3.0780    0.4900   -1.6600 hc        1 3PK      0.078700
     30 H1B3       -4.9020   -0.7970   -0.4230 hc        1 3PK      0.057700
     31 H2B3       -4.2870   -0.1220    1.1360 hc        1 3PK      0.057700
     32 HB4        -4.6570    2.2200    0.2650 hc        1 3PK      0.041200
     33 HB5        -7.0990    0.3340   -0.0040 hc        1 3PK      0.041700
     34 H1B6       -8.3940    2.3510    0.6890 hc        1 3PK      0.033367
     35 H2B6       -6.8830    3.3500    0.6790 hc        1 3PK      0.033367
     36 H3B6       -7.5210    2.6610   -0.8680 hc        1 3PK      0.033367
     37 H1G1        1.6960   -2.5310    1.0560 h1        1 3PK      0.065200
     38 H2G1        0.7420   -1.0920    1.6850 h1        1 3PK      0.065200
     39 HG2        -0.6310   -2.8600    0.3820 h1        1 3PK      0.076700
     40 H1G3        0.8740   -1.6100   -2.0380 hc        1 3PK      0.053367
     41 H2G3        1.0770   -3.3110   -1.4370 hc        1 3PK      0.053367
     42 H3G3       -0.5270   -2.7690   -2.1060 hc        1 3PK      0.053367
     43 H25        -5.2950    1.5390   -1.2810 hc        1 3PK      0.041200
     44 H26        -6.4640    1.0210    1.5400 hc        1 3PK      0.041700
@<TRIPOS>BOND
     1    1    2 2   
     2    1    3 1   
     3    1   15 1   
     4    3    4 1   
     5    3   19 1   
     6    3   20 1   
     7    4    5 1   
     8    4   21 1   
     9    4   22 1   
    10    5    6 1   
    11    5   23 1   
    12    5   24 1   
    13    6   25 1   
    14    6   26 1   
    15    6   27 1   
    16    7    8 2   
    17    7    9 1   
    18    7   17 1   
    19    9   10 1   
    20    9   28 1   
    21    9   29 1   
    22   10   11 1   
    23   10   30 1   
    24   10   31 1   
    25   11   12 1   
    26   11   32 1   
    27   11   43 1   
    28   12   13 1   
    29   12   33 1   
    30   12   44 1   
    31   13   34 1   
    32   13   35 1   
    33   13   36 1   
    34   14   15 1   
    35   14   16 1   
    36   14   37 1   
    37   14   38 1   
    38   16   17 1   
    39   16   18 1   
    40   16   39 1   
    41   18   40 1   
    42   18   41 1   
    43   18   42 1   
@<TRIPOS>SUBSTRUCTURE
     1 3PK         1 TEMP              0 ****  ****    0 ROOT
