@<TRIPOS>MOLECULE
3PL
   20    17     1     0     0
SMALL
bcc


@<TRIPOS>ATOM
      1 C          -1.7980    1.7430   -2.3620 c1        1 3PL      0.182000
      2 O          -2.5000    2.6470   -1.9470 o         1 3PL     -0.286000
      3 CA         -1.3540    0.6400   -1.4270 c2        1 3PL     -0.230000
      4 CB          0.0850    0.8710   -1.0220 c3        1 3PL     -0.117000
      5 CG          0.4320   -0.0300    0.1430 c2        1 3PL     -0.077000
      6 CD1         0.3140    0.4400    1.4420 c1        1 3PL     -0.126000
      7 CE1         0.6930   -0.3620    2.5060 c1        1 3PL     -0.127500
      8 CZ          1.1890   -1.6350    2.2730 c1        1 3PL     -0.127500
      9 CE2         1.3070   -2.1050    0.9750 c1        1 3PL     -0.127000
     10 CD2         0.9280   -1.3030   -0.0900 c2        1 3PL     -0.125000
     11 H          -1.5210    1.7310   -3.3000 ha        1 3PL      0.086000
     12 HA1        -1.4300   -0.2230   -1.8820 ha        1 3PL      0.118000
     13 HA2        -1.9210    0.6400   -0.6300 ha        1 3PL      0.118000
     14 HB1         0.2030    1.8060   -0.7570 hc        1 3PL      0.090000
     15 HB2         0.6730    0.6690   -1.7770 hc        1 3PL      0.090000
     16 HD1        -0.0350    1.3370    1.6060 ha        1 3PL      0.133000
     17 HE1         0.6100   -0.0310    3.4210 ha        1 3PL      0.133000
     18 HZ          1.4560   -2.2000    3.0230 ha        1 3PL      0.133000
     19 HE2         1.6570   -3.0020    0.8100 ha        1 3PL      0.132000
     20 HD2         1.0110   -1.6340   -1.0050 ha        1 3PL      0.131000
@<TRIPOS>BOND
     1    1    2 1   
     2    1   11 1   
     3    3    4 1   
     4    3   12 1   
     5    3   13 1   
     6    4    5 1   
     7    4   14 1   
     8    4   15 1   
     9    5    6 1   
    10    5   10 1   
    11    6   16 1   
    12    7    8 1   
    13    7   17 1   
    14    8   18 1   
    15    9   10 1   
    16    9   19 1   
    17   10   20 1   
@<TRIPOS>SUBSTRUCTURE
     1 3PL         1 TEMP              0 ****  ****    0 ROOT
