@<TRIPOS>MOLECULE
3PL
   20    20     1     0     0
SMALL
bcc


@<TRIPOS>ATOM
      1 C           0.1100    0.0710    0.0410 c         1 3PL      0.563900
      2 O           1.2960   -0.2420   -0.0630 o         1 3PL     -0.525100
      3 CA         -0.6090    0.1130    1.3540 c3        1 3PL     -0.201400
      4 CB         -1.7330    1.1310    1.3410 c3        1 3PL     -0.031100
      5 CG         -2.4450    1.1730    2.6470 ca        1 3PL     -0.084300
      6 CD1        -3.7350    0.6460    2.7710 ca        1 3PL     -0.125500
      7 CE1        -4.4010    0.6980    3.9950 ca        1 3PL     -0.126500
      8 CZ         -3.7840    1.2760    5.1040 ca        1 3PL     -0.129000
      9 CE2        -2.4980    1.8050    4.9860 ca        1 3PL     -0.126500
     10 CD2        -1.8310    1.7550    3.7640 ca        1 3PL     -0.125500
     11 H          -0.5020    0.3320   -0.8520 h4        1 3PL     -0.006800
     12 HA1        -1.0230   -0.9120    1.5540 hc        1 3PL      0.078700
     13 HA2         0.1120    0.3460    2.1820 hc        1 3PL      0.078700
     14 HB1        -1.3110    2.1480    1.1170 hc        1 3PL      0.050700
     15 HB2        -2.4540    0.8820    0.5170 hc        1 3PL      0.050700
     16 HD1        -4.2270    0.1890    1.9000 ha        1 3PL      0.132000
     17 HE1        -5.4150    0.2810    4.0850 ha        1 3PL      0.132500
     18 HZ         -4.3100    1.3170    6.0690 ha        1 3PL      0.133000
     19 HE2        -2.0100    2.2630    5.8580 ha        1 3PL      0.132500
     20 HD2        -0.8180    2.1730    3.6710 ha        1 3PL      0.132000
@<TRIPOS>BOND
     1    1    2 2   
     2    1    3 1   
     3    1   11 1   
     4    3    4 1   
     5    3   12 1   
     6    3   13 1   
     7    4    5 1   
     8    4   14 1   
     9    4   15 1   
    10    5    6 ar  
    11    5   10 ar  
    12    6    7 ar  
    13    6   16 1   
    14    7    8 ar  
    15    7   17 1   
    16    8    9 ar  
    17    8   18 1   
    18    9   10 ar  
    19    9   19 1   
    20   10   20 1   
@<TRIPOS>SUBSTRUCTURE
     1 3PL         1 TEMP              0 ****  ****    0 ROOT
