@<TRIPOS>MOLECULE
3PL
   20    20     1     0     0
SMALL
bcc


@<TRIPOS>ATOM
      1 C           0.1010    0.0670    0.0350 c         1 3PL      0.563900
      2 O           1.2810   -0.2710   -0.0700 o         1 3PL     -0.525100
      3 CA         -0.6230    0.1010    1.3450 c3        1 3PL     -0.201400
      4 CB         -1.7210    1.1460    1.3480 c3        1 3PL     -0.031100
      5 CG         -2.4380    1.1810    2.6520 ca        1 3PL     -0.084300
      6 CD1        -3.7410    0.6850    2.7600 ca        1 3PL     -0.125500
      7 CE1        -4.4110    0.7300    3.9820 ca        1 3PL     -0.126500
      8 CZ         -3.7850    1.2700    5.1040 ca        1 3PL     -0.129000
      9 CE2        -2.4860    1.7680    5.0020 ca        1 3PL     -0.126500
     10 CD2        -1.8150    1.7240    3.7820 ca        1 3PL     -0.125500
     11 H          -0.5010    0.3580   -0.8550 h4        1 3PL     -0.006800
     12 HA1        -1.0620   -0.9180    1.5250 hc        1 3PL      0.078700
     13 HA2         0.1010    0.3010    2.1810 hc        1 3PL      0.078700
     14 HB1        -1.2730    2.1570    1.1450 hc        1 3PL      0.050700
     15 HB2        -2.4450    0.9310    0.5160 hc        1 3PL      0.050700
     16 HD1        -4.2410    0.2590    1.8770 ha        1 3PL      0.132000
     17 HE1        -5.4360    0.3380    4.0590 ha        1 3PL      0.132500
     18 HZ         -4.3140    1.3050    6.0670 ha        1 3PL      0.133000
     19 HE2        -1.9900    2.1960    5.8860 ha        1 3PL      0.132500
     20 HD2        -0.7900    2.1180    3.7020 ha        1 3PL      0.132000
@<TRIPOS>BOND
     1    1    2 2   
     2    1    3 1   
     3    1   11 1   
     4    3    4 1   
     5    3   12 1   
     6    3   13 1   
     7    4    5 1   
     8    4   14 1   
     9    4   15 1   
    10    5    6 ar  
    11    5   10 ar  
    12    6    7 ar  
    13    6   16 1   
    14    7    8 ar  
    15    7   17 1   
    16    8    9 ar  
    17    8   18 1   
    18    9   10 ar  
    19    9   19 1   
    20   10   20 1   
@<TRIPOS>SUBSTRUCTURE
     1 3PL         1 TEMP              0 ****  ****    0 ROOT
