@<TRIPOS>MOLECULE
3PL
   20    20     1     0     0
SMALL
bcc


@<TRIPOS>ATOM
      1 C           0.2320    0.0180   -3.2720 c         1 3PL      0.563900
      2 O          -0.4050    0.5320   -4.1920 o         1 3PL     -0.525100
      3 CA          0.0500    0.4080   -1.8380 c3        1 3PL     -0.201400
      4 CB          0.3590   -0.7460   -0.9040 c3        1 3PL     -0.031100
      5 CG          0.1750   -0.3580    0.5210 ca        1 3PL     -0.084300
      6 CD1         1.2820   -0.1760    1.3570 ca        1 3PL     -0.125500
      7 CE1         1.1030    0.1770    2.6940 ca        1 3PL     -0.126500
      8 CZ         -0.1820    0.3510    3.2060 ca        1 3PL     -0.129000
      9 CE2        -1.2900    0.1710    2.3770 ca        1 3PL     -0.126500
     10 CD2        -1.1130   -0.1830    1.0410 ca        1 3PL     -0.125500
     11 H           0.9980   -0.7670   -3.4640 h4        1 3PL     -0.006800
     12 HA1         0.7390    1.2700   -1.6240 hc        1 3PL      0.078700
     13 HA2        -0.9980    0.7720   -1.6670 hc        1 3PL      0.078700
     14 HB1        -0.3200   -1.6090   -1.1430 hc        1 3PL      0.050700
     15 HB2         1.4130   -1.0950   -1.0750 hc        1 3PL      0.050700
     16 HD1         2.2990   -0.3140    0.9590 ha        1 3PL      0.132000
     17 HE1         1.9780    0.3170    3.3450 ha        1 3PL      0.132500
     18 HZ         -0.3230    0.6300    4.2600 ha        1 3PL      0.133000
     19 HE2        -2.3050    0.3060    2.7780 ha        1 3PL      0.132500
     20 HD2        -1.9880   -0.3260    0.3890 ha        1 3PL      0.132000
@<TRIPOS>BOND
     1    1    2 2   
     2    1    3 1   
     3    1   11 1   
     4    3    4 1   
     5    3   12 1   
     6    3   13 1   
     7    4    5 1   
     8    4   14 1   
     9    4   15 1   
    10    5    6 ar  
    11    5   10 ar  
    12    6    7 ar  
    13    6   16 1   
    14    7    8 ar  
    15    7   17 1   
    16    8    9 ar  
    17    8   18 1   
    18    9   10 ar  
    19    9   19 1   
    20   10   20 1   
@<TRIPOS>SUBSTRUCTURE
     1 3PL         1 TEMP              0 ****  ****    0 ROOT
