@<TRIPOS>MOLECULE
3PM
   25    24     1     0     0
SMALL
bcc


@<TRIPOS>ATOM
      1 N          -2.1220    0.9080   -1.9250 n3        1 3PM     -0.882800
      2 CA         -0.7280    0.6380   -2.0090 c3        1 3PM      0.018500
      3 C11        -0.1320    0.6290   -0.6200 c3        1 3PM      0.135400
      4 O12        -0.2040   -0.6730   -0.0870 os        1 3PM     -0.419600
      5 C13         0.3960   -0.8040    1.1770 c3        1 3PM      0.151800
      6 C15         1.8830   -0.5490    1.0570 c3        1 3PM     -0.105433
      7 C16         0.1650   -2.2040    1.7020 c3        1 3PM     -0.105433
      8 C14        -0.2120    0.1990    2.1310 c3        1 3PM     -0.105433
      9 C          -0.0570    1.7090   -2.8380 c         1 3PM      0.887600
     10 O          -0.1470    2.9180   -2.4980 o         1 3PM     -0.841800
     11 HN9        -2.3510    1.5310   -2.5560 hn        1 3PM      0.329800
     12 H10        -0.5890   -0.2340   -2.4290 h1        1 3PM      0.057700
     13 H11        -0.6320    1.2450   -0.0460 h1        1 3PM      0.036200
     14 H11A        0.8050    0.9120   -0.6650 h1        1 3PM      0.036200
     15 H15         2.3330   -0.8540    1.8730 hc        1 3PM      0.035367
     16 H15A        2.0410    0.4110    0.9360 hc        1 3PM      0.035367
     17 H15B        2.2370   -1.0390    0.2860 hc        1 3PM      0.035367
     18 H16         0.5810   -2.2950    2.5840 hc        1 3PM      0.035367
     19 H16A       -0.7980   -2.3700    1.7760 hc        1 3PM      0.035367
     20 H16B        0.5630   -2.8540    1.0850 hc        1 3PM      0.035367
     21 H14        -1.1760    0.2680    1.9630 hc        1 3PM      0.035367
     22 H14A        0.2060    1.0750    1.9950 hc        1 3PM      0.035367
     23 H14B       -0.0620   -0.0950    3.0540 hc        1 3PM      0.035367
     24 H2         -2.5920    0.1360   -2.0750 hn        1 3PM      0.329800
     25 OXT         0.5920    1.3920   -3.8700 o         1 3PM     -0.841800
@<TRIPOS>BOND
     1    1    2 1   
     2    1   11 1   
     3    1   24 1   
     4    2    3 1   
     5    2    9 1   
     6    2   12 1   
     7    3    4 1   
     8    3   13 1   
     9    3   14 1   
    10    4    5 1   
    11    5    6 1   
    12    5    7 1   
    13    5    8 1   
    14    6   15 1   
    15    6   16 1   
    16    6   17 1   
    17    7   18 1   
    18    7   19 1   
    19    7   20 1   
    20    8   21 1   
    21    8   22 1   
    22    8   23 1   
    23    9   10 1   
    24    9   25 1   
@<TRIPOS>SUBSTRUCTURE
     1 3PM         1 TEMP              0 ****  ****    0 ROOT
