@<TRIPOS>MOLECULE
3PM
   25    24     1     0     0
SMALL
bcc


@<TRIPOS>ATOM
      1 N           1.4050    1.9170   -0.7420 n3        1 3PM     -0.882800
      2 CA          1.2030    0.4930   -0.5180 c3        1 3PM      0.018500
      3 C11        -0.0120    0.1690    0.3570 c3        1 3PM      0.135400
      4 O12        -1.1920    0.4390   -0.4030 os        1 3PM     -0.419600
      5 C13        -2.3770   -0.2010    0.0800 c3        1 3PM      0.151800
      6 C15        -2.5610   -0.0030    1.5790 c3        1 3PM     -0.105433
      7 C16        -3.5170    0.4820   -0.6750 c3        1 3PM     -0.105433
      8 C14        -2.3560   -1.6880   -0.2560 c3        1 3PM     -0.105433
      9 C           2.4360   -0.2490    0.1070 c         1 3PM      0.887600
     10 O           3.5140    0.3980    0.2350 o         1 3PM     -0.841800
     11 HN9         1.2840    2.4030    0.1280 hn        1 3PM      0.329800
     12 H10         1.0310    0.0330   -1.5340 h1        1 3PM      0.057700
     13 H11         0.0400   -0.9150    0.6450 h1        1 3PM      0.036200
     14 H11A       -0.0380    0.8010    1.2850 h1        1 3PM      0.036200
     15 H15        -2.4560    1.0790    1.8350 hc        1 3PM      0.035367
     16 H15A       -3.5730   -0.3540    1.8870 hc        1 3PM      0.035367
     17 H15B       -1.7910   -0.5790    2.1470 hc        1 3PM      0.035367
     18 H16        -3.3570    0.3770   -1.7740 hc        1 3PM      0.035367
     19 H16A       -4.4880    0.0130   -0.3960 hc        1 3PM      0.035367
     20 H16B       -3.5430    1.5680   -0.4230 hc        1 3PM      0.035367
     21 H14        -1.5620   -2.2130    0.3250 hc        1 3PM      0.035367
     22 H14A       -3.3440   -2.1470   -0.0140 hc        1 3PM      0.035367
     23 H14B       -2.1450   -1.8240   -1.3430 hc        1 3PM      0.035367
     24 H2          2.3710    2.0410   -1.0070 hn        1 3PM      0.329800
     25 OXT         2.2870   -1.4600    0.4300 o         1 3PM     -0.841800
@<TRIPOS>BOND
     1    1    2 1   
     2    1   11 1   
     3    1   24 1   
     4    2    3 1   
     5    2    9 1   
     6    2   12 1   
     7    3    4 1   
     8    3   13 1   
     9    3   14 1   
    10    4    5 1   
    11    5    6 1   
    12    5    7 1   
    13    5    8 1   
    14    6   15 1   
    15    6   16 1   
    16    6   17 1   
    17    7   18 1   
    18    7   19 1   
    19    7   20 1   
    20    8   21 1   
    21    8   22 1   
    22    8   23 1   
    23    9   10 1   
    24    9   25 1   
@<TRIPOS>SUBSTRUCTURE
     1 3PM         1 TEMP              0 ****  ****    0 ROOT
