@<TRIPOS>MOLECULE
3PO
   13     9     1     0     0
SMALL
bcc


@<TRIPOS>ATOM
      1 PG          1.9300   -1.9520    0.3960 p3        1 3PO      2.689000
      2 O1G         3.4020   -1.9360    0.7340 o         1 3PO     -1.327000
      3 O2G         1.1630   -2.6090    1.5180 os        1 3PO     -1.322667
      4 O3G         1.7150   -2.7260   -0.8820 o         1 3PO     -1.327000
      5 PB         -0.1020   -0.0870   -0.0040 p3        1 3PO      2.833000
      6 O1B        -0.9050   -0.5430    1.1910 o         1 3PO     -1.302000
      7 O2B        -0.6240   -0.7640   -1.2490 os        1 3PO     -1.322667
      8 O3B         1.4180   -0.4690    0.2060 os        1 3PO     -1.317000
      9 PA         -1.6120    2.2240   -0.3840 p3        1 3PO      2.689000
     10 O1A        -1.3530    3.6810   -0.6840 o         1 3PO     -1.327000
     11 O2A        -2.3420    1.5930   -1.5460 os        1 3PO     -1.322667
     12 O3A        -0.2350    1.4800   -0.1600 os        1 3PO     -1.317000
     13 O5'        -2.4550    2.1090    0.8630 o         1 3PO     -1.327000
@<TRIPOS>BOND
     1    1    2 1   
     2    1    4 1   
     3    1    8 1   
     4    5    6 1   
     5    5    8 1   
     6    5   12 1   
     7    9   10 1   
     8    9   12 1   
     9    9   13 1   
@<TRIPOS>SUBSTRUCTURE
     1 3PO         1 TEMP              0 ****  ****    0 ROOT
