@<TRIPOS>MOLECULE
3PO
   13    12     1     0     0
SMALL
bcc


@<TRIPOS>ATOM
      1 PG         -0.1110   -0.4460    2.9620 p5        1 3PO      1.496900
      2 O1G         0.1970    0.7050    3.9110 o         1 3PO     -1.009500
      3 O2G         0.8840   -1.5800    3.1570 o         1 3PO     -1.009500
      4 O3G        -1.5380   -0.9340    3.1590 o         1 3PO     -1.009500
      5 PB          0.2760    1.0110   -0.0000 p5        1 3PO      1.726800
      6 O1B         1.7070    1.4670   -0.0010 o         1 3PO     -0.982500
      7 O2B        -0.7380    2.1190    0.0010 o         1 3PO     -0.982500
      8 O3B         0.0420    0.1330    1.3620 os        1 3PO     -0.849800
      9 PA         -0.1150   -0.4460   -2.9620 p5        1 3PO      1.496900
     10 O1A         0.1910    0.7050   -3.9110 o         1 3PO     -1.009500
     11 O2A         0.8800   -1.5790   -3.1590 o         1 3PO     -1.009500
     12 O3A         0.0410    0.1330   -1.3620 os        1 3PO     -0.849800
     13 O5'        -1.5420   -0.9330   -3.1570 o         1 3PO     -1.009500
@<TRIPOS>BOND
     1    1    2 1   
     2    1    3 1   
     3    1    4 1   
     4    1    8 1   
     5    5    6 1   
     6    5    7 1   
     7    5    8 1   
     8    5   12 1   
     9    9   10 1   
    10    9   11 1   
    11    9   12 1   
    12    9   13 1   
@<TRIPOS>SUBSTRUCTURE
     1 3PO         1 TEMP              0 ****  ****    0 ROOT
