@<TRIPOS>MOLECULE
3PP
   13    12     1     0     0
SMALL
bcc


@<TRIPOS>ATOM
      1 CB          0.0170   -0.3210    0.0960 c3        1 3PP     -0.259600
      2 CG          1.3990    0.2250   -0.0630 c3        1 3PP     -0.126400
      3 P          -0.5370   -0.0560    1.7590 p5        1 3PP      1.228700
      4 CD          2.0270    0.1180   -1.4490 c         1 3PP      0.892600
      5 OE1         1.6900    0.9080   -2.3950 o         1 3PP     -0.931800
      6 OE2         2.9600   -0.7310   -1.6700 o         1 3PP     -0.931800
      7 O1         -2.0160   -0.4230    1.6990 o         1 3PP     -0.982833
      8 O2         -0.3150    1.4090    2.0970 o         1 3PP     -0.982833
      9 O3          0.2570   -1.0050    2.6430 o         1 3PP     -0.982833
     10 HCB1       -0.0070   -1.4120   -0.1190 hc        1 3PP      0.009200
     11 HCB2       -0.6870    0.1780   -0.6060 hc        1 3PP      0.009200
     12 HCG1        1.3640    1.3080    0.2310 hc        1 3PP      0.029700
     13 HCG2        2.0600   -0.3050    0.6730 hc        1 3PP      0.029700
@<TRIPOS>BOND
     1    1    2 1   
     2    1    3 1   
     3    1   10 1   
     4    1   11 1   
     5    2    4 1   
     6    2   12 1   
     7    2   13 1   
     8    3    7 1   
     9    3    8 1   
    10    3    9 1   
    11    4    5 1   
    12    4    6 1   
@<TRIPOS>SUBSTRUCTURE
     1 3PP         1 TEMP              0 ****  ****    0 ROOT
