@<TRIPOS>MOLECULE
3PP
   13    12     1     0     0
SMALL
bcc


@<TRIPOS>ATOM
      1 CB         -0.6230    0.0260   -0.2130 c3        1 3PP     -0.259600
      2 CG          0.8870   -0.0780   -0.2190 c3        1 3PP     -0.126400
      3 P          -1.2130    0.1480    1.5000 p5        1 3PP      1.228700
      4 CD          1.3810   -0.1520   -1.6470 c         1 3PP      0.892600
      5 OE1         1.5860   -1.2720   -2.1850 o         1 3PP     -0.931800
      6 OE2         1.5870    0.9060   -2.2980 o         1 3PP     -0.931800
      7 O1         -0.5910    1.3540    2.1620 o         1 3PP     -0.982833
      8 O2         -0.8240   -1.0990    2.2570 o         1 3PP     -0.982833
      9 O3         -2.7170    0.2910    1.5050 o         1 3PP     -0.982833
     10 HCB1       -0.8970    0.8230   -0.7100 hc        1 3PP      0.008700
     11 HCB2       -1.0060   -0.7690   -0.6340 hc        1 3PP      0.008700
     12 HCG1        1.1600   -0.8840    0.2630 hc        1 3PP      0.029700
     13 HCG2        1.2700    0.7090    0.2180 hc        1 3PP      0.029700
@<TRIPOS>BOND
     1    1    2 1   
     2    1    3 1   
     3    1   10 1   
     4    1   11 1   
     5    2    4 1   
     6    2   12 1   
     7    2   13 1   
     8    3    7 1   
     9    3    8 1   
    10    3    9 1   
    11    4    5 1   
    12    4    6 1   
@<TRIPOS>SUBSTRUCTURE
     1 3PP         1 TEMP              0 ****  ****    0 ROOT
