@<TRIPOS>MOLECULE
3PP
   13    12     1     0     0
SMALL
bcc


@<TRIPOS>ATOM
      1 CB          0.6130   -0.2140    0.0570 c3        1 3PP     -0.259600
      2 CG         -0.3980    0.1610    1.0920 c3        1 3PP     -0.126400
      3 P          -0.0760    0.0250   -1.5580 p5        1 3PP      1.228700
      4 CD          0.0360    0.0520    2.5510 c         1 3PP      0.892600
      5 OE1         0.7880    0.9350    3.0870 o         1 3PP     -0.931800
      6 OE2        -0.4050   -0.8990    3.2850 o         1 3PP     -0.931800
      7 O1          1.1230   -0.1560   -2.4830 o         1 3PP     -0.982833
      8 O2         -0.6490    1.4310   -1.6180 o         1 3PP     -0.982833
      9 O3         -1.1230   -1.0610   -1.7550 o         1 3PP     -0.982833
     10 HCB1        1.5290    0.4090    0.1570 hc        1 3PP      0.008700
     11 HCB2        0.9160   -1.2790    0.1630 hc        1 3PP      0.008700
     12 HCG1       -1.3000   -0.4890    0.9360 hc        1 3PP      0.029700
     13 HCG2       -0.7050    1.2220    0.8880 hc        1 3PP      0.029700
@<TRIPOS>BOND
     1    1    2 1   
     2    1    3 1   
     3    1   10 1   
     4    1   11 1   
     5    2    4 1   
     6    2   12 1   
     7    2   13 1   
     8    3    7 1   
     9    3    8 1   
    10    3    9 1   
    11    4    5 1   
    12    4    6 1   
@<TRIPOS>SUBSTRUCTURE
     1 3PP         1 TEMP              0 ****  ****    0 ROOT
