@<TRIPOS>MOLECULE
3PP
   13    12     1     0     0
SMALL
bcc


@<TRIPOS>ATOM
      1 CB         -0.0300    0.1570    0.0620 c3        1 3PP     -0.259600
      2 CG          1.4350   -0.1160   -0.0370 c3        1 3PP     -0.126400
      3 P          -0.5520   -0.0100    1.7480 p5        1 3PP      1.228700
      4 CD          2.0570   -0.0530   -1.4290 c         1 3PP      0.892600
      5 OE1         1.9080   -1.0070   -2.2660 o         1 3PP     -0.931800
      6 OE2         2.7990    0.9360   -1.7590 o         1 3PP     -0.931800
      7 O1         -2.0740    0.0520    1.6530 o         1 3PP     -0.982833
      8 O2          0.0260    1.1740    2.5070 o         1 3PP     -0.982833
      9 O3         -0.0570   -1.3530    2.2590 o         1 3PP     -0.982833
     10 HCB1       -0.6080   -0.5520   -0.5700 hc        1 3PP      0.008700
     11 HCB2       -0.2670    1.1870   -0.2850 hc        1 3PP      0.008700
     12 HCG1        1.9630    0.6200    0.6260 hc        1 3PP      0.029700
     13 HCG2        1.6110   -1.1420    0.3870 hc        1 3PP      0.029700
@<TRIPOS>BOND
     1    1    2 1   
     2    1    3 1   
     3    1   10 1   
     4    1   11 1   
     5    2    4 1   
     6    2   12 1   
     7    2   13 1   
     8    3    7 1   
     9    3    8 1   
    10    3    9 1   
    11    4    5 1   
    12    4    6 1   
@<TRIPOS>SUBSTRUCTURE
     1 3PP         1 TEMP              0 ****  ****    0 ROOT
