@<TRIPOS>MOLECULE
3PQ
   36    37     1     0     0
SMALL
bcc


@<TRIPOS>ATOM
      1 C7         -0.4020   -0.9940    0.5960 c         1 3PQ      0.695500
      2 C6         -0.1440    0.8450    2.3140 c3        1 3PQ     -0.125100
      3 N1          0.3530   -2.1670    0.6360 ns        1 3PQ     -0.594500
      4 C5         -0.6580   -0.5690    2.0920 c3        1 3PQ     -0.045600
      5 C2          0.6450   -2.5370    1.9770 c         1 3PQ      0.771500
      6 C16        -2.6370   -2.0110    7.9830 ca        1 3PQ     -0.155500
      7 C21        -3.3660   -3.1110    5.9250 ca        1 3PQ     -0.155500
      8 C17        -2.1990   -3.2380    8.4740 ca        1 3PQ     -0.085500
      9 C20        -2.9310   -4.3350    6.4300 ca        1 3PQ     -0.085500
     10 C13        -4.6040   -0.5940    5.3340 c3        1 3PQ      0.065400
     11 C9         -2.1980   -0.6190    2.2710 c3        1 3PQ      0.116800
     12 C15        -3.2090   -1.9610    6.7040 ca        1 3PQ      0.040100
     13 C18        -2.3420   -4.3970    7.6990 ca        1 3PQ      0.017400
     14 C11        -4.1200   -0.6120    3.8910 c         1 3PQ      0.501100
     15 N4          0.0060   -1.6150    2.8950 ns        1 3PQ     -0.528900
     16 N10        -2.6200   -0.6780    3.6940 ny        1 3PQ     -0.666800
     17 O8         -0.8200   -0.3980   -0.3930 o         1 3PQ     -0.526500
     18 O3          1.3040   -3.5220    2.3180 o         1 3PQ     -0.527500
     19 O12        -4.8190   -0.5630    2.8940 o         1 3PQ     -0.393100
     20 O14        -3.5390   -0.6790    6.2530 os        1 3PQ     -0.332900
     21 Cl1        -1.8100   -5.8830    8.3040 cl        1 3PQ     -0.031400
     22 H1         -0.6190    1.5330    1.5700 hc        1 3PQ      0.075033
     23 H2          0.9640    0.8930    2.1650 hc        1 3PQ      0.075033
     24 H3         -0.3760    1.2000    3.3460 hc        1 3PQ      0.075033
     25 H4          0.6870   -2.6680   -0.1530 hn        1 3PQ      0.386500
     26 H7         -1.7470   -3.2940    9.4790 ha        1 3PQ      0.173000
     27 H8         -3.0560   -5.2520    5.8310 ha        1 3PQ      0.173000
     28 H9         -5.0770    0.4160    5.5210 h1        1 3PQ      0.140200
     29 H10        -5.3680   -1.4110    5.4580 h1        1 3PQ      0.140200
     30 H11        -2.6220   -1.5270    1.7510 hx        1 3PQ      0.126200
     31 H12        -2.6450    0.3010    1.7930 hx        1 3PQ      0.126200
     32 H13         0.6280   -1.2740    3.6000 hn        1 3PQ      0.316500
     33 H14        -2.2890   -1.5570    4.1280 hn        1 3PQ      0.473800
     34 H5         -2.5400   -1.0920    8.5820 ha        1 3PQ      0.146500
     35 H102       -2.1970    0.0980    4.2200 hn        1 3PQ      0.473800
     36 H6         -3.8610   -3.0790    4.9440 ha        1 3PQ      0.146500
@<TRIPOS>BOND
     1    1    3 1   
     2    1    4 1   
     3    1   17 2   
     4    2    4 1   
     5    2   22 1   
     6    2   23 1   
     7    2   24 1   
     8    3    5 1   
     9    3   25 1   
    10    4   11 1   
    11    4   15 1   
    12    5   15 1   
    13    5   18 2   
    14    6    8 ar  
    15    6   12 ar  
    16    6   34 1   
    17    7    9 ar  
    18    7   12 ar  
    19    7   36 1   
    20    8   13 ar  
    21    8   26 1   
    22    9   13 ar  
    23    9   27 1   
    24   10   14 1   
    25   10   20 1   
    26   10   28 1   
    27   10   29 1   
    28   11   16 1   
    29   11   30 1   
    30   11   31 1   
    31   12   20 1   
    32   13   21 1   
    33   14   16 1   
    34   14   19 2   
    35   15   32 1   
    36   16   33 1   
    37   16   35 1   
@<TRIPOS>SUBSTRUCTURE
     1 3PQ         1 TEMP              0 ****  ****    0 ROOT
