@<TRIPOS>MOLECULE
3PQ
   36    37     1     0     0
SMALL
bcc


@<TRIPOS>ATOM
      1 C7          0.2650   -0.9040    1.0110 c         1 3PQ      0.695500
      2 C6         -0.8620    1.0620    2.1360 c3        1 3PQ     -0.125100
      3 N1          1.3810   -1.5390    1.5580 n         1 3PQ     -0.594500
      4 C5         -0.6290   -0.4390    2.2240 c3        1 3PQ     -0.045600
      5 C2          1.3360   -1.5140    2.9780 c         1 3PQ      0.771500
      6 C16        -3.6670   -1.7400    7.6810 ca        1 3PQ     -0.155500
      7 C21        -3.1290   -3.3580    5.9270 ca        1 3PQ     -0.155500
      8 C17        -2.9470   -2.5050    8.5950 ca        1 3PQ     -0.085500
      9 C20        -2.4180   -4.1180    6.8540 ca        1 3PQ     -0.085500
     10 C13        -5.0320   -1.8910    4.3630 c3        1 3PQ      0.065400
     11 C9         -1.9670   -1.2050    2.0600 c3        1 3PQ      0.116800
     12 C15        -3.7410   -2.1730    6.3500 ca        1 3PQ      0.040100
     13 C18        -2.3210   -3.6890    8.1830 ca        1 3PQ      0.017400
     14 C11        -4.1330   -1.8920    3.1350 c         1 3PQ      0.501100
     15 N4          0.1030   -0.8940    3.4220 n         1 3PQ     -0.528900
     16 N10        -2.7740   -1.2460    3.3070 n4        1 3PQ     -0.667800
     17 O8         -0.0080   -0.7440   -0.1740 o         1 3PQ     -0.526500
     18 O3          2.1920   -1.9880    3.7280 o         1 3PQ     -0.527500
     19 O12        -4.4090   -2.3440    2.0380 o         1 3PQ     -0.393100
     20 O14        -4.4060   -1.3020    5.4800 os        1 3PQ     -0.332900
     21 CL1        -1.4510   -4.6120    9.3000 cl        1 3PQ     -0.031400
     22 H1         -1.5510    1.4100    2.9420 hc        1 3PQ      0.075033
     23 H2          0.1030    1.6200    2.2310 hc        1 3PQ      0.075033
     24 H3         -1.3040    1.3110    1.1380 hc        1 3PQ      0.075033
     25 H4          2.1360   -1.9260    1.0430 hn        1 3PQ      0.386500
     26 H7         -2.8790   -2.1770    9.6470 ha        1 3PQ      0.173000
     27 H8         -1.9370   -5.0590    6.5370 ha        1 3PQ      0.173000
     28 H9         -5.3750   -2.9470    4.5480 h1        1 3PQ      0.140200
     29 H10        -5.9180   -1.2260    4.1350 h1        1 3PQ      0.140200
     30 H11        -1.7710   -2.2710    1.7440 hx        1 3PQ      0.126200
     31 H12        -2.5710   -0.7030    1.2480 hx        1 3PQ      0.126200
     32 H13         0.2500   -0.1910    4.1190 hn        1 3PQ      0.316500
     33 H14        -2.2700   -1.7740    4.0390 hn        1 3PQ      0.473800
     34 H5         -4.1710   -0.8120    7.9890 ha        1 3PQ      0.146500
     35 H102       -2.9180   -0.2930    3.6650 hn        1 3PQ      0.473800
     36 H6         -3.2310   -3.7230    4.8960 ha        1 3PQ      0.146500
@<TRIPOS>BOND
     1    1    3 1   
     2    1    4 1   
     3    1   17 2   
     4    2    4 1   
     5    2   22 1   
     6    2   23 1   
     7    2   24 1   
     8    3    5 1   
     9    3   25 1   
    10    4   11 1   
    11    4   15 1   
    12    5   15 1   
    13    5   18 2   
    14    6    8 ar  
    15    6   12 ar  
    16    6   34 1   
    17    7    9 ar  
    18    7   12 ar  
    19    7   36 1   
    20    8   13 ar  
    21    8   26 1   
    22    9   13 ar  
    23    9   27 1   
    24   10   14 1   
    25   10   20 1   
    26   10   28 1   
    27   10   29 1   
    28   11   16 1   
    29   11   30 1   
    30   11   31 1   
    31   12   20 1   
    32   13   21 1   
    33   14   16 1   
    34   14   19 2   
    35   15   32 1   
    36   16   33 1   
    37   16   35 1   
@<TRIPOS>SUBSTRUCTURE
     1 3PQ         1 TEMP              0 ****  ****    0 ROOT
