@<TRIPOS>MOLECULE
3PS
   38    34     1     0     0
SMALL
bcc


@<TRIPOS>ATOM
      1 C1         -1.7010    2.2450   -3.0140 c3        1 3PS     -0.162000
      2 N2          0.7370    2.2540   -3.0030 n1        1 3PS     -0.268000
      3 C3          1.9440    2.2770   -2.4090 c1        1 3PS      0.193000
      4 N4          2.8180    2.2350   -3.5260 n3        1 3PS     -0.344000
      5 C5          2.0370    2.2280   -1.0270 c1        1 3PS     -0.178000
      6 C6          0.9080    2.1560   -0.2740 c1        1 3PS      0.079000
      7 C7          1.0010    2.1180    1.1350 c2        1 3PS     -0.122000
      8 N8         -0.3120    2.1320   -0.8800 n1        1 3PS     -0.232000
      9 C9         -0.4010    2.1810   -2.2420 c1        1 3PS      0.092000
     10 C10         3.3920    2.2280    0.9810 c1        1 3PS     -0.158000
     11 C11         2.2420    2.1550    1.7490 c1        1 3PS     -0.042000
     12 C12         3.3020    2.2650   -0.4010 c2        1 3PS     -0.066000
     13 C13         0.5560    0.6930    1.3850 c2        1 3PS      0.365000
     14 O14         1.3550   -0.2170    1.2950 o         1 3PS     -0.353000
     15 N15        -0.8150    0.4120    1.6340 n         1 3PS     -0.289000
     16 C16        -1.2510   -0.9340    1.7780 c2        1 3PS     -0.014000
     17 C17        -0.3380   -1.9720    1.6700 c2        1 3PS     -0.051000
     18 N18        -0.7660   -3.2640    1.7180 n1        1 3PS     -0.182000
     19 C19        -2.0920   -3.5380    1.8710 c1        1 3PS      0.099000
     20 C20        -3.0060   -2.5030    1.9780 c1        1 3PS     -0.174000
     21 C21        -2.5780   -1.2070    1.9310 c1        1 3PS     -0.118000
     22 O22        -2.5400   -4.8700    1.8470 os        1 3PS     -0.208000
     23 C23        -1.9630   -5.6480    0.8210 c3        1 3PS     -0.063000
     24 H1         -1.6600    2.9790   -3.6630 hc        1 3PS      0.104000
     25 H1A        -1.8420    1.3980   -3.4880 hc        1 3PS      0.104000
     26 H1B        -2.4430    2.3980   -2.3930 hc        1 3PS      0.104000
     27 HN4         2.4780    2.2400   -4.3740 hn        1 3PS      0.225500
     28 HN4A        3.7230    2.2060   -3.3970 hn        1 3PS      0.225500
     29 H10         4.2660    2.2540    1.4140 ha        1 3PS      0.145000
     30 H11         2.3060    2.1280    2.7210 ha        1 3PS      0.158000
     31 H12         4.1120    2.3170   -0.9410 ha        1 3PS      0.131000
     32 HN15       -1.4160    1.0950    1.7000 hn        1 3PS      0.241000
     33 H17         0.6090   -1.7770    1.5610 h4        1 3PS      0.199000
     34 H20        -3.9550   -2.6990    2.0880 ha        1 3PS      0.157000
     35 H21        -3.2210   -0.4780    2.0070 ha        1 3PS      0.139000
     36 H23        -2.6610   -6.1830    0.3840 h1        1 3PS      0.087667
     37 H23A       -1.2850   -6.2460    1.2050 h1        1 3PS      0.087667
     38 H23B       -1.5410   -5.0580    0.1600 h1        1 3PS      0.087667
@<TRIPOS>BOND
     1    1    9 1   
     2    1   24 1   
     3    1   25 1   
     4    1   26 1   
     5    2    9 1   
     6    3    4 1   
     7    3    5 1   
     8    4   27 1   
     9    4   28 1   
    10    5   12 1   
    11    6    7 1   
    12    6    8 1   
    13    7   11 1   
    14    7   13 1   
    15   10   12 1   
    16   10   29 1   
    17   11   30 1   
    18   12   31 1   
    19   13   14 1   
    20   13   15 1   
    21   15   16 1   
    22   15   32 1   
    23   16   17 1   
    24   16   21 1   
    25   17   18 1   
    26   17   33 1   
    27   19   20 1   
    28   19   22 1   
    29   20   34 1   
    30   21   35 1   
    31   22   23 1   
    32   23   36 1   
    33   23   37 1   
    34   23   38 1   
@<TRIPOS>SUBSTRUCTURE
     1 3PS         1 TEMP              0 ****  ****    0 ROOT
