@<TRIPOS>MOLECULE
3PS
   38    39     1     0     0
SMALL
bcc


@<TRIPOS>ATOM
      1 C1          0.8480   -1.7730   -0.1770 c3        1 3PS     -0.159000
      2 N2          2.1260    0.2710    0.2880 n2        1 3PS     -0.230000
      3 C3          2.8470    1.0580    1.1520 c2        1 3PS      0.147000
      4 N4          3.2450    2.3220    0.7280 nv        1 3PS     -0.329000
      5 C5          3.1290    0.6180    2.4950 c2        1 3PS     -0.127000
      6 C6          2.6400   -0.6630    2.8520 c2        1 3PS      0.074000
      7 C7          2.9320   -1.2130    4.1930 c2        1 3PS     -0.126000
      8 N8          1.9150   -1.4330    2.0080 n2        1 3PS     -0.201000
      9 C9          1.6770   -0.9250    0.7580 c2        1 3PS      0.065000
     10 C10         4.1730    2.7070    3.4130 c1        1 3PS      0.189000
     11 C11         3.7780   -2.2270    4.3900 c2        1 3PS     -0.118000
     12 C12         3.8530    1.4300    3.4380 c2        1 3PS     -0.427000
     13 O14         2.8770   -0.0170    6.2620 o         1 3PS     -0.386000
     14 N15         0.8520   -0.6220    5.3130 ns        1 3PS     -0.276000
     15 C16        -0.0320   -0.0760    6.2610 c2        1 3PS     -0.113000
     16 C17         0.3810    0.5990    7.4150 c2        1 3PS      0.032000
     17 N18        -0.4840    1.1320    8.3400 n2        1 3PS     -0.259000
     18 C19        -1.7850    0.9970    8.1240 c2        1 3PS      0.133000
     19 C20        -2.3860    0.2970    6.9340 c3        1 3PS     -0.194000
     20 C21        -1.4190   -0.2450    5.9950 c1        1 3PS     -0.129000
     21 O22        -2.7300    1.4870    8.9750 os        1 3PS     -0.199000
     22 C23        -2.2940    2.1820   10.1500 c3        1 3PS     -0.071000
     23 H1          1.2570   -2.8120   -0.2120 hc        1 3PS      0.103667
     24 H1A         0.8420   -1.3500   -1.2110 hc        1 3PS      0.103667
     25 H1B        -0.2030   -1.8100    0.2040 hc        1 3PS      0.103667
     26 HN4         3.1110    2.5390   -0.2340 hn        1 3PS      0.217500
     27 HN4A        4.0930    2.6660    1.1230 hn        1 3PS      0.217500
     28 H10         4.1670    0.9050    4.3800 ha        1 3PS      0.224000
     29 H11         3.9960   -2.6120    5.3970 ha        1 3PS      0.134000
     30 H12         4.3020   -2.7220    3.5620 ha        1 3PS      0.134000
     31 HN15        0.4070   -1.0730    4.5390 hn        1 3PS      0.265000
     32 H17         1.4500    0.7600    7.6740 h4        1 3PS      0.204000
     33 H20        -3.0590    1.0140    6.3770 hc        1 3PS      0.181500
     34 H21        -3.0500   -0.5450    7.2880 hc        1 3PS      0.181500
     35 H23        -1.7040    3.0870    9.8680 h1        1 3PS      0.097333
     36 H23A       -1.6920    1.5040   10.8000 h1        1 3PS      0.097333
     37 H23B       -3.2580    2.4660   10.6440 h1        1 3PS      0.097333
     38 C13         2.2260   -0.5610    5.3440 c2        1 3PS      0.342000
@<TRIPOS>BOND
     1    1    9 1   
     2    1   23 1   
     3    1   24 1   
     4    1   25 1   
     5    2    3 1   
     6    2    9 1   
     7    3    4 1   
     8    3    5 1   
     9    4   26 1   
    10    4   27 1   
    11    5    6 1   
    12    5   12 1   
    13    6    7 1   
    14    6    8 1   
    15    7   11 1   
    16    7   38 1   
    17    8    9 1   
    18   10   12 1   
    19   11   29 1   
    20   11   30 1   
    21   12   28 1   
    22   13   38 1   
    23   14   15 1   
    24   14   31 1   
    25   14   38 1   
    26   15   16 1   
    27   15   20 1   
    28   16   17 1   
    29   16   32 1   
    30   17   18 1   
    31   18   19 1   
    32   18   21 1   
    33   19   20 1   
    34   19   33 1   
    35   19   34 1   
    36   21   22 1   
    37   22   35 1   
    38   22   36 1   
    39   22   37 1   
@<TRIPOS>SUBSTRUCTURE
     1 3PS         1 TEMP              0 ****  ****    0 ROOT
