@<TRIPOS>MOLECULE
3PS
   38    40     1     0     0
SMALL
bcc


@<TRIPOS>ATOM
      1 C1          2.2270    3.1880    0.0740 c3        1 3PS     -0.138400
      2 N2          4.0580    1.5630   -0.0610 nb        1 3PS     -0.794000
      3 C3          4.5130    0.2890   -0.0940 ca        1 3PS      0.714200
      4 N4          5.8630    0.0710   -0.3030 nh        1 3PS     -0.946500
      5 C5          3.5970   -0.8470    0.0290 ca        1 3PS     -0.308600
      6 C6          2.2100   -0.5240    0.1720 ca        1 3PS      0.472600
      7 C7          1.2790   -1.6010    0.3300 ca        1 3PS     -0.207900
      8 N8          1.7660    0.7810    0.1750 nb        1 3PS     -0.758000
      9 C9          2.6920    1.7490    0.0610 ca        1 3PS      0.712300
     10 C10         3.0840   -3.2110    0.1600 ca        1 3PS     -0.158000
     11 C11         1.7190   -2.9090    0.3330 ca        1 3PS     -0.042000
     12 C12         4.0050   -2.1980    0.0120 ca        1 3PS     -0.066000
     13 O14        -0.7560   -1.8780    1.5360 o         1 3PS     -0.592100
     14 N15        -0.8400   -0.6010   -0.3950 n         1 3PS     -0.435100
     15 C16        -2.1650   -0.1470   -0.3060 ca        1 3PS     -0.086700
     16 C17        -3.1420   -0.7510    0.5360 ca        1 3PS      0.414200
     17 N18        -4.4230   -0.3590    0.5950 nb        1 3PS     -0.708000
     18 C19        -4.7980    0.6740   -0.2000 ca        1 3PS      0.597600
     19 C20        -3.9110    1.3530   -1.0730 ca        1 3PS     -0.239300
     20 C21        -2.5900    0.9340   -1.1180 ca        1 3PS     -0.118000
     21 O22        -6.0960    1.1510   -0.2160 os        1 3PS     -0.450100
     22 C23        -7.0370    0.5160    0.6490 c3        1 3PS      0.126700
     23 H1          2.5130    3.6780   -0.8900 hc        1 3PS      0.064700
     24 H1A         1.1200    3.2550    0.2030 hc        1 3PS      0.064700
     25 H1B         2.7240    3.7310    0.9160 hc        1 3PS      0.064700
     26 HN4         6.4780    0.8510   -0.2720 hn        1 3PS      0.430300
     27 HN4A        6.2340   -0.8010   -0.0130 hn        1 3PS      0.430300
     28 H10         3.4040   -4.2640    0.1500 ha        1 3PS      0.145000
     29 H11         0.9950   -3.7280    0.4830 ha        1 3PS      0.158000
     30 H12         5.0640   -2.4630   -0.1260 ha        1 3PS      0.131000
     31 HN15       -0.2770   -0.1180   -1.0620 hn        1 3PS      0.327500
     32 H17        -2.8790   -1.5910    1.2100 h4        1 3PS      0.062100
     33 H20        -4.2770    2.1840   -1.6880 ha        1 3PS      0.157000
     34 H21        -1.8820    1.4480   -1.7860 ha        1 3PS      0.139000
     35 H23        -7.1530   -0.5620    0.3820 h1        1 3PS      0.048367
     36 H23A       -6.7280    0.6230    1.7160 h1        1 3PS      0.048367
     37 H23B       -7.9830    1.0800    0.4490 h1        1 3PS      0.048367
     38 C13        -0.1780   -1.3510    0.5660 c         1 3PS      0.691700
@<TRIPOS>BOND
     1    1    9 1   
     2    1   23 1   
     3    1   24 1   
     4    1   25 1   
     5    2    3 ar  
     6    2    9 ar  
     7    3    4 1   
     8    3    5 ar  
     9    4   26 1   
    10    4   27 1   
    11    5    6 ar  
    12    5   12 ar  
    13    6    7 ar  
    14    6    8 ar  
    15    7   11 ar  
    16    7   38 1   
    17    8    9 ar  
    18   10   11 ar  
    19   10   12 ar  
    20   10   28 1   
    21   11   29 1   
    22   12   30 1   
    23   13   38 2   
    24   14   15 1   
    25   14   31 1   
    26   14   38 1   
    27   15   16 ar  
    28   15   20 ar  
    29   16   17 ar  
    30   16   32 1   
    31   17   18 ar  
    32   18   19 ar  
    33   18   21 1   
    34   19   20 ar  
    35   19   33 1   
    36   20   34 1   
    37   21   22 1   
    38   22   35 1   
    39   22   36 1   
    40   22   37 1   
@<TRIPOS>SUBSTRUCTURE
     1 3PS         1 TEMP              0 ****  ****    0 ROOT
