@<TRIPOS>MOLECULE
3PS
   38    39     1     0     0
SMALL
bcc


@<TRIPOS>ATOM
      1 C1         -0.1590    0.6920    0.5440 c3        1 3PS     -0.161000
      2 N2          1.9430   -0.5760    0.4970 n2        1 3PS     -0.237000
      3 C3          3.1500   -0.9020    1.0640 c2        1 3PS      0.172000
      4 N4          4.0070   -1.7530    0.3840 nh        1 3PS     -0.338000
      5 C5          3.5570   -0.3230    2.3190 c2        1 3PS     -0.176000
      6 C6          2.6800    0.6150    2.9070 c2        1 3PS      0.089000
      7 C7          3.0470    1.2950    4.1650 c2        1 3PS     -0.118000
      8 N8          1.4910    0.9430    2.3430 n2        1 3PS     -0.205000
      9 C9          1.1730    0.3310    1.1610 c2        1 3PS      0.077000
     10 C10         5.0610   -1.5810    3.8460 c1        1 3PS      0.222000
     11 C11         4.2040    1.9550    4.3030 c2        1 3PS     -0.110000
     12 C12         4.8300   -0.6890    2.9080 c2        1 3PS     -0.444000
     13 O14         2.0780    2.2320    6.1320 o         1 3PS     -0.381000
     14 N15         1.2010    0.2290    5.3920 n         1 3PS     -0.274000
     15 C16         0.1400    0.1030    6.3070 c2        1 3PS     -0.108000
     16 C17        -0.0260    0.9230    7.4280 c2        1 3PS      0.032000
     17 N18        -1.0450    0.7770    8.3400 n2        1 3PS     -0.258000
     18 C19        -1.9210   -0.1970    8.1410 c2        1 3PS      0.130000
     19 C20        -1.8840   -1.1570    6.9830 c3        1 3PS     -0.192000
     20 C21        -0.7840   -0.9500    6.0560 c1        1 3PS     -0.136000
     21 O22        -2.9680   -0.4330    8.9840 os        1 3PS     -0.200000
     22 C23        -3.1210    0.4100   10.1310 c3        1 3PS     -0.071000
     23 H1         -0.9800    0.3490    1.2220 hc        1 3PS      0.105000
     24 H1A        -0.2280    1.8010    0.4260 hc        1 3PS      0.105000
     25 H1B        -0.2880    0.2110   -0.4550 hc        1 3PS      0.105000
     26 HN4         3.6450   -2.2680   -0.3840 hn        1 3PS      0.223500
     27 HN4A        4.7080   -2.1960    0.9300 hn        1 3PS      0.223500
     28 H10         5.7070   -0.1400    2.4940 ha        1 3PS      0.197000
     29 H11         4.4500    2.4900    5.2330 ha        1 3PS      0.135500
     30 H12         4.9530    2.0000    3.5010 ha        1 3PS      0.135500
     31 HN15        1.1690   -0.4350    4.6480 hn        1 3PS      0.252000
     32 H17         0.6540    1.7690    7.6680 h4        1 3PS      0.205000
     33 H20        -2.8530   -1.0880    6.4060 hc        1 3PS      0.179000
     34 H21        -1.8260   -2.2150    7.3740 hc        1 3PS      0.179000
     35 H23        -3.2770    1.4690    9.8160 h1        1 3PS      0.097000
     36 H23A       -2.2300    0.3240   10.7970 h1        1 3PS      0.097000
     37 H23B       -4.0370   -0.0030   10.6250 h1        1 3PS      0.097000
     38 C13         2.0590    1.3060    5.2920 c2        1 3PS      0.352000
@<TRIPOS>BOND
     1    1    9 1   
     2    1   23 1   
     3    1   24 1   
     4    1   25 1   
     5    2    3 1   
     6    2    9 1   
     7    3    4 1   
     8    3    5 1   
     9    4   26 1   
    10    4   27 1   
    11    5    6 1   
    12    5   12 1   
    13    6    7 1   
    14    6    8 1   
    15    7   11 1   
    16    7   38 1   
    17    8    9 1   
    18   10   12 1   
    19   11   29 1   
    20   11   30 1   
    21   12   28 1   
    22   13   38 1   
    23   14   15 1   
    24   14   31 1   
    25   14   38 1   
    26   15   16 1   
    27   15   20 1   
    28   16   17 1   
    29   16   32 1   
    30   17   18 1   
    31   18   19 1   
    32   18   21 1   
    33   19   20 1   
    34   19   33 1   
    35   19   34 1   
    36   21   22 1   
    37   22   35 1   
    38   22   36 1   
    39   22   37 1   
@<TRIPOS>SUBSTRUCTURE
     1 3PS         1 TEMP              0 ****  ****    0 ROOT
