@<TRIPOS>MOLECULE
3PS
   40    41     1     0     0
SMALL
bcc


@<TRIPOS>ATOM
      1 C1         -0.6320   -0.3980    2.1730 c3        1 3PS     -0.180000
      2 N2          1.5820   -0.7900    1.1530 n2        1 3PS     -0.150000
      3 C3          2.9320   -0.6730    1.2190 c2        1 3PS     -0.007000
      4 N4          3.6950   -1.2400    0.0840 n4        1 3PS     -0.019000
      5 C5          3.6220   -0.0510    2.2920 c2        1 3PS     -0.052000
      6 C6          2.7800    0.4970    3.3130 c2        1 3PS      0.079000
      7 C7          3.3490    1.2470    4.4490 c2        1 3PS     -0.183000
      8 N8          1.4370    0.3920    3.2610 n2        1 3PS     -0.136000
      9 C9          0.8690   -0.2600    2.1940 c2        1 3PS      0.124000
     10 C10         5.9140   -0.7710    2.9740 c1        1 3PS      0.372000
     11 C11         4.3130    2.1760    4.2870 c2        1 3PS     -0.003000
     12 C12         5.0640    0.0070    2.3210 c2        1 3PS     -0.569000
     13 O14         2.7590    1.9760    6.6590 o         1 3PS     -0.183000
     14 N15         2.1390   -0.2100    6.1840 n4        1 3PS      0.004000
     15 C16         0.7240   -0.1170    6.5470 c2        1 3PS     -0.353000
     16 C17         0.2900    0.6630    7.6590 c2        1 3PS      0.167000
     17 N18        -0.9870    0.7020    8.0500 n2        1 3PS     -0.262000
     18 C19        -1.9060   -0.0210    7.3480 c2        1 3PS      0.247000
     19 C20        -1.5730   -0.8480    6.1270 c3        1 3PS     -0.186000
     20 C21        -0.1660   -0.8360    5.7650 c1        1 3PS     -0.162000
     21 O22        -3.1890   -0.0540    7.6920 os        1 3PS     -0.133000
     22 C23        -3.6610    0.6700    8.8550 c3        1 3PS     -0.079000
     23 H1         -0.9770   -0.7760    3.1720 hc        1 3PS      0.139000
     24 H1A        -1.0870    0.6080    1.9840 hc        1 3PS      0.139000
     25 H1B        -0.9680   -1.1040    1.3740 hc        1 3PS      0.139000
     26 HN4         3.5270   -0.6720   -0.7600 hn        1 3PS      0.280667
     27 HN4A        3.3880   -2.2060   -0.1060 hn        1 3PS      0.280667
     28 H10         5.5250    0.8510    1.7470 ha        1 3PS      0.229000
     29 H11         4.6870    2.7840    5.1320 ha        1 3PS      0.171000
     30 H12         4.7720    2.3830    3.3080 ha        1 3PS      0.171000
     31 HN15        2.6550   -0.5710    6.9980 hn        1 3PS      0.259500
     32 H17         0.9830    1.2950    8.2610 h4        1 3PS      0.203000
     33 H20        -2.1960   -0.4910    5.2530 hc        1 3PS      0.204000
     34 H21        -1.8950   -1.9210    6.3090 hc        1 3PS      0.204000
     35 H23        -3.4810    1.7620    8.7160 h1        1 3PS      0.132000
     36 H23A       -3.1520    0.2840    9.7700 h1        1 3PS      0.132000
     37 H23B       -4.7550    0.4240    8.8510 h1        1 3PS      0.132000
     38 H43         4.6980   -1.2330    0.3110 hn        1 3PS      0.280667
     39 H152        2.2030   -0.8930    5.4160 hn        1 3PS      0.259500
     40 C13         2.7500    1.1070    5.7940 c2        1 3PS      0.309000
@<TRIPOS>BOND
     1    1    9 1   
     2    1   23 1   
     3    1   24 1   
     4    1   25 1   
     5    2    3 1   
     6    2    9 1   
     7    3    4 1   
     8    3    5 1   
     9    4   26 1   
    10    4   27 1   
    11    4   38 1   
    12    5    6 1   
    13    5   12 1   
    14    6    7 1   
    15    6    8 1   
    16    7   11 1   
    17    7   40 1   
    18    8    9 1   
    19   10   12 1   
    20   11   29 1   
    21   11   30 1   
    22   12   28 1   
    23   13   40 1   
    24   14   15 1   
    25   14   31 1   
    26   14   39 1   
    27   14   40 1   
    28   15   16 1   
    29   15   20 1   
    30   16   17 1   
    31   16   32 1   
    32   17   18 1   
    33   18   19 1   
    34   18   21 1   
    35   19   20 1   
    36   19   33 1   
    37   19   34 1   
    38   21   22 1   
    39   22   35 1   
    40   22   36 1   
    41   22   37 1   
@<TRIPOS>SUBSTRUCTURE
     1 3PS         1 TEMP              0 ****  ****    0 ROOT
