@<TRIPOS>MOLECULE
3PU
   38    39     1     0     0
SMALL
bcc


@<TRIPOS>ATOM
      1 C7          1.8250    0.7090    0.1570 c2        1 3PU     -0.730000
      2 C6          4.9920    0.0300   -3.1700 c2        1 3PU     -0.018000
      3 C1          2.6940    1.3410   -6.8280 c1        1 3PU     -0.142000
      4 C5          5.2340   -0.2420   -5.6560 c2        1 3PU     -0.085000
      5 C4         -2.1220    0.4320    2.2790 c3        1 3PU     -0.421000
      6 C3         -2.5810   -0.3780    1.1150 c1        1 3PU      0.012000
      7 C2          2.5280    1.5170   -5.4550 c2        1 3PU     -0.033000
      8 C8          2.7990    1.2210   -8.0180 c1        1 3PU     -0.146000
      9 C9          3.3600    1.0130   -4.5230 c2        1 3PU      0.048000
     10 C10         4.5940    0.2130   -4.5740 c2        1 3PU     -0.121000
     11 C11         4.0710    0.6650   -2.3890 c2        1 3PU     -0.106000
     12 C12        -0.5060    0.1800    0.4380 c2        1 3PU     -0.171000
     13 C13         0.9030   -1.3540   -0.8510 c2        1 3PU      0.296000
     14 C14        -1.1190   -1.4730   -2.2180 c1        1 3PU      0.523000
     15 C15         4.0180    0.8310   -0.9460 c2        1 3PU      0.271000
     16 C16         0.6640    0.1870   -0.5580 c3        1 3PU      0.242000
     17 N17        -1.6590   -0.4760    0.1430 n2        1 3PU     -0.319000
     18 N18        -0.0690   -2.0500   -1.7070 ns        1 3PU     -0.286000
     19 N19         0.2540    0.7960   -1.8140 n8        1 3PU     -0.392000
     20 N20         2.8240    1.5610   -0.3720 ny        1 3PU      0.091000
     21 O21         1.8030   -2.0660   -0.4410 o         1 3PU     -0.198000
     22 O22        -2.0300   -0.9600   -2.7430 o         1 3PU      0.049000
     23 O23         4.8700    0.4260   -0.1590 o         1 3PU     -0.196000
     24 O24         3.0470    1.2770   -3.1550 os        1 3PU     -0.209000
     25 S25        -0.4260    0.9760    1.8950 ss        1 3PU      0.434000
     26 H1          3.1700    2.1290    0.4150 hn        1 3PU      0.240000
     27 H2          2.1030    0.2260    1.1030 hx        1 3PU      0.187000
     28 H3          5.8790   -0.5170   -2.8420 ha        1 3PU      0.195000
     29 H4          4.8640   -0.0460   -6.6750 ha        1 3PU      0.148000
     30 H5          6.1600   -0.8300   -5.5810 ha        1 3PU      0.148000
     31 H6         -2.1320   -0.1830    3.2130 h1        1 3PU      0.192500
     32 H7         -2.7890    1.3170    2.4300 h1        1 3PU      0.192500
     33 H8          1.6520    2.1190   -5.1460 ha        1 3PU      0.160000
     34 H9          0.0150   -3.0550   -1.8030 hn        1 3PU      0.306000
     35 H10        -0.3040    1.6130   -1.6650 hn        1 3PU      0.193500
     36 H11         1.0320    0.9970   -2.4090 hn        1 3PU      0.193500
     37 H202        2.4470    2.1830   -1.0930 hn        1 3PU      0.240000
     38 Cl2         2.9330    1.0660   -9.5930 cl        1 3PU      0.212000
@<TRIPOS>BOND
     1    1   16 1   
     2    1   20 1   
     3    1   27 1   
     4    2   10 1   
     5    2   11 1   
     6    2   28 1   
     7    3    7 1   
     8    3    8 1   
     9    4   10 1   
    10    4   29 1   
    11    4   30 1   
    12    5    6 1   
    13    5   25 1   
    14    5   31 1   
    15    5   32 1   
    16    6   17 1   
    17    7    9 1   
    18    7   33 1   
    19    8   38 1   
    20    9   10 1   
    21    9   24 1   
    22   11   15 1   
    23   11   24 1   
    24   12   16 1   
    25   12   17 1   
    26   12   25 1   
    27   13   16 1   
    28   13   18 1   
    29   13   21 1   
    30   14   18 1   
    31   14   22 1   
    32   15   20 1   
    33   15   23 1   
    34   16   19 1   
    35   18   34 1   
    36   19   35 1   
    37   19   36 1   
    38   20   26 1   
    39   20   37 1   
@<TRIPOS>SUBSTRUCTURE
     1 3PU         1 TEMP              0 ****  ****    0 ROOT
