@<TRIPOS>MOLECULE
3PW
   42    43     1     0     0
SMALL
bcc


@<TRIPOS>ATOM
      1 C4         -0.7250   -1.7590    1.8740 c1        1 3PW     -0.176000
      2 C5         -1.1240   -2.5920    1.1030 c1        1 3PW     -0.083000
      3 C6         -3.8500   -0.1170   10.2410 c1        1 3PW      0.055000
      4 C7         -3.2180    1.4580    8.2930 c2        1 3PW      0.116000
      5 C8         -0.4640    1.0740    4.7510 c3        1 3PW     -0.101000
      6 C10        -1.7640   -0.2040    8.8740 c2        1 3PW      0.119000
      7 C13         0.7620   -0.4390    3.1090 c2        1 3PW     -0.019000
      8 C15         2.9200    1.9440    4.0790 c2        1 3PW      0.351000
      9 C17         0.9040    0.7210    4.1240 c3        1 3PW      0.027000
     10 C2         -2.0100   -1.8850   10.6450 c1        1 3PW      0.017000
     11 C3         -1.1730   -1.3590    9.5730 c3        1 3PW     -0.208000
     12 C9         -3.3260   -1.3080   10.9510 c3        1 3PW     -0.223000
     13 C11        -3.0240    0.3570    9.1940 c2        1 3PW     -0.274000
     14 C12        -2.0830    1.5080    7.4810 c2        1 3PW     -0.243000
     15 C14         1.8770    0.2520    5.2760 c2        1 3PW      0.283000
     16 C16        -1.7250    2.3980    6.4210 c2        1 3PW      0.351000
     17 N18        -0.4440   -0.7780    2.7510 n2        1 3PW     -0.045000
     18 N19         3.0420    1.0030    5.1460 ns        1 3PW     -0.382000
     19 N20         1.5750    1.9020    3.5620 ns        1 3PW     -0.348000
     20 N21        -0.3710    2.1640    5.7640 ny        1 3PW     -0.102000
     21 N22         2.0150   -1.0150    2.6820 n7        1 3PW     -0.188000
     22 O23         1.5970   -0.5610    6.1550 o         1 3PW     -0.265000
     23 O25        -2.3620    3.3420    5.9730 o         1 3PW     -0.179000
     24 O26        -1.1680    0.4700    7.8430 os        1 3PW     -0.093000
     25 H1         -1.4760   -3.3290    0.4210 ha        1 3PW      0.258000
     26 H2          2.7720   -0.3600    2.6150 hn        1 3PW      0.253000
     27 H3         -4.0900   -2.1400   10.7960 h1        1 3PW      0.221000
     28 H4         -4.0900    2.1200    8.2620 ha        1 3PW      0.220000
     29 H5         -0.8600    0.1510    5.2710 hx        1 3PW      0.180000
     30 H6         -1.1910    1.4080    3.9540 hx        1 3PW      0.180000
     31 H7          4.1760    1.3940    1.2020 ha        1 3PW      0.001500
     32 H8          1.4590   -3.0040    2.3710 ha        1 3PW      0.085000
     33 H9          3.6190    1.3520    1.5870 ha        1 3PW      0.001500
     34 H10        -0.9530   -2.2040    8.8500 hc        1 3PW      0.201500
     35 H11        -0.1680   -1.0870   10.0240 hc        1 3PW      0.201500
     36 H12         3.8850    0.8660    5.6540 hn        1 3PW      0.302000
     37 H13         1.4850    2.0570    2.5780 hn        1 3PW      0.259000
     38 H14         0.3120    1.9060    6.4850 hn        1 3PW      0.263500
     39 C1          2.2660   -2.2470    2.3450 c1        1 3PW     -0.078000
     40 H212       -0.0710    3.0380    5.3080 hn        1 3PW      0.263500
     41 O24         3.8060    2.7160    3.7080 o         1 3PW     -0.237000
     42 Cl2        -3.3550   -0.9650   12.6780 cl        1 3PW      0.037000
@<TRIPOS>BOND
     1    1    2 1   
     2    1   17 1   
     3    2   25 1   
     4    3   12 1   
     5    3   13 1   
     6    4   13 1   
     7    4   14 1   
     8    4   28 1   
     9    5    9 1   
    10    5   20 1   
    11    5   29 1   
    12    5   30 1   
    13    6   11 1   
    14    6   13 1   
    15    6   24 1   
    16    7    9 1   
    17    7   17 1   
    18    7   21 1   
    19    8   18 1   
    20    8   19 1   
    21    8   41 1   
    22    9   15 1   
    23    9   19 1   
    24   10   11 1   
    25   10   12 1   
    26   11   34 1   
    27   11   35 1   
    28   12   27 1   
    29   12   42 1   
    30   14   16 1   
    31   14   24 1   
    32   15   18 1   
    33   15   22 1   
    34   16   20 1   
    35   16   23 1   
    36   18   36 1   
    37   19   37 1   
    38   20   38 1   
    39   20   40 1   
    40   21   26 1   
    41   21   39 1   
    42   31   33 1   
    43   32   39 1   
@<TRIPOS>SUBSTRUCTURE
     1 3PW         1 TEMP              0 ****  ****    0 ROOT
