@<TRIPOS>MOLECULE
3PX
   26    25     1     0     0
SMALL
bcc


@<TRIPOS>ATOM
      1 C           2.5550   -0.2160   -0.8080 c1        1 3PX      0.318000
      2 N           2.5070    0.7660    1.2820 n3        1 3PX     -0.275000
      3 O           3.1290   -1.2610   -1.2120 o         1 3PX     -0.581000
      4 CA          1.8950   -0.2230    0.3480 c3        1 3PX     -0.140000
      5 CB          0.3960    0.3940    0.1310 c3        1 3PX      0.032000
      6 CD          1.7120    1.7710    1.2920 c3        1 3PX     -0.076000
      7 CG          0.2690    1.2280    0.9590 c3        1 3PX     -0.181000
      8 OB1        -0.6480   -0.6940    0.3230 os        1 3PX     -0.294000
      9 CB2        -1.7140   -0.6280   -0.5930 c3        1 3PX      0.041000
     10 CB3        -3.0150   -0.4550    0.1600 c3        1 3PX     -0.237500
     11 CB4        -1.7650   -1.9060   -1.4000 c3        1 3PX     -0.237500
     12 OXT         2.6040    0.8360   -1.4980 os        1 3PX     -0.569000
     13 HN          3.3230    1.0250    0.9600 hn        1 3PX      0.169000
     14 HA          1.9600   -1.1680    0.5930 h1        1 3PX      0.106000
     15 HB          0.3170    0.7870   -0.7610 h1        1 3PX      0.110000
     16 HD          1.9890    2.4230    0.6140 h1        1 3PX      0.054000
     17 HDA         1.7150    2.1900    2.1780 h1        1 3PX      0.054000
     18 HG         -0.1370    0.8420    1.7630 hc        1 3PX      0.077500
     19 HGA        -0.2920    1.9560    0.6170 hc        1 3PX      0.077500
     20 HB2        -1.5810    0.1320   -1.1930 h1        1 3PX      0.068000
     21 HB3        -3.0750   -1.1290    0.8680 hc        1 3PX      0.080833
     22 HB3A       -3.0450    0.4400    0.5580 hc        1 3PX      0.080833
     23 HB3B       -3.7670   -0.5620   -0.4590 hc        1 3PX      0.080833
     24 HB4        -0.9910   -1.9450   -2.0000 hc        1 3PX      0.080833
     25 HB4A       -1.7480   -2.6760   -0.7940 hc        1 3PX      0.080833
     26 HB4B       -2.5900   -1.9250   -1.9300 hc        1 3PX      0.080833
@<TRIPOS>BOND
     1    1    3 1   
     2    1    4 1   
     3    2    4 1   
     4    2    6 1   
     5    2   13 1   
     6    4    5 1   
     7    4   14 1   
     8    5    7 1   
     9    5    8 1   
    10    5   15 1   
    11    6    7 1   
    12    6   16 1   
    13    6   17 1   
    14    7   18 1   
    15    7   19 1   
    16    8    9 1   
    17    9   10 1   
    18    9   11 1   
    19    9   20 1   
    20   10   21 1   
    21   10   22 1   
    22   10   23 1   
    23   11   24 1   
    24   11   25 1   
    25   11   26 1   
@<TRIPOS>SUBSTRUCTURE
     1 3PX         1 TEMP              0 ****  ****    0 ROOT
