@<TRIPOS>MOLECULE
3PX
   26    26     1     0     0
SMALL
bcc


@<TRIPOS>ATOM
      1 C          -1.4170    1.0730   -0.9390 c         1 3PX      0.898600
      2 N          -1.8700   -0.8140    0.7150 n3        1 3PX     -0.796200
      3 O          -2.6610    1.1000   -1.1580 o         1 3PX     -0.840300
      4 CA         -0.8580    0.0550    0.1040 c3        1 3PX      0.007500
      5 CB          0.2180   -0.8330   -0.5740 c3        1 3PX      0.143100
      6 CD         -1.6080   -2.1940    0.3190 c3        1 3PX      0.160800
      7 CG         -0.3580   -2.2580   -0.5700 c3        1 3PX     -0.102400
      8 OB1         1.4210   -0.8810    0.2010 os        1 3PX     -0.437600
      9 CB2         2.4460    0.0130   -0.2390 c3        1 3PX      0.152100
     10 CB3         2.1450    1.4420    0.1630 c3        1 3PX     -0.119600
     11 CB4         3.7300   -0.4870    0.4060 c3        1 3PX     -0.119600
     12 OXT        -0.5800    1.8250   -1.5150 o         1 3PX     -0.840300
     13 HA         -0.3800    0.6450    0.9340 h1        1 3PX      0.066700
     14 HB          0.4310   -0.4620   -1.6110 h1        1 3PX      0.070700
     15 HD         -1.4350   -2.7840    1.2610 h1        1 3PX      0.014700
     16 HDA        -2.4840   -2.6590   -0.2110 h1        1 3PX      0.014700
     17 HG         -0.6250   -2.5640   -1.6090 hc        1 3PX      0.038200
     18 HGA         0.3850   -2.9850   -0.1630 hc        1 3PX      0.038200
     19 HB2         2.5420   -0.0480   -1.3610 h1        1 3PX      0.028700
     20 HB3         2.9970    2.1040   -0.1190 hc        1 3PX      0.041533
     21 HB3A        1.2130    1.7910   -0.3600 hc        1 3PX      0.041533
     22 HB3B        1.9820    1.5080    1.2650 hc        1 3PX      0.041533
     23 HB4         3.9340   -1.5400    0.0990 hc        1 3PX      0.041533
     24 HB4A        4.5810    0.1610    0.0910 hc        1 3PX      0.041533
     25 HB4B        3.6380   -0.4560    1.5180 hc        1 3PX      0.041533
     26 HN         -2.7770   -0.5220    0.3840 hn        1 3PX      0.373800
@<TRIPOS>BOND
     1    1    3 1   
     2    1    4 1   
     3    1   12 1   
     4    2    4 1   
     5    2    6 1   
     6    2   26 1   
     7    4    5 1   
     8    4   13 1   
     9    5    7 1   
    10    5    8 1   
    11    5   14 1   
    12    6    7 1   
    13    6   15 1   
    14    6   16 1   
    15    7   17 1   
    16    7   18 1   
    17    8    9 1   
    18    9   10 1   
    19    9   11 1   
    20    9   19 1   
    21   10   20 1   
    22   10   21 1   
    23   10   22 1   
    24   11   23 1   
    25   11   24 1   
    26   11   25 1   
@<TRIPOS>SUBSTRUCTURE
     1 3PX         1 TEMP              0 ****  ****    0 ROOT
