@<TRIPOS>MOLECULE
3PY
   10     9     1     0     0
SMALL
bcc


@<TRIPOS>ATOM
      1 C1          0.2280   -0.0000   -1.1650 c         1 3PY      0.839600
      2 O1          1.4890   -0.0000   -1.2350 o         1 3PY     -0.808800
      3 O2         -0.5520   -0.0000   -2.1500 o         1 3PY     -0.808800
      4 C2         -0.3810   -0.0000    0.2540 c         1 3PY      0.448100
      5 O3         -1.5860    0.0000    0.5110 o         1 3PY     -0.544100
      6 C3          0.6830    0.0000    1.3320 c3        1 3PY      0.010400
      7 O4          0.0950    0.0000    2.6240 oh        1 3PY     -0.598800
      8 H31         1.3230    0.9130    1.1950 h1        1 3PY      0.046700
      9 H32         1.3230   -0.9130    1.1950 h1        1 3PY      0.046700
     10 HO4         0.8310    0.0000    3.2470 ho        1 3PY      0.369000
@<TRIPOS>BOND
     1    1    2 1   
     2    1    3 1   
     3    1    4 1   
     4    4    5 2   
     5    4    6 1   
     6    6    7 1   
     7    6    8 1   
     8    6    9 1   
     9    7   10 1   
@<TRIPOS>SUBSTRUCTURE
     1 3PY         1 TEMP              0 ****  ****    0 ROOT
