@<TRIPOS>MOLECULE
3PY
   10     8     1     0     0
SMALL
bcc


@<TRIPOS>ATOM
      1 C1          0.8960    0.6860    1.3640 c1        1 3PY      0.555500
      2 O1          2.1550    0.6860    1.3640 o         1 3PY     -0.781500
      3 O2          0.2660    0.6860    2.4540 os        1 3PY     -0.548000
      4 C2          0.1390    0.6860    0.0540 c2        1 3PY      0.493300
      5 O3         -0.1470    1.7380   -0.4820 o         1 3PY     -0.585300
      6 C3         -0.2600   -0.6240   -0.5890 c3        1 3PY      0.004400
      7 O4         -1.4350   -0.4370   -1.3460 oh        1 3PY     -0.590800
      8 H31        -0.4220   -1.2910    0.1050 h1        1 3PY      0.041700
      9 H32         0.4590   -0.9310   -1.1740 h1        1 3PY      0.041700
     10 HO4        -1.6510   -1.1980   -1.7490 ho        1 3PY      0.369000
@<TRIPOS>BOND
     1    1    2 2   
     2    1    4 2   
     3    4    5 1   
     4    4    6 1   
     5    6    7 1   
     6    6    8 1   
     7    6    9 1   
     8    7   10 1   
@<TRIPOS>SUBSTRUCTURE
     1 3PY         1 TEMP              0 ****  ****    0 ROOT
