@<TRIPOS>MOLECULE
3PY
   10     9     1     0     0
SMALL
bcc


@<TRIPOS>ATOM
      1 C1          0.0270   -0.0000   -0.0180 c         1 3PY      0.839600
      2 O1          1.2750   -0.0000   -0.2160 o         1 3PY     -0.808800
      3 O2         -0.5270   -0.0000    1.1090 o         1 3PY     -0.808800
      4 C2         -0.8670   -0.0000   -1.2770 c         1 3PY      0.448100
      5 O3         -2.0990   -0.0000   -1.2740 o         1 3PY     -0.544100
      6 C3         -0.0540    0.0000   -2.5550 c3        1 3PY      0.010400
      7 O4         -0.9010    0.0000   -3.6950 oh        1 3PY     -0.598800
      8 H31         0.6000    0.9130   -2.5550 h1        1 3PY      0.046700
      9 H32         0.6000   -0.9130   -2.5550 h1        1 3PY      0.046700
     10 HO4        -0.3130    0.0000   -4.4580 ho        1 3PY      0.369000
@<TRIPOS>BOND
     1    1    2 1   
     2    1    3 1   
     3    1    4 1   
     4    4    5 2   
     5    4    6 1   
     6    6    7 1   
     7    6    8 1   
     8    6    9 1   
     9    7   10 1   
@<TRIPOS>SUBSTRUCTURE
     1 3PY         1 TEMP              0 ****  ****    0 ROOT
