@<TRIPOS>MOLECULE
3PZ
   67    59     1     0     0
SMALL
bcc


@<TRIPOS>ATOM
      1 C1         -1.6060    0.4420    2.1040 c1        1 3PZ      0.096000
      2 N1          0.2940    0.5560   -0.3400 n3        1 3PZ     -0.815000
      3 O1          1.0190   -1.7810   -0.9790 o         1 3PZ     -0.546900
      4 S1          1.4900   -0.4420   -0.8400 s4        1 3PZ      2.068800
      5 C2         -0.1870    0.5100    2.0940 c1        1 3PZ     -0.140000
      6 N2         -2.1300   -0.0550    0.7980 n2        1 3PZ     -0.260000
      7 O2          1.8910   -0.1390   -2.2080 o         1 3PZ     -0.546900
      8 C3          0.5200    0.5230    3.3020 c2        1 3PZ     -0.072000
      9 N3         -3.4570   -3.7090   -0.9620 n2        1 3PZ     -0.140000
     10 O3          6.3890   -0.6230    2.5900 os        1 3PZ     -0.202000
     11 C4         -0.1770    0.4690    4.5330 c1        1 3PZ     -0.033000
     12 N4         -4.8420   -2.0500   -0.6310 n2        1 3PZ     -0.145000
     13 C5         -1.5980    0.4010    4.5470 c1        1 3PZ     -0.074000
     14 N5          1.0370    0.3790    6.9020 n1        1 3PZ     -0.042000
     15 C6         -2.3070    0.3870    3.3550 c2        1 3PZ     -0.148000
     16 C7          0.3430    1.3340    0.8440 c2        1 3PZ      0.031000
     17 C8         -0.8510    0.8650   -1.1020 c3        1 3PZ      0.002000
     18 C9         -2.1080    0.9890   -0.1930 c3        1 3PZ     -0.062000
     19 C10        -3.4690   -0.5310    0.9720 c3        1 3PZ      0.022000
     20 C11        -3.7140   -1.7810    0.0420 c2        1 3PZ     -0.139000
     21 C12        -2.8510   -2.8080   -0.1610 c1        1 3PZ     -0.159000
     22 C13        -4.6850   -3.2450   -1.2550 c1        1 3PZ     -0.103000
     23 C14        -6.0940   -1.4330   -0.7390 c2        1 3PZ     -0.069000
     24 C15        -0.6440    2.1520   -1.8200 c3        1 3PZ     -0.129000
     25 C16         0.3850    1.5480   -5.9830 c1        1 3PZ     -0.131000
     26 C17        -0.8960    1.2940   -5.5500 c1        1 3PZ     -0.131000
     27 C18        -1.2270    1.4540   -4.1830 c1        1 3PZ     -0.131000
     28 C19        -0.2620    1.8650   -3.2850 c1        1 3PZ     -0.081000
     29 C20         1.0070    2.1170   -3.7140 c1        1 3PZ     -0.131000
     30 C21         1.3400    1.9560   -5.0930 c1        1 3PZ     -0.131000
     31 C22         5.2410   -0.4910    1.8950 c2        1 3PZ      0.149000
     32 C23         4.1600   -1.3020    2.1910 c2        1 3PZ     -0.239000
     33 C24         3.0190   -1.2370    1.4230 c1        1 3PZ      0.021000
     34 C25         2.9490   -0.3530    0.3430 c1        1 3PZ     -0.877000
     35 C26         4.0290    0.4580    0.0460 c1        1 3PZ      0.022000
     36 C27         5.1760    0.3920    0.8190 c1        1 3PZ     -0.187000
     37 C28         7.2240   -1.6530    2.1340 c3        1 3PZ     -0.080000
     38 C29         0.5150    0.4180    5.8860 c1        1 3PZ     -0.092000
     39 H3          1.4640    0.5710    3.2970 ha        1 3PZ      0.141000
     40 H5         -2.0550    0.3640    5.3630 ha        1 3PZ      0.146000
     41 H6         -3.3370    0.3390    3.3670 ha        1 3PZ      0.142000
     42 H7         -0.1550    2.0560    0.7390 h4        1 3PZ      0.100500
     43 H7A         1.2890    1.6080    1.0130 h4        1 3PZ      0.100500
     44 H8         -0.9900    0.1800   -1.7360 h1        1 3PZ      0.125000
     45 H9         -2.9040    0.9300   -0.7430 h1        1 3PZ      0.105500
     46 H9A        -2.0930    1.8720    0.2670 h1        1 3PZ      0.105500
     47 H10        -3.6030   -0.7930    1.9160 h1        1 3PZ      0.104500
     48 H10A       -4.0980    0.1770    0.7400 h1        1 3PZ      0.104500
     49 H12        -1.9820   -2.8820    0.1950 DU        1 3PZ      0.192000
     50 H13        -5.3340   -3.6790   -1.8050 DU        1 3PZ      0.192000
     51 H14        -6.1000   -0.8740   -1.4800 ha        1 3PZ      0.093333
     52 H14A       -6.8070   -2.1360   -0.8430 ha        1 3PZ      0.093333
     53 H14B       -6.2660   -0.9180    0.0480 ha        1 3PZ      0.093333
     54 H15        -1.5570    2.7280   -1.7880 hc        1 3PZ      0.094500
     55 H15A        0.0780    2.6600   -1.3890 hc        1 3PZ      0.094500
     56 H16         0.6170    1.4350   -6.9510 ha        1 3PZ      0.140750
     57 H17        -1.5400    1.0200   -6.1490 ha        1 3PZ      0.140750
     58 H18        -2.1760    1.2650   -3.8630 ha        1 3PZ      0.140750
     59 H20         1.6580    2.3950   -3.1060 ha        1 3PZ      0.128000
     60 H21         2.2650    2.1390   -5.4050 ha        1 3PZ      0.140750
     61 H23         4.2070   -1.9260    2.9490 ha        1 3PZ      0.148000
     62 H24         2.3040   -1.7720    1.6230 ha        1 3PZ      0.161000
     63 H26         3.9820    1.0910   -0.7250 ha        1 3PZ      0.164000
     64 H27         5.9870    1.0020    0.5980 ha        1 3PZ      0.160000
     65 H28         7.4590   -1.4940    1.1970 h1        1 3PZ      0.091333
     66 H28A        8.0310   -1.6730    2.6680 h1        1 3PZ      0.091333
     67 H28B        6.7330   -2.5580    2.2180 h1        1 3PZ      0.091333
@<TRIPOS>BOND
     1    1    5 1   
     2    1   15 1   
     3    2    4 1   
     4    2   16 1   
     5    2   17 1   
     6    3    4 1   
     7    4    7 1   
     8    5    8 1   
     9    6   18 1   
    10    6   19 1   
    11    8   11 1   
    12    8   39 1   
    13    9   21 1   
    14    9   22 1   
    15   10   31 1   
    16   10   37 1   
    17   11   38 1   
    18   12   20 1   
    19   12   22 1   
    20   13   15 1   
    21   13   40 1   
    22   14   38 1   
    23   15   41 1   
    24   16   42 1   
    25   16   43 1   
    26   17   18 1   
    27   17   24 1   
    28   17   44 1   
    29   18   45 1   
    30   18   46 1   
    31   19   20 1   
    32   19   47 1   
    33   19   48 1   
    34   20   21 1   
    35   23   51 1   
    36   23   52 1   
    37   23   53 1   
    38   24   28 1   
    39   24   54 1   
    40   24   55 1   
    41   25   30 1   
    42   25   56 1   
    43   26   27 1   
    44   26   57 1   
    45   27   58 1   
    46   28   29 1   
    47   29   59 1   
    48   30   60 1   
    49   31   32 1   
    50   31   36 1   
    51   32   33 1   
    52   32   61 1   
    53   33   62 1   
    54   34   35 1   
    55   35   63 1   
    56   36   64 1   
    57   37   65 1   
    58   37   66 1   
    59   37   67 1   
@<TRIPOS>SUBSTRUCTURE
     1 3PZ         1 TEMP              0 ****  ****    0 ROOT
