@<TRIPOS>MOLECULE
3PZ
   67    72     1     0     0
SMALL
bcc


@<TRIPOS>ATOM
      1 C1          0.0000    0.0000    0.0000 ca        1 3PZ     -0.040000
      2 N1          1.6350   -0.9540   -2.2190 nx        1 3PZ     -0.389000
      3 O1          1.9550   -2.9960   -3.5680 o         1 3PZ     -0.825000
      4 S1          2.2510   -2.4910   -2.2740 s6        1 3PZ      2.387000
      5 C2          1.3840    0.0000    0.0000 ca        1 3PZ     -0.229000
      6 N2         -0.8280   -0.0950   -1.1210 nh        1 3PZ      0.161000
      7 O2          3.5710   -2.4120   -1.7540 o         1 3PZ     -0.825000
      8 C3          2.0900    0.0000    1.1870 ca        1 3PZ     -0.011000
      9 N3         -4.4660   -0.5730   -3.4750 n2        1 3PZ     -0.052000
     10 C4          1.4160    0.0340    2.4100 ca        1 3PZ      0.047000
     11 N4         -3.1860    1.1200   -3.0840 na        1 3PZ      0.290000
     12 C5          0.0180    0.0690    2.4170 ca        1 3PZ     -0.017000
     13 N5          2.7430    0.0370    4.6070 n1        1 3PZ     -0.039000
     14 C6         -0.6730    0.0520    1.2330 ca        1 3PZ     -0.214000
     15 C7          2.1610    0.0460   -1.2870 c3        1 3PZ     -0.467000
     16 C8          0.5520   -0.5440   -3.0950 c3        1 3PZ     -0.274000
     17 C9         -0.2880    0.5070   -2.3410 c3        1 3PZ     -0.266000
     18 C10        -2.1720    0.4210   -0.8290 c3        1 3PZ     -0.196000
     19 C11        -3.0510    0.2460   -2.0400 c2        1 3PZ     -0.287000
     20 C12        -3.8570   -0.8020   -2.3030 c2        1 3PZ     -0.130000
     21 C13        -4.0700    0.5760   -3.9490 c2        1 3PZ     -0.232000
     22 C15         1.1240    0.0690   -4.3750 c3        1 3PZ     -0.252000
     23 C16         3.2550   -2.9200   -6.5570 ca        1 3PZ     -0.130000
     24 C17         1.9060   -2.7240   -6.7900 ca        1 3PZ     -0.080500
     25 C18         1.2170   -1.7560   -6.0840 ca        1 3PZ     -0.108000
     26 C19         1.8750   -0.9850   -5.1450 ca        1 3PZ     -0.003000
     27 C20         3.2240   -1.1810   -4.9120 ca        1 3PZ     -0.108000
     28 C21         3.9130   -2.1530   -5.6150 ca        1 3PZ     -0.080500
     29 C22        -0.1300   -4.9930    0.6550 ca        1 3PZ      0.088000
     30 C23        -0.5420   -4.8890   -0.6660 ca        1 3PZ     -0.150000
     31 C24         0.1870   -4.1260   -1.5570 ca        1 3PZ      0.012000
     32 C25         1.3250   -3.4640   -1.1340 ca        1 3PZ     -0.600000
     33 C26         1.7370   -3.5660    0.1810 ca        1 3PZ      0.012000
     34 C27         1.0100   -4.3240    1.0780 ca        1 3PZ     -0.150000
     35 C28        -0.4310   -6.9190    1.6310 c3        1 3PZ      0.077000
     36 C29         2.1470    0.0320    3.6400 c1        1 3PZ     -0.104000
     37 H3          3.0960    0.0980    0.7990 ha        1 3PZ      0.151000
     38 H5         -0.7720    0.2260    3.1410 ha        1 3PZ      0.127000
     39 H6         -1.7500   -0.0180    1.3290 ha        1 3PZ      0.142000
     40 H7          1.3660    0.1290   -0.5550 hx        1 3PZ      0.244500
     41 H7A         3.0920   -0.5060   -1.3430 hx        1 3PZ      0.244500
     42 H8          1.4110   -0.4220   -2.4450 DU        1 3PZ      0.301000
     43 H9         -1.0290    0.2790   -3.0960 h1        1 3PZ      0.102500
     44 H9A        -0.4230    1.5790   -2.4240 h1        1 3PZ      0.102500
     45 H10        -2.8750   -0.4000   -0.7550 h1        1 3PZ      0.134500
     46 H10A       -2.0720    1.0230    0.0660 h1        1 3PZ      0.134500
     47 H12        -4.0480   -1.6180   -1.6160 h4        1 3PZ      0.145000
     48 H13        -4.1970    1.2850   -4.7590 h5        1 3PZ      0.152000
     49 H14        -3.2260    3.2120   -3.2590 h1        1 3PZ      0.077000
     50 H14A       -2.5680    2.3580   -4.3150 h1        1 3PZ      0.077000
     51 H14B       -1.4210    2.4570   -3.1730 h1        1 3PZ      0.077000
     52 H15         2.1430    0.3530   -4.6080 hc        1 3PZ      0.104500
     53 H15A        0.7360    1.0690   -4.5270 hc        1 3PZ      0.104500
     54 H16         3.7500   -3.7400   -7.0640 ha        1 3PZ      0.097000
     55 H17         1.4940   -3.4780   -7.4500 ha        1 3PZ      0.100000
     56 H18         0.1850   -1.4640   -6.2380 ha        1 3PZ      0.108500
     57 H20         3.8760   -0.3660   -4.6230 ha        1 3PZ      0.108500
     58 H21         4.9150   -2.5210   -5.4320 ha        1 3PZ      0.100000
     59 H23        -1.5350   -5.2630   -0.8820 ha        1 3PZ      0.124000
     60 H24        -0.2180   -3.7930   -2.5050 ha        1 3PZ      0.137500
     61 H26         2.7910   -3.5820    0.4340 ha        1 3PZ      0.137500
     62 H27         1.2270   -4.3060    2.1390 ha        1 3PZ      0.124000
     63 H28         0.6470   -7.0230    1.5880 h1        1 3PZ      0.013000
     64 H28A       -0.6680   -7.3300    2.6050 h1        1 3PZ      0.013000
     65 H28B       -0.5370   -7.5850    0.7820 h1        1 3PZ      0.013000
     66 C14        -2.5020    2.4060   -3.2340 c3        1 3PZ     -0.149000
     67 O3         -0.8440   -5.7440    1.5330 os        1 3PZ     -0.165000
@<TRIPOS>BOND
     1    1    5 1   
     2    1    6 1   
     3    1   14 1   
     4    2    4 1   
     5    2   15 1   
     6    2   16 1   
     7    2   42 1   
     8    3    4 1   
     9    4    7 1   
    10    4   32 1   
    11    5    8 1   
    12    5   15 1   
    13    6   17 1   
    14    6   18 1   
    15    8   10 1   
    16    8   37 1   
    17    9   20 1   
    18    9   21 1   
    19   10   12 1   
    20   10   36 1   
    21   11   19 1   
    22   11   21 1   
    23   11   66 1   
    24   12   14 1   
    25   12   38 1   
    26   13   36 1   
    27   14   39 1   
    28   15   40 1   
    29   15   41 1   
    30   16   17 1   
    31   16   22 1   
    32   16   42 1   
    33   17   43 1   
    34   17   44 1   
    35   18   19 1   
    36   18   45 1   
    37   18   46 1   
    38   19   20 1   
    39   20   47 1   
    40   21   48 1   
    41   22   26 1   
    42   22   52 1   
    43   22   53 1   
    44   23   24 1   
    45   23   28 1   
    46   23   54 1   
    47   24   25 1   
    48   24   55 1   
    49   25   26 1   
    50   25   56 1   
    51   26   27 1   
    52   27   28 1   
    53   27   57 1   
    54   28   58 1   
    55   29   30 1   
    56   29   34 1   
    57   29   67 1   
    58   30   31 1   
    59   30   59 1   
    60   31   32 1   
    61   31   60 1   
    62   32   33 1   
    63   33   34 1   
    64   33   61 1   
    65   34   62 1   
    66   35   63 1   
    67   35   64 1   
    68   35   65 1   
    69   35   67 1   
    70   49   66 1   
    71   50   66 1   
    72   51   66 1   
@<TRIPOS>SUBSTRUCTURE
     1 3PZ         1 TEMP              0 ****  ****    0 ROOT
