@<TRIPOS>MOLECULE
3PZ
   67    71     1     0     0
SMALL
bcc


@<TRIPOS>ATOM
      1 C1          1.2430    1.3950   -1.1650 ca        1 3PZ      0.220600
      2 N1         -0.6830   -0.9300   -0.6720 n3        1 3PZ     -0.786500
      3 O1         -1.5780   -1.6520    1.5470 o         1 3PZ     -0.650800
      4 S1         -0.5580   -1.9440    0.6150 sy        1 3PZ      1.513200
      5 C2          1.3850    0.0750   -1.6790 ca        1 3PZ     -0.161300
      6 N2          0.0260    1.8540   -0.6450 nh        1 3PZ     -0.679000
      7 O2         -0.4660   -3.2730    0.1470 o         1 3PZ     -0.650800
      8 C3          2.6180   -0.3430   -2.1830 ca        1 3PZ     -0.056000
      9 N3         -2.9580    3.2690    2.3500 nc        1 3PZ     -0.662000
     10 C4          3.7340    0.5000   -2.1790 ca        1 3PZ     -0.066000
     11 N4         -1.9980    4.5420    0.7250 na        1 3PZ     -0.201900
     12 C5          3.6100    1.7920   -1.6550 ca        1 3PZ     -0.052000
     13 N5          5.9980   -0.3240   -3.1090 n1        1 3PZ     -0.375800
     14 C6          2.3910    2.2320   -1.1650 ca        1 3PZ     -0.208000
     15 C7          0.2740   -0.9440   -1.7400 c3        1 3PZ      0.279100
     16 C8         -1.7300    0.0590   -0.7820 c3        1 3PZ      0.225500
     17 C9         -1.1950    1.4330   -1.2860 c3        1 3PZ      0.201800
     18 C10         0.0270    3.1060    0.0840 c3        1 3PZ      0.297100
     19 C11        -1.2200    3.3760    0.8500 cd        1 3PZ     -0.251900
     20 C12        -1.8400    2.6060    1.8580 cc        1 3PZ      0.324200
     21 C13        -3.0330    4.4290    1.6640 cd        1 3PZ      0.398400
     22 C15        -2.8760   -0.3240   -1.7450 c3        1 3PZ     -0.047100
     23 C16        -5.4660   -3.4200   -0.3030 ca        1 3PZ     -0.124000
     24 C17        -5.4360   -2.1790    0.3340 ca        1 3PZ     -0.124500
     25 C18        -4.5850   -1.1770   -0.1260 ca        1 3PZ     -0.114000
     26 C19        -3.7510   -1.4080   -1.2280 ca        1 3PZ     -0.100300
     27 C20        -3.7870   -2.6540   -1.8630 ca        1 3PZ     -0.114000
     28 C21        -4.6400   -3.6550   -1.4020 ca        1 3PZ     -0.124500
     29 C22         3.3530   -0.9860    2.5910 ca        1 3PZ      0.190100
     30 C23         2.2070   -0.2230    2.8980 ca        1 3PZ     -0.212000
     31 C24         1.0120   -0.5210    2.2630 ca        1 3PZ      0.023000
     32 C25         0.9190   -1.5580    1.3220 ca        1 3PZ     -0.420500
     33 C26         2.0680   -2.3090    1.0460 ca        1 3PZ      0.023000
     34 C27         3.2820   -2.0370    1.6650 ca        1 3PZ     -0.212000
     35 C28         5.6700   -1.3710    2.9850 c3        1 3PZ      0.109700
     36 C29         4.9770    0.0470   -2.6920 cg        1 3PZ      0.241800
     37 H3          2.7180   -1.3640   -2.5880 ha        1 3PZ      0.143000
     38 H5          4.4820    2.4650   -1.6380 ha        1 3PZ      0.144000
     39 H6          2.3380    3.2600   -0.7770 ha        1 3PZ      0.137000
     40 H7          0.7370   -1.9780   -1.7640 h1        1 3PZ      0.060200
     41 H7A        -0.2620   -0.8010   -2.7260 h1        1 3PZ      0.060200
     42 H8         -2.1760    0.2060    0.2510 h1        1 3PZ      0.092700
     43 H9         -2.0040    2.1930   -1.0930 h1        1 3PZ      0.054700
     44 H9A        -1.0390    1.3680   -2.4020 h1        1 3PZ      0.054700
     45 H10         0.8750    3.0630    0.8330 h1        1 3PZ      0.049700
     46 H10A        0.2340    3.9670   -0.6230 h1        1 3PZ      0.049700
     47 H12        -1.5440    1.6250    2.2340 h4        1 3PZ      0.053100
     48 H13        -3.7940    5.2060    1.7960 h5        1 3PZ      0.064100
     49 H14        -1.7120    5.2970   -1.2090 h1        1 3PZ      0.055367
     50 H14A       -2.5760    6.3990   -0.0320 h1        1 3PZ      0.055367
     51 H14B       -0.7730    6.1330    0.1150 h1        1 3PZ      0.055367
     52 H15        -3.5030    0.5960   -1.9010 hc        1 3PZ      0.051200
     53 H15A       -2.4530   -0.6130   -2.7430 hc        1 3PZ      0.051200
     54 H16        -6.1350   -4.2120    0.0630 ha        1 3PZ      0.130000
     55 H17        -6.0780   -1.9920    1.2070 ha        1 3PZ      0.132500
     56 H18        -4.5560   -0.2030    0.3870 ha        1 3PZ      0.132000
     57 H20        -3.1340   -2.8490   -2.7270 ha        1 3PZ      0.132000
     58 H21        -4.6550   -4.6350   -1.9020 ha        1 3PZ      0.132500
     59 H23         2.2780    0.5870    3.6380 ha        1 3PZ      0.151000
     60 H24         0.1050    0.0590    2.5130 ha        1 3PZ      0.152000
     61 H26         2.0010   -3.1480    0.3280 ha        1 3PZ      0.152000
     62 H27         4.1660   -2.6450    1.4280 ha        1 3PZ      0.151000
     63 H28         5.9490   -1.2820    1.9080 h1        1 3PZ      0.051033
     64 H28A        6.4430   -0.8920    3.6370 h1        1 3PZ      0.051033
     65 H28B        5.5230   -2.4420    3.2680 h1        1 3PZ      0.051033
     66 C14        -1.7520    5.6450   -0.1410 c3        1 3PZ      0.021600
     67 O3          4.4940   -0.6150    3.2630 os        1 3PZ     -0.321900
@<TRIPOS>BOND
     1    1    5 ar  
     2    1    6 1   
     3    1   14 ar  
     4    2    4 1   
     5    2   15 1   
     6    2   16 1   
     7    3    4 2   
     8    4    7 2   
     9    4   32 1   
    10    5    8 ar  
    11    5   15 1   
    12    6   17 1   
    13    6   18 1   
    14    8   10 ar  
    15    8   37 1   
    16    9   20 1   
    17    9   21 2   
    18   10   12 ar  
    19   10   36 1   
    20   11   19 1   
    21   11   21 1   
    22   11   66 1   
    23   12   14 ar  
    24   12   38 1   
    25   13   36 3   
    26   14   39 1   
    27   15   40 1   
    28   15   41 1   
    29   16   17 1   
    30   16   22 1   
    31   16   42 1   
    32   17   43 1   
    33   17   44 1   
    34   18   19 1   
    35   18   45 1   
    36   18   46 1   
    37   19   20 2   
    38   20   47 1   
    39   21   48 1   
    40   22   26 1   
    41   22   52 1   
    42   22   53 1   
    43   23   24 ar  
    44   23   28 ar  
    45   23   54 1   
    46   24   25 ar  
    47   24   55 1   
    48   25   26 ar  
    49   25   56 1   
    50   26   27 ar  
    51   27   28 ar  
    52   27   57 1   
    53   28   58 1   
    54   29   30 ar  
    55   29   34 ar  
    56   29   67 1   
    57   30   31 ar  
    58   30   59 1   
    59   31   32 ar  
    60   31   60 1   
    61   32   33 ar  
    62   33   34 ar  
    63   33   61 1   
    64   34   62 1   
    65   35   63 1   
    66   35   64 1   
    67   35   65 1   
    68   35   67 1   
    69   49   66 1   
    70   50   66 1   
    71   51   66 1   
@<TRIPOS>SUBSTRUCTURE
     1 3PZ         1 TEMP              0 ****  ****    0 ROOT
