@<TRIPOS>MOLECULE
3PZ
   67    71     1     0     0
SMALL
bcc


@<TRIPOS>ATOM
      1 C1          1.1310    0.2830    0.0390 ca        1 3PZ      0.195600
      2 N1          2.4950   -1.0660   -2.3250 n3        1 3PZ     -0.812200
      3 O1          2.6010   -4.0340   -2.0280 o         1 3PZ     -0.635300
      4 S1          1.7080   -3.2640   -1.2610 sy        1 3PZ      1.341300
      5 C2          2.1790    0.7870   -0.7700 ca        1 3PZ     -0.122300
      6 N2          0.0970   -0.5660   -0.4210 nh        1 3PZ     -0.647000
      7 O2          2.1160   -2.8610    0.0090 o         1 3PZ     -0.635300
      8 C3          3.1400    1.6460   -0.2300 ca        1 3PZ     -0.056000
      9 N3         -3.5910    1.4420   -2.3120 nc        1 3PZ     -0.666000
     10 C4          3.1080    2.0120    1.1180 ca        1 3PZ     -0.054000
     11 N4         -2.0620    2.0540   -0.7380 na        1 3PZ     -0.185900
     12 C5          2.1290    1.4540    1.9500 ca        1 3PZ     -0.068000
     13 N5          4.8560    3.6570    2.0730 n1        1 3PZ     -0.372800
     14 C6          1.1690    0.6050    1.4250 ca        1 3PZ     -0.178000
     15 C7          2.3700    0.3710   -2.2000 c3        1 3PZ      0.220100
     16 C8          1.2560   -1.8300   -2.3280 c3        1 3PZ      0.091000
     17 C9          0.0440   -1.0370   -1.7920 c3        1 3PZ      0.203800
     18 C10        -1.2470   -0.2570    0.0690 c3        1 3PZ      0.264100
     19 C11        -2.0670    0.6520   -0.7800 cd        1 3PZ     -0.267900
     20 C12        -3.0190    0.3010   -1.7650 cc        1 3PZ      0.304200
     21 C13        -3.0060    2.4850   -1.6800 cd        1 3PZ      0.394400
     22 C15         0.8040   -2.3510   -3.7210 c3        1 3PZ     -0.037100
     23 C16         3.4450   -1.7020   -7.0350 ca        1 3PZ     -0.125000
     24 C17         3.7420   -2.6800   -6.0860 ca        1 3PZ     -0.132500
     25 C18         2.8950   -2.8830   -4.9990 ca        1 3PZ     -0.125000
     26 C19         1.7390   -2.1040   -4.8530 ca        1 3PZ     -0.104300
     27 C20         1.4450   -1.1230   -5.8070 ca        1 3PZ     -0.125000
     28 C21         2.2960   -0.9230   -6.8940 ca        1 3PZ     -0.132500
     29 C22        -2.1100   -5.5730   -0.8280 ca        1 3PZ      0.193100
     30 C23        -1.2100   -5.8950   -1.8660 ca        1 3PZ     -0.215500
     31 C24        -0.0440   -5.1600   -1.9980 ca        1 3PZ      0.016000
     32 C25         0.2570   -4.0910   -1.1350 ca        1 3PZ     -0.429500
     33 C26        -0.6380   -3.8150   -0.0940 ca        1 3PZ      0.016000
     34 C27        -1.8180   -4.5330    0.0670 ca        1 3PZ     -0.215500
     35 C28        -4.1580   -6.0760    0.2780 c3        1 3PZ      0.109700
     36 C29         4.0700    2.9150    1.6420 cg        1 3PZ      0.240800
     37 H3          3.9420    2.0370   -0.8770 ha        1 3PZ      0.144000
     38 H5          2.1290    1.6800    3.0280 ha        1 3PZ      0.144000
     39 H6          0.4570    0.1410    2.1250 ha        1 3PZ      0.141000
     40 H7          3.3340    0.8200   -2.5860 h1        1 3PZ      0.045700
     41 H7A         1.5420    0.8090   -2.8300 h1        1 3PZ      0.045700
     42 H8          3.0540   -1.2940   -3.1300 hn        1 3PZ      0.395800
     43 H9         -0.8380   -1.7490   -1.8400 h1        1 3PZ      0.057700
     44 H9A        -0.1840   -0.1900   -2.5030 h1        1 3PZ      0.057700
     45 H10        -1.7990   -1.2430    0.1260 h1        1 3PZ      0.069700
     46 H10A       -1.1950    0.1600    1.1130 h1        1 3PZ      0.069700
     47 H12        -3.3080   -0.6980   -2.0890 h4        1 3PZ      0.040100
     48 H13        -3.2160    3.5440   -1.8610 h5        1 3PZ      0.064100
     49 H14        -0.4030    2.3510    0.5080 h1        1 3PZ      0.061033
     50 H14A       -1.0100    3.8270   -0.3920 h1        1 3PZ      0.061033
     51 H14B       -1.9510    3.1750    1.0330 h1        1 3PZ      0.061033
     52 H15         0.6460   -3.4620   -3.6410 hc        1 3PZ      0.056700
     53 H15A       -0.1940   -1.9050   -3.9860 hc        1 3PZ      0.056700
     54 H16         4.1130   -1.5450   -7.8940 ha        1 3PZ      0.133000
     55 H17         4.6470   -3.2950   -6.1940 ha        1 3PZ      0.135000
     56 H18         3.1310   -3.6540   -4.2440 ha        1 3PZ      0.152000
     57 H20         0.5370   -0.5090   -5.7040 ha        1 3PZ      0.152000
     58 H21         2.0570   -0.1530   -7.6410 ha        1 3PZ      0.135000
     59 H23        -1.4440   -6.7280   -2.5450 ha        1 3PZ      0.153000
     60 H24         0.6820   -5.4350   -2.7870 ha        1 3PZ      0.161500
     61 H26        -0.3860   -3.0200    0.6330 ha        1 3PZ      0.161500
     62 H27        -2.4980   -4.2910    0.8950 ha        1 3PZ      0.153000
     63 H28        -4.5560   -5.0350    0.1950 h1        1 3PZ      0.052033
     64 H28A       -4.9730   -6.8260    0.1110 h1        1 3PZ      0.052033
     65 H28B       -3.6700   -6.2350    1.2700 h1        1 3PZ      0.052033
     66 C14        -1.3210    2.8920    0.1460 c3        1 3PZ      0.010600
     67 O3         -3.2430   -6.3470   -0.7810 os        1 3PZ     -0.317900
@<TRIPOS>BOND
     1    1    5 ar  
     2    1    6 1   
     3    1   14 ar  
     4    2   15 1   
     5    2   16 1   
     6    2   42 1   
     7    3    4 2   
     8    4    7 2   
     9    4   16 1   
    10    4   32 1   
    11    5    8 ar  
    12    5   15 1   
    13    6   17 1   
    14    6   18 1   
    15    8   10 ar  
    16    8   37 1   
    17    9   20 1   
    18    9   21 2   
    19   10   12 ar  
    20   10   36 1   
    21   11   19 1   
    22   11   21 1   
    23   11   66 1   
    24   12   14 ar  
    25   12   38 1   
    26   13   36 3   
    27   14   39 1   
    28   15   40 1   
    29   15   41 1   
    30   16   17 1   
    31   16   22 1   
    32   17   43 1   
    33   17   44 1   
    34   18   19 1   
    35   18   45 1   
    36   18   46 1   
    37   19   20 2   
    38   20   47 1   
    39   21   48 1   
    40   22   26 1   
    41   22   52 1   
    42   22   53 1   
    43   23   24 ar  
    44   23   28 ar  
    45   23   54 1   
    46   24   25 ar  
    47   24   55 1   
    48   25   26 ar  
    49   25   56 1   
    50   26   27 ar  
    51   27   28 ar  
    52   27   57 1   
    53   28   58 1   
    54   29   30 ar  
    55   29   34 ar  
    56   29   67 1   
    57   30   31 ar  
    58   30   59 1   
    59   31   32 ar  
    60   31   60 1   
    61   32   33 ar  
    62   33   34 ar  
    63   33   61 1   
    64   34   62 1   
    65   35   63 1   
    66   35   64 1   
    67   35   65 1   
    68   35   67 1   
    69   49   66 1   
    70   50   66 1   
    71   51   66 1   
@<TRIPOS>SUBSTRUCTURE
     1 3PZ         1 TEMP              0 ****  ****    0 ROOT
