@<TRIPOS>MOLECULE
3Q0
   35    37     1     0     0
SMALL
bcc


@<TRIPOS>ATOM
      1 C13        -0.0170   -0.7310    0.1520 ca        1 3Q0     -0.077000
      2 C12         1.3510   -0.7410    0.1770 ca        1 3Q0     -0.136000
      3 C20         1.4520    0.4670    2.3090 ca        1 3Q0     -0.049000
      4 C5          4.1860    0.1030   -0.0460 ca        1 3Q0     -0.459600
      5 C14        -0.7100   -0.1050    1.2080 ca        1 3Q0     -0.168000
      6 C11         2.0850   -0.1380    1.2510 cp        1 3Q0     -0.143500
      7 C19         0.0270    0.5070    2.3130 ca        1 3Q0     -0.063000
      8 C6          3.5620   -0.1820    1.1830 cp        1 3Q0      0.552800
      9 C4          5.6120    0.0820   -0.0840 ca        1 3Q0      0.703200
     10 C15        -2.0830    0.1120    1.5290 cc        1 3Q0      0.070900
     11 C8          5.6360   -0.5230    2.1760 ca        1 3Q0      0.892900
     12 C1          6.6060    0.3560   -3.6940 c3        1 3Q0     -0.110100
     13 C2          5.6440    0.3380   -2.5170 c3        1 3Q0      0.197800
     14 N7          4.2530   -0.4830    2.3050 nb        1 3Q0     -0.772000
     15 N10         6.3490   -0.2420    1.0260 nb        1 3Q0     -0.815000
     16 N17        -2.0730    0.8090    2.7500 na        1 3Q0      0.031800
     17 N18        -0.8510    1.0520    3.2180 nc        1 3Q0     -0.276400
     18 N16        -3.2330   -0.3490    0.8810 nv        1 3Q0     -0.777600
     19 N9          6.3710   -0.9520    3.2920 nv        1 3Q0     -0.925500
     20 N3          6.3030    0.4660   -1.2380 nu        1 3Q0     -0.848900
     21 H13        -0.5800   -1.2050   -0.6650 ha        1 3Q0      0.125000
     22 H12         1.9190   -1.2290   -0.6290 ha        1 3Q0      0.135000
     23 H20         2.0090    0.9140    3.1460 ha        1 3Q0      0.160000
     24 H5          3.5880    0.3620   -0.9260 ha        1 3Q0      0.154000
     25 H1          6.0140    0.2890   -4.6390 hc        1 3Q0      0.046033
     26 H1A         7.2030    1.2990   -3.7150 hc        1 3Q0      0.046033
     27 H1B         7.3100   -0.5100   -3.6550 hc        1 3Q0      0.046033
     28 H2          5.0330   -0.6110   -2.5620 h1        1 3Q0      0.042700
     29 H2A         4.9250    1.2040   -2.6170 h1        1 3Q0      0.042700
     30 HN16       -3.9330    0.3560    0.7640 hn        1 3Q0      0.390300
     31 HN1A       -2.9960   -0.7840    0.0120 hn        1 3Q0      0.390300
     32 HN9         7.3370   -0.7160    3.2990 hn        1 3Q0      0.422300
     33 HN9A        5.9050   -0.9000    4.1680 hn        1 3Q0      0.422300
     34 HN3         7.2840    0.2840   -1.2450 hn        1 3Q0      0.424800
     35 HN17       -2.8690    1.1000    3.2690 hn        1 3Q0      0.324700
@<TRIPOS>BOND
     1    1    2 ar  
     2    1    5 ar  
     3    1   21 1   
     4    2    6 ar  
     5    2   22 1   
     6    3    6 ar  
     7    3    7 ar  
     8    3   23 1   
     9    4    8 ar  
    10    4    9 ar  
    11    4   24 1   
    12    5    7 ar  
    13    5   10 2   
    14    6    8 1   
    15    7   17 2   
    16    8   14 ar  
    17    9   15 ar  
    18    9   20 1   
    19   10   16 1   
    20   10   18 1   
    21   11   14 ar  
    22   11   15 ar  
    23   11   19 1   
    24   12   13 1   
    25   12   25 1   
    26   12   26 1   
    27   12   27 1   
    28   13   20 1   
    29   13   28 1   
    30   13   29 1   
    31   16   17 1   
    32   16   35 1   
    33   18   30 1   
    34   18   31 1   
    35   19   32 1   
    36   19   33 1   
    37   20   34 1   
@<TRIPOS>SUBSTRUCTURE
     1 3Q0         1 TEMP              0 ****  ****    0 ROOT
