@<TRIPOS>MOLECULE
3Q0
   35    37     1     0     0
SMALL
bcc


@<TRIPOS>ATOM
      1 C13        -2.2300   -1.4650   -0.7710 ca        1 3Q0     -0.077000
      2 C12        -0.9330   -1.0280   -0.7580 ca        1 3Q0     -0.136000
      3 C20        -1.4940    1.0060    0.4940 ca        1 3Q0     -0.049000
      4 C5          1.8280   -0.4040    0.1260 ca        1 3Q0     -0.459600
      5 C14        -3.2150   -0.6830   -0.1350 ca        1 3Q0     -0.168000
      6 C11        -0.5650    0.2030   -0.1220 cp        1 3Q0     -0.143500
      7 C19        -2.8530    0.5770    0.5100 ca        1 3Q0     -0.063000
      8 C6          0.8640    0.5860   -0.1440 cp        1 3Q0      0.552800
      9 C4          3.1990   -0.0080    0.1270 ca        1 3Q0      0.703200
     10 C15        -4.6230   -0.7980    0.0660 cc        1 3Q0      0.070900
     11 C8          2.5440    2.1680   -0.4300 ca        1 3Q0      0.892900
     12 C1          5.2370   -3.1540    0.3410 c3        1 3Q0     -0.110100
     13 C2          3.9640   -2.3230    0.3330 c3        1 3Q0      0.197800
     14 N7          1.1860    1.8720   -0.4100 nb        1 3Q0     -0.772000
     15 N10         3.5690    1.2800   -0.1620 nb        1 3Q0     -0.815000
     16 N17        -4.9890    0.3520    0.7870 na        1 3Q0      0.031800
     17 N18        -3.9690    1.1610    1.0600 nc        1 3Q0     -0.276400
     18 N16        -5.5190   -1.7520   -0.4260 nh        1 3Q0     -0.777600
     19 N9          2.9110    3.4640   -0.8250 nh        1 3Q0     -0.925500
     20 N3          4.2030   -0.9080    0.4980 nh        1 3Q0     -0.848900
     21 H13        -2.5140   -2.4020   -1.2700 ha        1 3Q0      0.125000
     22 H12        -0.1430   -1.6120   -1.2530 ha        1 3Q0      0.135000
     23 H20        -1.2210    1.9610    0.9660 ha        1 3Q0      0.160000
     24 H5          1.5230   -1.4290    0.3570 ha        1 3Q0      0.154000
     25 H1          5.8040   -3.0160    1.2930 hc        1 3Q0      0.046033
     26 H1A         4.9600   -4.2310    0.2450 hc        1 3Q0      0.046033
     27 H1B         5.9030   -2.8820   -0.5120 hc        1 3Q0      0.046033
     28 H2          3.4030   -2.5270   -0.6260 h1        1 3Q0      0.042700
     29 H2A         3.3020   -2.6570    1.1850 h1        1 3Q0      0.042700
     30 HN16       -5.0260   -2.4980   -0.8750 hn        1 3Q0      0.390300
     31 HN1A       -6.1570   -2.0920    0.2650 hn        1 3Q0      0.390300
     32 HN9         2.2000    4.1560   -0.7620 hn        1 3Q0      0.422300
     33 HN9A        3.8260    3.7570   -0.5730 hn        1 3Q0      0.422300
     34 HN3         5.1430   -0.6140    0.3320 hn        1 3Q0      0.424800
     35 HN17       -5.9080    0.5980    1.0760 hn        1 3Q0      0.324700
@<TRIPOS>BOND
     1    1    2 ar  
     2    1    5 ar  
     3    1   21 1   
     4    2    6 ar  
     5    2   22 1   
     6    3    6 ar  
     7    3    7 ar  
     8    3   23 1   
     9    4    8 ar  
    10    4    9 ar  
    11    4   24 1   
    12    5    7 ar  
    13    5   10 2   
    14    6    8 1   
    15    7   17 2   
    16    8   14 ar  
    17    9   15 ar  
    18    9   20 1   
    19   10   16 1   
    20   10   18 1   
    21   11   14 ar  
    22   11   15 ar  
    23   11   19 1   
    24   12   13 1   
    25   12   25 1   
    26   12   26 1   
    27   12   27 1   
    28   13   20 1   
    29   13   28 1   
    30   13   29 1   
    31   16   17 1   
    32   16   35 1   
    33   18   30 1   
    34   18   31 1   
    35   19   32 1   
    36   19   33 1   
    37   20   34 1   
@<TRIPOS>SUBSTRUCTURE
     1 3Q0         1 TEMP              0 ****  ****    0 ROOT
