@<TRIPOS>MOLECULE
3Q0
   35    26     1     0     0
SMALL
bcc


@<TRIPOS>ATOM
      1 C13        -3.0750   -1.0350    0.6620 c1        1 3Q0     -0.092333
      2 C12        -1.6970   -0.9970    0.6400 c1        1 3Q0     -0.092333
      3 C20        -1.7640    1.3910    0.6280 c1        1 3Q0     -0.092333
      4 C5          1.0070    0.0220   -0.5840 c1        1 3Q0     -0.336000
      5 C14        -3.8120    0.1610    0.6660 c1        1 3Q0     -0.083667
      6 C11        -1.0410    0.2160    0.6240 c1        1 3Q0     -0.083667
      7 C19        -3.1720    1.3510    0.6490 c1        1 3Q0     -0.083667
      8 C6          0.3430    0.1290    0.6070 c1        1 3Q0      0.116000
      9 C4          2.3770   -0.0630   -0.6000 c1        1 3Q0      0.187000
     10 C15        -5.1810    0.4100    0.6680 c1        1 3Q0      0.013000
     11 C8          2.4050    0.0650    1.7410 c1        1 3Q0      0.174000
     12 C1          4.9830   -0.5770   -3.1870 c3        1 3Q0     -0.228000
     13 C2          4.3250   -0.9290   -1.8740 c3        1 3Q0     -0.034000
     14 N7          1.0300    0.1500    1.7570 n2        1 3Q0     -0.249000
     15 N10         3.0670   -0.0410    0.5590 n1        1 3Q0     -0.285000
     16 N17        -5.3620    1.7440    0.6530 n2        1 3Q0     -0.123000
     17 N18        -4.1230    2.3420    0.6410 n1        1 3Q0     -0.103000
     18 N16        -6.3030   -0.4960    0.5260 n2        1 3Q0     -0.303500
     19 N9          3.0920    0.0410    3.0130 n2        1 3Q0     -0.303500
     20 N3          3.5130    0.1750   -1.4350 n3        1 3Q0     -0.294000
     21 H13        -3.5460   -1.9050    0.6760 ha        1 3Q0      0.141667
     22 H12        -1.1900   -1.8200    0.6370 ha        1 3Q0      0.141667
     23 H20        -1.3000    2.2470    0.6170 ha        1 3Q0      0.141667
     24 H5          0.5160    0.0060   -1.4050 ha        1 3Q0      0.153000
     25 H1          5.4690    0.2660   -3.0930 hc        1 3Q0      0.082333
     26 H1A         4.2960   -0.4840   -3.8820 hc        1 3Q0      0.082333
     27 H1B         5.5780   -1.2530   -3.4280 hc        1 3Q0      0.082333
     28 H2          5.0180   -1.1180   -1.1960 h1        1 3Q0      0.091000
     29 H2A         3.7550   -1.7300   -1.9950 h1        1 3Q0      0.091000
     30 HN16       -6.1550   -1.4050    0.4330 hn        1 3Q0      0.200500
     31 HN1A       -7.1770   -0.1560    0.4820 hn        1 3Q0      0.200500
     32 HN9         2.6090    0.0710    3.7980 hn        1 3Q0      0.200500
     33 HN9A        4.0000    0.0430    3.0380 hn        1 3Q0      0.200500
     34 HN3         3.6760    1.0010   -1.7450 hn        1 3Q0      0.213000
     35 HN17       -6.1620    2.1750    0.7100 DU        1 3Q0      0.274000
@<TRIPOS>BOND
     1    1    5 1   
     2    1   21 1   
     3    2    6 1   
     4    2   22 1   
     5    3    7 1   
     6    3   23 1   
     7    4    9 1   
     8    4   24 1   
     9    8   14 1   
    10    9   20 1   
    11   10   16 1   
    12   11   14 1   
    13   11   15 1   
    14   12   13 1   
    15   12   25 1   
    16   12   26 1   
    17   12   27 1   
    18   13   20 1   
    19   13   28 1   
    20   13   29 1   
    21   16   17 1   
    22   18   30 1   
    23   18   31 1   
    24   19   32 1   
    25   19   33 1   
    26   20   34 1   
@<TRIPOS>SUBSTRUCTURE
     1 3Q0         1 TEMP              0 ****  ****    0 ROOT
