@<TRIPOS>MOLECULE
3Q0
   35    37     1     0     0
SMALL
bcc


@<TRIPOS>ATOM
      1 C13        -0.0070    0.7520    0.1550 ca        1 3Q0     -0.077000
      2 C12         1.3610    0.7430    0.1800 ca        1 3Q0     -0.136000
      3 C20         1.4440   -0.4770    2.3060 ca        1 3Q0     -0.049000
      4 C5          4.1840   -0.1360   -0.0460 ca        1 3Q0     -0.459600
      5 C14        -0.7090    0.1300    1.2070 ca        1 3Q0     -0.168000
      6 C11         2.0860    0.1250    1.2510 cp        1 3Q0     -0.143500
      7 C19         0.0190   -0.4970    2.3090 ca        1 3Q0     -0.063000
      8 C6          3.5630    0.1490    1.1840 cp        1 3Q0      0.552800
      9 C4          5.6110   -0.1330   -0.0840 ca        1 3Q0      0.703200
     10 C15        -2.0860   -0.0690    1.5260 cc        1 3Q0      0.070900
     11 C8          5.6420    0.4560    2.1810 ca        1 3Q0      0.892900
     12 C1          6.6040   -0.3940   -3.6950 c3        1 3Q0     -0.110100
     13 C2          5.6410   -0.3730   -2.5180 c3        1 3Q0      0.197800
     14 N7          4.2580    0.4330    2.3090 nb        1 3Q0     -0.772000
     15 N10         6.3510    0.1720    1.0290 nb        1 3Q0     -0.815000
     16 N17        -2.0850   -0.7730    2.7430 na        1 3Q0      0.031800
     17 N18        -0.8670   -1.0360    3.2110 nc        1 3Q0     -0.276400
     18 N16        -3.2280    0.4100    0.8800 nh        1 3Q0     -0.777600
     19 N9          6.3820    0.8680    3.3000 nh        1 3Q0     -0.925500
     20 N3          6.2970   -0.5190   -1.2400 nh        1 3Q0     -0.848900
     21 H13        -0.5630    1.2380   -0.6600 ha        1 3Q0      0.125000
     22 H12         1.9360    1.2280   -0.6230 ha        1 3Q0      0.135000
     23 H20         1.9940   -0.9360    3.1410 ha        1 3Q0      0.160000
     24 H5          3.5840   -0.3820   -0.9280 ha        1 3Q0      0.154000
     25 H1          7.1880   -1.3440   -3.7220 hc        1 3Q0      0.046033
     26 H1A         6.0140   -0.3120   -4.6390 hc        1 3Q0      0.046033
     27 H1B         7.3190    0.4630   -3.6470 hc        1 3Q0      0.046033
     28 H2          5.0420    0.5840   -2.5560 h1        1 3Q0      0.042700
     29 H2A         4.9120   -1.2290   -2.6250 h1        1 3Q0      0.042700
     30 HN16       -2.9850    0.8460    0.0130 hn        1 3Q0      0.390300
     31 HN1A       -3.9380   -0.2840    0.7600 hn        1 3Q0      0.390300
     32 HN9         7.3440    0.6180    3.3060 hn        1 3Q0      0.422300
     33 HN9A        5.9140    0.8160    4.1750 hn        1 3Q0      0.422300
     34 HN3         7.2810   -0.3500   -1.2450 hn        1 3Q0      0.424800
     35 HN17       -2.8860   -1.0550    3.2610 hn        1 3Q0      0.324700
@<TRIPOS>BOND
     1    1    2 ar  
     2    1    5 ar  
     3    1   21 1   
     4    2    6 ar  
     5    2   22 1   
     6    3    6 ar  
     7    3    7 ar  
     8    3   23 1   
     9    4    8 ar  
    10    4    9 ar  
    11    4   24 1   
    12    5    7 ar  
    13    5   10 2   
    14    6    8 1   
    15    7   17 2   
    16    8   14 ar  
    17    9   15 ar  
    18    9   20 1   
    19   10   16 1   
    20   10   18 1   
    21   11   14 ar  
    22   11   15 ar  
    23   11   19 1   
    24   12   13 1   
    25   12   25 1   
    26   12   26 1   
    27   12   27 1   
    28   13   20 1   
    29   13   28 1   
    30   13   29 1   
    31   16   17 1   
    32   16   35 1   
    33   18   30 1   
    34   18   31 1   
    35   19   32 1   
    36   19   33 1   
    37   20   34 1   
@<TRIPOS>SUBSTRUCTURE
     1 3Q0         1 TEMP              0 ****  ****    0 ROOT
