@<TRIPOS>MOLECULE
3Q0
   38    40     1     0     0
SMALL
bcc


@<TRIPOS>ATOM
      1 C13        -0.2790   -0.2590    0.0830 ca        1 3Q0     -0.099000
      2 C12         1.0920   -0.2830    0.0200 ca        1 3Q0     -0.067000
      3 C20         1.3450    0.3510    2.3770 ca        1 3Q0      0.058000
      4 C5          3.9880    0.3920   -0.2100 ca        1 3Q0     -0.285600
      5 C14        -0.8960    0.0850    1.3040 ca        1 3Q0     -0.005000
      6 C11         1.9110    0.0230    1.1550 cp        1 3Q0     -0.229500
      7 C19        -0.0690    0.3960    2.4630 ca        1 3Q0     -0.124000
      8 C6          3.3720   -0.0360    1.0100 cp        1 3Q0      0.600800
      9 C4          5.3910    0.3240   -0.2920 ca        1 3Q0      0.550200
     10 C15        -2.2300    0.2280    1.7900 cc        1 3Q0     -0.177100
     11 C8          5.4830   -0.5180    1.8540 ca        1 3Q0      0.768900
     12 C1          7.2820    0.1100   -3.6080 c3        1 3Q0     -0.152100
     13 C2          6.6460   -0.3780   -2.3260 c3        1 3Q0      0.124800
     14 N7          4.1230   -0.4890    2.0470 nb        1 3Q0     -0.646000
     15 N10         6.1690   -0.1400    0.7370 nb        1 3Q0     -0.668000
     16 N17        -2.1160    0.6020    3.1530 na        1 3Q0      0.128800
     17 N18        -0.8820    0.7030    3.5510 nc        1 3Q0     -0.104400
     18 N16        -3.4700    0.0360    1.0820 n4        1 3Q0     -0.662400
     19 N9          6.3000   -1.0220    2.9990 n4        1 3Q0     -0.819300
     20 N3          6.0940    0.7740   -1.5130 n4        1 3Q0     -0.765700
     21 H13        -0.8860   -0.5090   -0.8020 ha        1 3Q0      0.167000
     22 H12         1.5790   -0.5730   -0.9260 ha        1 3Q0      0.153000
     23 H20         1.9460    0.5850    3.2730 ha        1 3Q0      0.187000
     24 H5          3.3570    0.7760   -1.0310 ha        1 3Q0      0.212000
     25 H1          8.1500    0.7910   -3.4180 hc        1 3Q0      0.102033
     26 H1A         7.6720   -0.7910   -4.1560 hc        1 3Q0      0.102033
     27 H1B         6.5490    0.6250   -4.2770 hc        1 3Q0      0.102033
     28 H2          7.4080   -0.9100   -1.6860 hx        1 3Q0      0.115700
     29 H2A         5.7900   -1.0770   -2.5470 hx        1 3Q0      0.115700
     30 HN16       -3.2460   -0.2360    0.1130 hn        1 3Q0      0.485133
     31 HN1A       -4.0300   -0.7130    1.5190 hn        1 3Q0      0.485133
     32 HN9         6.1810   -0.3880    3.8060 hn        1 3Q0      0.505133
     33 HN9A        5.9730   -1.9670    3.2620 hn        1 3Q0      0.505133
     34 HN3         6.8780    1.3990   -1.2570 hn        1 3Q0      0.483300
     35 HN17       -2.8700    0.7860    3.7980 hn        1 3Q0      0.381700
     36 H163       -4.0210    0.9080    1.0650 hn        1 3Q0      0.485133
     37 H93         7.3010   -1.0650    2.7450 hn        1 3Q0      0.505133
     38 H32         5.4340    1.3130   -2.0930 hn        1 3Q0      0.483300
@<TRIPOS>BOND
     1    1    2 ar  
     2    1    5 ar  
     3    1   21 1   
     4    2    6 ar  
     5    2   22 1   
     6    3    6 ar  
     7    3    7 ar  
     8    3   23 1   
     9    4    8 ar  
    10    4    9 ar  
    11    4   24 1   
    12    5    7 ar  
    13    5   10 2   
    14    6    8 1   
    15    7   17 2   
    16    8   14 ar  
    17    9   15 ar  
    18    9   20 1   
    19   10   16 1   
    20   10   18 1   
    21   11   14 ar  
    22   11   15 ar  
    23   11   19 1   
    24   12   13 1   
    25   12   25 1   
    26   12   26 1   
    27   12   27 1   
    28   13   20 1   
    29   13   28 1   
    30   13   29 1   
    31   16   17 1   
    32   16   35 1   
    33   18   30 1   
    34   18   31 1   
    35   18   36 1   
    36   19   32 1   
    37   19   33 1   
    38   19   37 1   
    39   20   34 1   
    40   20   38 1   
@<TRIPOS>SUBSTRUCTURE
     1 3Q0         1 TEMP              0 ****  ****    0 ROOT
