@<TRIPOS>MOLECULE
3Q1
   40    43     1     0     0
SMALL
bcc


@<TRIPOS>ATOM
      1 C9         -2.9750   -1.4520    0.9440 ca        1 3Q1     -0.074000
      2 C8         -1.7320   -0.8820    0.9390 ca        1 3Q1     -0.139000
      3 C6         -2.4060    0.8860   -0.6230 ca        1 3Q1     -0.050000
      4 C12         1.0060   -0.0880    0.1070 ca        1 3Q1     -0.431600
      5 C10        -3.9890   -0.8760    0.1520 ca        1 3Q1     -0.169000
      6 C7         -1.4460    0.2830    0.1530 cp        1 3Q1     -0.144500
      7 C5         -3.7110    0.3140   -0.6510 ca        1 3Q1     -0.063000
      8 C11        -0.0680    0.8180    0.1960 cp        1 3Q1      0.543800
      9 C13         2.3290    0.4450    0.1300 ca        1 3Q1      0.688200
     10 C2         -5.3620   -1.1690   -0.1040 cc        1 3Q1      0.074900
     11 C15         1.4220    2.5930    0.3580 ca        1 3Q1      0.887900
     12 C19         3.4130   -1.4330   -0.9650 c3        1 3Q1      0.152300
     13 C23         4.7580    0.1150    0.3290 c3        1 3Q1      0.152300
     14 C20         4.5210   -2.4820   -0.8030 c3        1 3Q1      0.121900
     15 C22         5.8310   -0.9750    0.4530 c3        1 3Q1      0.121900
     16 N17         0.1060    2.1540    0.3100 nb        1 3Q1     -0.761000
     17 N14         2.5440    1.7900    0.2360 nb        1 3Q1     -0.804000
     18 N3         -5.7910   -0.1770   -1.0030 na        1 3Q1      0.029800
     19 N4         -4.8420    0.6970   -1.3300 nc        1 3Q1     -0.276400
     20 N18         3.4320   -0.4530    0.1150 nh        1 3Q1     -0.733300
     21 N1         -6.1310   -2.2560    0.3190 nh        1 3Q1     -0.777600
     22 N16         1.6380    3.9570    0.6020 nh        1 3Q1     -0.924500
     23 O21         5.7990   -1.8780   -0.6460 os        1 3Q1     -0.413600
     24 H9         -3.1950   -2.3450    1.5470 ha        1 3Q1      0.127000
     25 H8         -0.9220   -1.3040    1.5540 ha        1 3Q1      0.138000
     26 H6         -2.1970    1.7880   -1.2160 ha        1 3Q1      0.159000
     27 H19         3.5420   -0.9290   -1.9660 h1        1 3Q1      0.056700
     28 H19A        2.4220   -1.9650   -0.9650 h1        1 3Q1      0.056700
     29 H23         4.7420    0.7070    1.2860 h1        1 3Q1      0.056700
     30 H23A        5.0470    0.8080   -0.5120 h1        1 3Q1      0.056700
     31 H20         4.3100   -3.1510    0.0720 h1        1 3Q1      0.056450
     32 H20A        4.6100   -3.0890   -1.7420 h1        1 3Q1      0.056450
     33 H22         6.8510   -0.5110    0.4050 h1        1 3Q1      0.056450
     34 H22A        5.7100   -1.5460    1.4110 h1        1 3Q1      0.056450
     35 HN1        -5.6460   -2.7810    1.0180 hn        1 3Q1      0.391300
     36 HN1A       -7.0520   -2.0030    0.6160 hn        1 3Q1      0.391300
     37 HN16        0.8700    4.5610    0.4200 hn        1 3Q1      0.423800
     38 HN1B        2.5360    4.3100    0.3660 hn        1 3Q1      0.423800
     39 HN3        -6.6960   -0.0990   -1.4070 hn        1 3Q1      0.324700
     40 H12         0.8150   -1.1640    0.0350 ha        1 3Q1      0.158000
@<TRIPOS>BOND
     1    1    2 ar  
     2    1    5 ar  
     3    1   24 1   
     4    2    6 ar  
     5    2   25 1   
     6    3    6 ar  
     7    3    7 ar  
     8    3   26 1   
     9    4    8 ar  
    10    4    9 ar  
    11    4   40 1   
    12    5    7 ar  
    13    5   10 2   
    14    6    8 1   
    15    7   19 2   
    16    8   16 ar  
    17    9   17 ar  
    18    9   20 1   
    19   10   18 1   
    20   10   21 1   
    21   11   16 ar  
    22   11   17 ar  
    23   11   22 1   
    24   12   14 1   
    25   12   20 1   
    26   12   27 1   
    27   12   28 1   
    28   13   15 1   
    29   13   20 1   
    30   13   29 1   
    31   13   30 1   
    32   14   23 1   
    33   14   31 1   
    34   14   32 1   
    35   15   23 1   
    36   15   33 1   
    37   15   34 1   
    38   18   19 1   
    39   18   39 1   
    40   21   35 1   
    41   21   36 1   
    42   22   37 1   
    43   22   38 1   
@<TRIPOS>SUBSTRUCTURE
     1 3Q1         1 TEMP              0 ****  ****    0 ROOT
