@<TRIPOS>MOLECULE
3Q1
   40    43     1     0     0
SMALL
bcc


@<TRIPOS>ATOM
      1 C9          0.0420   -0.7900    0.1680 ca        1 3Q1     -0.075000
      2 C8          1.4090   -0.7900    0.2270 ca        1 3Q1     -0.138000
      3 C6          1.4480    0.5160    2.3040 ca        1 3Q1     -0.050000
      4 C12         4.2440    0.0720    0.0390 ca        1 3Q1     -0.432600
      5 C10        -0.6810   -0.1200    1.1750 ca        1 3Q1     -0.168000
      6 C7          2.1110   -0.1330    1.2910 cp        1 3Q1     -0.144500
      7 C5          0.0240    0.5470    2.2690 ca        1 3Q1     -0.064000
      8 C11         3.5890   -0.1700    1.2620 cp        1 3Q1      0.544800
      9 C13         5.6700    0.0520    0.0320 ca        1 3Q1      0.688200
     10 C2         -2.0630    0.1020    1.4510 cc        1 3Q1      0.072900
     11 C15         5.6390   -0.4630    2.3170 ca        1 3Q1      0.888900
     12 C19         5.9670    1.4070   -1.9620 c3        1 3Q1      0.152300
     13 C23         7.7950    0.0060   -1.2050 c3        1 3Q1      0.152300
     14 C20         6.5980    1.4210   -3.3610 c3        1 3Q1      0.121400
     15 C22         8.3780    0.0590   -2.6230 c3        1 3Q1      0.121400
     16 N17         4.2550   -0.4280    2.4110 nb        1 3Q1     -0.760000
     17 N14         6.3750   -0.1960    1.1740 nb        1 3Q1     -0.804000
     18 N3         -2.0880    0.8560    2.6370 na        1 3Q1      0.030800
     19 N4         -0.8800    1.1280    3.1250 nc        1 3Q1     -0.276400
     20 N18         6.3530    0.2230   -1.2040 nh        1 3Q1     -0.733300
     21 N1         -3.1920   -0.3970    0.7960 nh        1 3Q1     -0.777600
     22 N16         6.3520   -0.8510    3.4590 nh        1 3Q1     -0.925500
     23 O21         8.0090    1.2540   -3.3030 os        1 3Q1     -0.413600
     24 H9         -0.4970   -1.3050   -0.6400 ha        1 3Q1      0.127000
     25 H8          2.0010   -1.3120   -0.5400 ha        1 3Q1      0.138000
     26 H6          1.9810    1.0040    3.1340 ha        1 3Q1      0.159000
     27 H19         6.2780    2.3480   -1.4210 h1        1 3Q1      0.056450
     28 H19A        4.8490    1.4240   -2.0790 h1        1 3Q1      0.056450
     29 H23         8.3250    0.7730   -0.5700 h1        1 3Q1      0.056450
     30 H23A        8.0020   -1.0140   -0.7750 h1        1 3Q1      0.056450
     31 H20         6.1500    0.6210   -4.0060 h1        1 3Q1      0.056450
     32 H20A        6.4530    2.4280   -3.8330 h1        1 3Q1      0.056450
     33 H22         9.4970    0.1010   -2.5720 h1        1 3Q1      0.056450
     34 H22A        8.0500   -0.8300   -3.2240 h1        1 3Q1      0.056450
     35 HN1        -2.9330   -0.8610   -0.0510 hn        1 3Q1      0.391300
     36 HN1A       -3.9010    0.2920    0.6410 hn        1 3Q1      0.391300
     37 HN16        7.3180   -0.6170    3.4790 hn        1 3Q1      0.424300
     38 HN1B        5.8680   -0.7810    4.3240 hn        1 3Q1      0.424300
     39 HN3        -2.8990    1.1630    3.1230 hn        1 3Q1      0.324700
     40 H12         3.6610    0.2580   -0.8700 ha        1 3Q1      0.157000
@<TRIPOS>BOND
     1    1    2 ar  
     2    1    5 ar  
     3    1   24 1   
     4    2    6 ar  
     5    2   25 1   
     6    3    6 ar  
     7    3    7 ar  
     8    3   26 1   
     9    4    8 ar  
    10    4    9 ar  
    11    4   40 1   
    12    5    7 ar  
    13    5   10 2   
    14    6    8 1   
    15    7   19 2   
    16    8   16 ar  
    17    9   17 ar  
    18    9   20 1   
    19   10   18 1   
    20   10   21 1   
    21   11   16 ar  
    22   11   17 ar  
    23   11   22 1   
    24   12   14 1   
    25   12   20 1   
    26   12   27 1   
    27   12   28 1   
    28   13   15 1   
    29   13   20 1   
    30   13   29 1   
    31   13   30 1   
    32   14   23 1   
    33   14   31 1   
    34   14   32 1   
    35   15   23 1   
    36   15   33 1   
    37   15   34 1   
    38   18   19 1   
    39   18   39 1   
    40   21   35 1   
    41   21   36 1   
    42   22   37 1   
    43   22   38 1   
@<TRIPOS>SUBSTRUCTURE
     1 3Q1         1 TEMP              0 ****  ****    0 ROOT
