@<TRIPOS>MOLECULE
3Q1
   40    43     1     0     0
SMALL
bcc


@<TRIPOS>ATOM
      1 C9          0.0470   -0.8070    0.1760 ca        1 3Q1     -0.075000
      2 C8          1.4140   -0.7990    0.2380 ca        1 3Q1     -0.138000
      3 C6          1.4430    0.5370    2.2950 ca        1 3Q1     -0.050000
      4 C12         4.2440    0.0740    0.0410 ca        1 3Q1     -0.432600
      5 C10        -0.6810   -0.1260    1.1730 ca        1 3Q1     -0.168000
      6 C7          2.1110   -0.1230    1.2930 cp        1 3Q1     -0.144500
      7 C5          0.0180    0.5600    2.2580 ca        1 3Q1     -0.064000
      8 C11         3.5890   -0.1540    1.2670 cp        1 3Q1      0.544800
      9 C13         5.6710    0.0610    0.0370 ca        1 3Q1      0.688200
     10 C2         -2.0650    0.0930    1.4430 cc        1 3Q1      0.072900
     11 C15         5.6390   -0.4220    2.3290 ca        1 3Q1      0.888900
     12 C19         5.9650    1.3890   -1.9750 c3        1 3Q1      0.152300
     13 C23         7.7980    0.0060   -1.1960 c3        1 3Q1      0.152300
     14 C20         6.5980    1.3850   -3.3730 c3        1 3Q1      0.121400
     15 C22         8.3830    0.0420   -2.6140 c3        1 3Q1      0.121400
     16 N17         4.2540   -0.3920    2.4200 nb        1 3Q1     -0.760000
     17 N14         6.3750   -0.1680    1.1840 nb        1 3Q1     -0.804000
     18 N3         -2.0950    0.8640    2.6180 na        1 3Q1      0.030800
     19 N4         -0.8900    1.1490    3.1040 nc        1 3Q1     -0.276400
     20 N18         6.3550    0.2160   -1.2010 nh        1 3Q1     -0.733300
     21 N1         -3.1910   -0.4210    0.7940 nv        1 3Q1     -0.777600
     22 N16         6.3520   -0.7890    3.4780 nv        1 3Q1     -0.925500
     23 O21         8.0100    1.2250   -3.3120 os        1 3Q1     -0.413600
     24 H9         -0.4880   -1.3370   -0.6250 ha        1 3Q1      0.127000
     25 H8          2.0090   -1.3300   -0.5210 ha        1 3Q1      0.138000
     26 H6          1.9720    1.0390    3.1190 ha        1 3Q1      0.159000
     27 H19         4.8470    1.3980   -2.0950 h1        1 3Q1      0.056450
     28 H19A        6.2710    2.3380   -1.4470 h1        1 3Q1      0.056450
     29 H23         8.0080   -1.0060   -0.7510 h1        1 3Q1      0.056450
     30 H23A        8.3240    0.7840   -0.5720 h1        1 3Q1      0.056450
     31 H20         6.4490    2.3840   -3.8610 h1        1 3Q1      0.056450
     32 H20A        6.1540    0.5740   -4.0080 h1        1 3Q1      0.056450
     33 H22         8.0590   -0.8570   -3.2020 h1        1 3Q1      0.056450
     34 H22A        9.5020    0.0880   -2.5620 h1        1 3Q1      0.056450
     35 HN1        -2.9270   -0.8960   -0.0460 hn        1 3Q1      0.391300
     36 HN1A       -3.9020    0.2610    0.6280 hn        1 3Q1      0.391300
     37 HN16        7.3160   -0.5500    3.4960 hn        1 3Q1      0.424300
     38 HN1B        5.8650   -0.7090    4.3410 hn        1 3Q1      0.424300
     39 HN3        -2.9090    1.1740    3.0990 hn        1 3Q1      0.324700
     40 H12         3.6630    0.2440   -0.8710 ha        1 3Q1      0.157000
@<TRIPOS>BOND
     1    1    2 ar  
     2    1    5 ar  
     3    1   24 1   
     4    2    6 ar  
     5    2   25 1   
     6    3    6 ar  
     7    3    7 ar  
     8    3   26 1   
     9    4    8 ar  
    10    4    9 ar  
    11    4   40 1   
    12    5    7 ar  
    13    5   10 2   
    14    6    8 1   
    15    7   19 2   
    16    8   16 ar  
    17    9   17 ar  
    18    9   20 1   
    19   10   18 1   
    20   10   21 1   
    21   11   16 ar  
    22   11   17 ar  
    23   11   22 1   
    24   12   14 1   
    25   12   20 1   
    26   12   27 1   
    27   12   28 1   
    28   13   15 1   
    29   13   20 1   
    30   13   29 1   
    31   13   30 1   
    32   14   23 1   
    33   14   31 1   
    34   14   32 1   
    35   15   23 1   
    36   15   33 1   
    37   15   34 1   
    38   18   19 1   
    39   18   39 1   
    40   21   35 1   
    41   21   36 1   
    42   22   37 1   
    43   22   38 1   
@<TRIPOS>SUBSTRUCTURE
     1 3Q1         1 TEMP              0 ****  ****    0 ROOT
