@<TRIPOS>MOLECULE
3Q1
   40    32     1     0     0
SMALL
bcc


@<TRIPOS>ATOM
      1 C9         -3.6640    0.6460    0.6070 c1        1 3Q1     -0.087000
      2 C8         -2.2800    0.6710    0.6410 c1        1 3Q1     -0.087000
      3 C6         -2.2520   -1.7380    0.5880 c1        1 3Q1     -0.087000
      4 C12         0.5890   -0.2530   -0.3230 c1        1 3Q1     -0.300000
      5 C10        -4.3540   -0.5970    0.5630 c1        1 3Q1     -0.090667
      6 C7         -1.5700   -0.5060    0.6320 c1        1 3Q1     -0.090667
      7 C5         -3.6580   -1.7610    0.5540 c1        1 3Q1     -0.090667
      8 C11        -0.2100   -0.4590    0.7740 c1        1 3Q1      0.108000
      9 C13         1.9380   -0.0870   -0.1630 c1        1 3Q1      0.166000
     10 C2         -5.7130   -0.9090    0.4960 c1        1 3Q1      0.019000
     11 C15         1.6710   -0.3310    2.1590 c1        1 3Q1      0.168000
     12 C19         2.6020    1.4440   -1.8010 c3        1 3Q1     -0.085000
     13 C23         4.1840   -0.0980   -0.9150 c3        1 3Q1     -0.085000
     14 C20         3.7450    2.2240   -2.4650 c3        1 3Q1     -0.028500
     15 C22         5.3250    0.6820   -1.5790 c3        1 3Q1     -0.028500
     16 N17         0.3350   -0.4960    2.0020 n2        1 3Q1     -0.235000
     17 N14         2.4730   -0.1250    1.0640 n1        1 3Q1     -0.276000
     18 N3         -5.8320   -2.2670    0.4470 n2        1 3Q1     -0.127000
     19 N4         -4.5730   -2.8060    0.4820 n1        1 3Q1     -0.096000
     20 N18         3.0270    0.7320   -0.6560 n3        1 3Q1     -0.224000
     21 N1         -6.9520   -0.2500    0.3170 n2        1 3Q1     -0.304500
     22 N16         2.3220   -0.3170    3.4320 n2        1 3Q1     -0.304500
     23 O21         4.8960    1.3950   -2.7260 os        1 3Q1     -0.269000
     24 H9         -4.1580    1.4680    0.6140 ha        1 3Q1      0.141333
     25 H8         -1.7950    1.5490    0.6740 ha        1 3Q1      0.141333
     26 H6         -1.7360   -2.5970    0.5820 ha        1 3Q1      0.141333
     27 H12         0.2050   -0.2270   -1.1950 ha        1 3Q1      0.158000
     28 H19         1.8960    2.0770   -1.5390 h1        1 3Q1      0.096250
     29 H19A        2.2410    0.8200   -2.4400 h1        1 3Q1      0.096250
     30 H23         4.5000   -0.4590   -0.0800 h1        1 3Q1      0.096250
     31 H23A        3.9190   -0.8430   -1.5060 h1        1 3Q1      0.096250
     32 H20         3.4240    2.6020   -3.3110 h1        1 3Q1      0.095500
     33 H20A        4.0150    2.9620   -1.8680 h1        1 3Q1      0.095500
     34 H22         6.0420    0.0460   -1.8440 h1        1 3Q1      0.095500
     35 H22A        5.7030    1.3370   -0.9100 h1        1 3Q1      0.095500
     36 HN1        -6.9920    0.6550    0.3460 hn        1 3Q1      0.202500
     37 HN1A       -7.7030   -0.7270    0.2350 hn        1 3Q1      0.202500
     38 HN16        1.7990   -0.4200    4.2460 hn        1 3Q1      0.202500
     39 HN1B        3.2380   -0.2830    3.4760 hn        1 3Q1      0.202500
     40 HN3        -6.6440   -2.7530    0.3920 DU        1 3Q1      0.275000
@<TRIPOS>BOND
     1    1    5 1   
     2    1   24 1   
     3    2    6 1   
     4    2   25 1   
     5    3    7 1   
     6    3   26 1   
     7    4    9 1   
     8    4   27 1   
     9    8   16 1   
    10    9   20 1   
    11   10   18 1   
    12   11   16 1   
    13   11   17 1   
    14   12   14 1   
    15   12   20 1   
    16   12   28 1   
    17   12   29 1   
    18   13   15 1   
    19   13   20 1   
    20   13   30 1   
    21   13   31 1   
    22   14   23 1   
    23   14   32 1   
    24   14   33 1   
    25   15   23 1   
    26   15   34 1   
    27   15   35 1   
    28   18   19 1   
    29   21   36 1   
    30   21   37 1   
    31   22   38 1   
    32   22   39 1   
@<TRIPOS>SUBSTRUCTURE
     1 3Q1         1 TEMP              0 ****  ****    0 ROOT
