@<TRIPOS>MOLECULE
3Q1
   42    45     1     0     0
SMALL
bcc


@<TRIPOS>ATOM
      1 C9          0.0110   -0.5660    0.1080 ca        1 3Q1     -0.134000
      2 C8          1.3840   -0.5990    0.1640 ca        1 3Q1     -0.047000
      3 C6          1.4630    0.5390    2.3340 ca        1 3Q1      0.010000
      4 C12         4.2690    0.2030    0.0610 ca        1 3Q1     -0.382600
      5 C10        -0.6880    0.0350    1.1720 ca        1 3Q1     -0.011000
      6 C7          2.1090   -0.0470    1.2660 cp        1 3Q1     -0.171500
      7 C5          0.0440    0.5960    2.3020 ca        1 3Q1     -0.107000
      8 C11         3.5850   -0.1210    1.2340 cp        1 3Q1      0.543800
      9 C13         5.7140    0.1180    0.0380 ca        1 3Q1      0.737200
     10 C2         -2.0560    0.2760    1.5010 cc        1 3Q1     -0.208100
     11 C15         5.5900   -0.5420    2.2670 ca        1 3Q1      0.764900
     12 C19         5.7550    0.9050   -2.2660 c3        1 3Q1      0.162800
     13 C23         7.8910    0.4610   -1.0360 c3        1 3Q1      0.162800
     14 C20         6.5960    0.9160   -3.5520 c3        1 3Q1      0.113900
     15 C22         8.5880    0.4890   -2.4030 c3        1 3Q1      0.113900
     16 N17         4.2320   -0.5060    2.3800 nb        1 3Q1     -0.731000
     17 N14         6.3800   -0.2550    1.2000 nb        1 3Q1     -0.764000
     18 N3         -2.0530    0.9390    2.7530 na        1 3Q1      0.108800
     19 N4         -0.8500    1.1270    3.2220 nc        1 3Q1     -0.126400
     20 N18         6.4390    0.3560   -1.1040 nh        1 3Q1     -0.710300
     21 N1         -3.2230   -0.0720    0.7370 n4        1 3Q1     -0.654400
     22 N16         6.3320   -0.9560    3.5050 n4        1 3Q1     -0.821300
     23 O21         7.9210    1.3550   -3.3090 os        1 3Q1     -0.377600
     24 H9         -0.5290   -1.0000   -0.7460 ha        1 3Q1      0.151000
     25 H8          1.9530   -1.0730   -0.6540 ha        1 3Q1      0.163000
     26 H6          2.0050    0.9620    3.1960 ha        1 3Q1      0.183000
     27 H19A        4.8390    0.2820   -2.4790 h1        1 3Q1      0.070200
     28 H23         8.1530    1.4040   -0.4740 h1        1 3Q1      0.070200
     29 H23A        8.3020   -0.4220   -0.4680 h1        1 3Q1      0.070200
     30 H20         6.1710    1.6700   -4.2680 h1        1 3Q1      0.081700
     31 H20A        6.6060   -0.1030   -4.0220 h1        1 3Q1      0.081700
     32 H22         9.6150    0.9300   -2.2900 h1        1 3Q1      0.081700
     33 H22A        8.6560   -0.5440   -2.8350 h1        1 3Q1      0.081700
     34 HN1        -2.9050   -0.5460   -0.1200 hn        1 3Q1      0.475133
     35 HN1A       -3.7560    0.7700    0.4780 hn        1 3Q1      0.475133
     36 HN16        7.3450   -0.9710    3.3220 hn        1 3Q1      0.482800
     37 HN1B        6.1280   -0.2880    4.2570 hn        1 3Q1      0.482800
     38 HN3        -2.8520    1.2550    3.2730 hn        1 3Q1      0.364700
     39 H12         3.7070    0.5390   -0.8220 ha        1 3Q1      0.182000
     40 H13        -3.8320   -0.7110    1.2690 hn        1 3Q1      0.475133
     41 H163        6.0180   -1.8940    3.7850 hn        1 3Q1      0.482800
     42 H19         5.4330    1.9610   -2.0310 h1        1 3Q1      0.070200
@<TRIPOS>BOND
     1    1    2 ar  
     2    1    5 ar  
     3    1   24 1   
     4    2    6 ar  
     5    2   25 1   
     6    3    6 ar  
     7    3    7 ar  
     8    3   26 1   
     9    4    8 ar  
    10    4    9 ar  
    11    4   39 1   
    12    5    7 ar  
    13    5   10 2   
    14    6    8 1   
    15    7   19 2   
    16    8   16 ar  
    17    9   17 ar  
    18    9   20 1   
    19   10   18 1   
    20   10   21 1   
    21   11   16 ar  
    22   11   17 ar  
    23   11   22 1   
    24   12   14 1   
    25   12   20 1   
    26   12   27 1   
    27   12   42 1   
    28   13   15 1   
    29   13   20 1   
    30   13   28 1   
    31   13   29 1   
    32   14   23 1   
    33   14   30 1   
    34   14   31 1   
    35   15   23 1   
    36   15   32 1   
    37   15   33 1   
    38   18   19 1   
    39   18   38 1   
    40   21   34 1   
    41   21   35 1   
    42   21   40 1   
    43   22   36 1   
    44   22   37 1   
    45   22   41 1   
@<TRIPOS>SUBSTRUCTURE
     1 3Q1         1 TEMP              0 ****  ****    0 ROOT
