@<TRIPOS>MOLECULE
3Q2
   43    46     1     0     0
SMALL
bcc


@<TRIPOS>ATOM
      1 C1          0.0390   -0.7270    0.0950 ca        1 3Q2     -0.076000
      2 C2          1.4040   -0.7120    0.1880 ca        1 3Q2     -0.138000
      3 C3          1.3770    0.4870    2.3280 ca        1 3Q2     -0.047000
      4 C4          4.2310    0.1890    0.1130 ca        1 3Q2     -0.446600
      5 C5         -0.7160   -0.1180    1.1180 ca        1 3Q2     -0.168000
      6 C6          2.0720   -0.1010    1.2990 cp        1 3Q2     -0.146500
      7 C7         -0.0470    0.5010    2.2600 ca        1 3Q2     -0.064000
      8 C8          3.5510   -0.1180    1.3060 cp        1 3Q2      0.547800
      9 C9          5.6600    0.1540    0.1270 ca        1 3Q2      0.707200
     10 C10        -2.1080    0.0720    1.3710 cc        1 3Q2      0.071900
     11 C11         5.5760   -0.4230    2.4000 ca        1 3Q2      0.889900
     12 C12         5.9070    1.3760   -1.9820 c3        1 3Q2      0.159800
     13 C13         6.4870    1.1960   -3.3940 c3        1 3Q2      0.122400
     14 C14         8.3470    0.0350   -2.5200 c3        1 3Q2      0.121400
     15 C15         7.8360    0.2120   -1.0700 c3        1 3Q2      0.180500
     16 C16         8.5960    1.3720   -0.4280 c3        1 3Q2     -0.118100
     17 N17         4.1890   -0.4300    2.4570 nb        1 3Q2     -0.765000
     18 N18         6.3360   -0.1580    1.2750 nb        1 3Q2     -0.810000
     19 N19        -2.1710    0.7630    2.5930 na        1 3Q2      0.030800
     20 N20        -0.9790    1.0260    3.1230 nc        1 3Q2     -0.275400
     21 N21         6.3770    0.3390   -1.0770 nh        1 3Q2     -0.745300
     22 N22        -3.2140   -0.4070    0.6640 nh        1 3Q2     -0.777600
     23 N23         6.2700   -0.6360    3.6010 nh        1 3Q2     -0.924500
     24 O24         7.9030    1.0820   -3.3760 os        1 3Q2     -0.412600
     25 H1         -0.4730   -1.2060   -0.7510 ha        1 3Q2      0.126000
     26 H2          2.0210   -1.1870   -0.5910 ha        1 3Q2      0.137000
     27 H3          1.8840    0.9390    3.1930 ha        1 3Q2      0.162000
     28 H4          3.6580    0.4220   -0.7900 ha        1 3Q2      0.154000
     29 H12         6.2020    2.3970   -1.5990 h1        1 3Q2      0.053200
     30 H12A        4.7870    1.3440   -2.0650 h1        1 3Q2      0.053200
     31 H13         6.2860    2.1140   -4.0060 h1        1 3Q2      0.055700
     32 H13A        6.0430    0.2940   -3.8910 h1        1 3Q2      0.055700
     33 H14         9.4660    0.1130   -2.5420 h1        1 3Q2      0.056200
     34 H14A        8.0180   -0.9540   -2.9330 h1        1 3Q2      0.056200
     35 H15         8.0910   -0.7370   -0.5130 h1        1 3Q2      0.081700
     36 H16         9.6770    1.1010   -0.3600 hc        1 3Q2      0.047700
     37 H16A        8.2220    1.5910    0.5990 hc        1 3Q2      0.047700
     38 H16B        8.5000    2.2930   -1.0530 hc        1 3Q2      0.047700
     39 HN22       -2.9280   -0.8220   -0.2000 hn        1 3Q2      0.390300
     40 HN2A       -3.9280    0.2800    0.5270 hn        1 3Q2      0.390300
     41 HN23        7.2220   -0.9080    3.5150 hn        1 3Q2      0.422300
     42 HN2B        5.7560   -1.0810    4.3270 hn        1 3Q2      0.422300
     43 HN19       -2.9970    1.0360    3.0740 hn        1 3Q2      0.324700
@<TRIPOS>BOND
     1    1    2 ar  
     2    1    5 ar  
     3    1   25 1   
     4    2    6 ar  
     5    2   26 1   
     6    3    6 ar  
     7    3    7 ar  
     8    3   27 1   
     9    4    8 ar  
    10    4    9 ar  
    11    4   28 1   
    12    5    7 ar  
    13    5   10 2   
    14    6    8 1   
    15    7   20 2   
    16    8   17 ar  
    17    9   18 ar  
    18    9   21 1   
    19   10   19 1   
    20   10   22 1   
    21   11   17 ar  
    22   11   18 ar  
    23   11   23 1   
    24   12   13 1   
    25   12   21 1   
    26   12   29 1   
    27   12   30 1   
    28   13   24 1   
    29   13   31 1   
    30   13   32 1   
    31   14   15 1   
    32   14   24 1   
    33   14   33 1   
    34   14   34 1   
    35   15   16 1   
    36   15   21 1   
    37   15   35 1   
    38   16   36 1   
    39   16   37 1   
    40   16   38 1   
    41   19   20 1   
    42   19   43 1   
    43   22   39 1   
    44   22   40 1   
    45   23   41 1   
    46   23   42 1   
@<TRIPOS>SUBSTRUCTURE
     1 3Q2         1 TEMP              0 ****  ****    0 ROOT
