@<TRIPOS>MOLECULE
3Q2
   43    46     1     0     0
SMALL
bcc


@<TRIPOS>ATOM
      1 C1         -3.2040   -1.5000    0.8740 ca        1 3Q2     -0.075000
      2 C2         -1.9600   -0.9320    0.8780 ca        1 3Q2     -0.139000
      3 C3         -2.6590    0.9210   -0.5700 ca        1 3Q2     -0.048000
      4 C4          0.7640   -0.0950    0.0400 ca        1 3Q2     -0.446600
      5 C5         -4.2310   -0.8790    0.1360 ca        1 3Q2     -0.169000
      6 C6         -1.6870    0.2740    0.1530 cp        1 3Q2     -0.146500
      7 C7         -3.9660    0.3530   -0.6050 ca        1 3Q2     -0.064000
      8 C8         -0.3070    0.8050    0.1970 cp        1 3Q2      0.547800
      9 C9          2.0930    0.4270    0.1000 ca        1 3Q2      0.707200
     10 C10        -5.6100   -1.1560   -0.1100 cc        1 3Q2      0.072900
     11 C11         1.1870    2.5680    0.4150 ca        1 3Q2      0.888900
     12 C12         3.1300   -1.5710   -0.8690 c3        1 3Q2      0.159800
     13 C13         4.1560   -2.6600   -0.5190 c3        1 3Q2      0.122400
     14 C14         5.5250   -1.0720    0.5640 c3        1 3Q2      0.121400
     15 C15         4.5500    0.0780    0.2150 c3        1 3Q2      0.180500
     16 C16         5.1000    0.8270   -0.9980 c3        1 3Q2     -0.118100
     17 N17        -0.1300    2.1320    0.3900 nb        1 3Q2     -0.766000
     18 N18         2.3060    1.7640    0.2930 nb        1 3Q2     -0.810000
     19 N19        -6.0530   -0.1150   -0.9450 na        1 3Q2      0.029800
     20 N20        -5.1090    0.7750   -1.2400 nc        1 3Q2     -0.275400
     21 N21         3.1950   -0.4580    0.0660 nh        1 3Q2     -0.745300
     22 N22        -6.3730   -2.2650    0.2650 nh        1 3Q2     -0.777600
     23 N23         1.4050    3.9520    0.5040 nh        1 3Q2     -0.924500
     24 O24         5.4680   -2.1300   -0.3840 os        1 3Q2     -0.412600
     25 H1         -3.4140   -2.4250    1.4310 ha        1 3Q2      0.126000
     26 H2         -1.1400   -1.3890    1.4530 ha        1 3Q2      0.137000
     27 H3         -2.4580    1.8540   -1.1180 ha        1 3Q2      0.162000
     28 H4          0.5550   -1.1600   -0.1020 ha        1 3Q2      0.155000
     29 H12         3.3270   -1.2140   -1.9210 h1        1 3Q2      0.053700
     30 H12A        2.1100   -2.0410   -0.8450 h1        1 3Q2      0.053700
     31 H13         3.8650   -3.1880    0.4270 h1        1 3Q2      0.055700
     32 H13A        4.2330   -3.3930   -1.3650 h1        1 3Q2      0.055700
     33 H14         6.5830   -0.7050    0.5080 h1        1 3Q2      0.056200
     34 H14A        5.3060   -1.4720    1.5890 h1        1 3Q2      0.056200
     35 H15         4.5400    0.7820    1.0990 h1        1 3Q2      0.081700
     36 H16         5.2800    0.1190   -1.8430 hc        1 3Q2      0.047700
     37 H16A        4.4030    1.6270   -1.3380 hc        1 3Q2      0.047700
     38 H16B        6.0720    1.3000   -0.7190 hc        1 3Q2      0.047700
     39 HN22       -5.8750   -2.8300    0.9230 hn        1 3Q2      0.390800
     40 HN2A       -7.2860   -2.0270    0.5960 hn        1 3Q2      0.390800
     41 HN23        2.3090    4.2360    0.8020 hn        1 3Q2      0.422300
     42 HN2B        0.6450    4.4900    0.8550 hn        1 3Q2      0.422300
     43 HN19       -6.9650   -0.0150   -1.3270 hn        1 3Q2      0.324700
@<TRIPOS>BOND
     1    1    2 ar  
     2    1    5 ar  
     3    1   25 1   
     4    2    6 ar  
     5    2   26 1   
     6    3    6 ar  
     7    3    7 ar  
     8    3   27 1   
     9    4    8 ar  
    10    4    9 ar  
    11    4   28 1   
    12    5    7 ar  
    13    5   10 2   
    14    6    8 1   
    15    7   20 2   
    16    8   17 ar  
    17    9   18 ar  
    18    9   21 1   
    19   10   19 1   
    20   10   22 1   
    21   11   17 ar  
    22   11   18 ar  
    23   11   23 1   
    24   12   13 1   
    25   12   21 1   
    26   12   29 1   
    27   12   30 1   
    28   13   24 1   
    29   13   31 1   
    30   13   32 1   
    31   14   15 1   
    32   14   24 1   
    33   14   33 1   
    34   14   34 1   
    35   15   16 1   
    36   15   21 1   
    37   15   35 1   
    38   16   36 1   
    39   16   37 1   
    40   16   38 1   
    41   19   20 1   
    42   19   43 1   
    43   22   39 1   
    44   22   40 1   
    45   23   41 1   
    46   23   42 1   
@<TRIPOS>SUBSTRUCTURE
     1 3Q2         1 TEMP              0 ****  ****    0 ROOT
