@<TRIPOS>MOLECULE
3Q2
   43    35     1     0     0
SMALL
bcc


@<TRIPOS>ATOM
      1 C1         -4.0180    0.3800    1.3560 c1        1 3Q2     -0.086000
      2 C2         -2.6390    0.3010    1.3980 c1        1 3Q2     -0.086000
      3 C3         -2.4930    1.4080   -0.7190 c1        1 3Q2     -0.086000
      4 C4          0.2140   -0.2800   -0.0160 c1        1 3Q2     -0.270000
      5 C5         -4.6540    0.9820    0.2590 c1        1 3Q2     -0.091000
      6 C6         -1.8760    0.8210    0.3490 c1        1 3Q2     -0.091000
      7 C7         -3.9110    1.4890   -0.7640 c1        1 3Q2     -0.091000
      8 C8         -0.4870    0.8110    0.4190 c1        1 3Q2      0.099000
      9 C9          1.6020   -0.2960    0.0750 c1        1 3Q2      0.144000
     10 C10        -5.9870    1.1300   -0.0700 c1        1 3Q2      0.020000
     11 C11         1.5440    1.8460    1.0210 c1        1 3Q2      0.158000
     12 C12         3.0820   -1.8380    1.0740 c3        1 3Q2     -0.095000
     13 C13         4.1790   -2.8950    0.8930 c3        1 3Q2     -0.025000
     14 C14         4.6450   -2.0590   -1.2630 c3        1 3Q2     -0.027000
     15 C15         3.5440   -1.0010   -1.0860 c3        1 3Q2     -0.039000
     16 C16         2.8940   -0.7520   -2.4250 c3        1 3Q2     -0.211000
     17 N17         0.1670    1.8650    0.9320 n2        1 3Q2     -0.225000
     18 N18         2.2470    0.7520    0.5850 n1        1 3Q2     -0.263000
     19 N19        -6.0550    1.7250   -1.2920 n2        1 3Q2     -0.127000
     20 N20        -4.7740    1.9500   -1.7260 n1        1 3Q2     -0.095000
     21 N21         2.5410   -1.4100   -0.1600 n3        1 3Q2     -0.214000
     22 N22        -7.2500    0.8590    0.5820 n2        1 3Q2     -0.303000
     23 N23         2.2970    2.9030    1.6250 n2        1 3Q2     -0.303000
     24 O24         5.1830   -2.4840   -0.0360 os        1 3Q2     -0.270000
     25 H1         -4.5490    0.0180    2.0890 ha        1 3Q2      0.140667
     26 H2         -2.1930   -0.1210    2.1700 ha        1 3Q2      0.140667
     27 H3         -1.9640    1.7680   -1.4460 ha        1 3Q2      0.140667
     28 H4         -0.2700   -1.0650   -0.3980 ha        1 3Q2      0.164000
     29 H12         3.4570   -1.0680    1.5390 h1        1 3Q2      0.089000
     30 H12A        2.3650   -2.2190    1.6200 h1        1 3Q2      0.089000
     31 H13         3.7550   -3.7520    0.5590 h1        1 3Q2      0.095000
     32 H13A        4.5930   -3.0630    1.7470 h1        1 3Q2      0.095000
     33 H14         5.3660   -1.6780   -1.8080 h1        1 3Q2      0.095000
     34 H14A        4.2630   -2.8460   -1.7390 h1        1 3Q2      0.095000
     35 H15         3.9530   -0.1610   -0.7660 h1        1 3Q2      0.095000
     36 H16         3.5460   -0.8710   -3.1250 hc        1 3Q2      0.085000
     37 H16A        2.5320    0.1890   -2.4560 hc        1 3Q2      0.085000
     38 H16B        2.1650   -1.3830   -2.5520 hc        1 3Q2      0.085000
     39 HN22       -8.0190    0.8810    0.1050 hn        1 3Q2      0.202250
     40 HN2A       -7.2750    0.7090    1.4690 hn        1 3Q2      0.202250
     41 HN23        1.8740    3.6650    1.9010 hn        1 3Q2      0.202250
     42 HN2B        3.2060    2.7960    1.7810 hn        1 3Q2      0.202250
     43 HN19       -6.7990    1.9940   -1.7010 DU        1 3Q2      0.275000
@<TRIPOS>BOND
     1    1    5 1   
     2    1   25 1   
     3    2    6 1   
     4    2   26 1   
     5    3    7 1   
     6    3   27 1   
     7    4    9 1   
     8    4   28 1   
     9    8   17 1   
    10    9   21 1   
    11   10   19 1   
    12   11   17 1   
    13   11   18 1   
    14   12   13 1   
    15   12   21 1   
    16   12   29 1   
    17   12   30 1   
    18   13   24 1   
    19   13   31 1   
    20   13   32 1   
    21   14   15 1   
    22   14   24 1   
    23   14   33 1   
    24   14   34 1   
    25   15   16 1   
    26   15   21 1   
    27   15   35 1   
    28   16   36 1   
    29   16   37 1   
    30   16   38 1   
    31   19   20 1   
    32   22   39 1   
    33   22   40 1   
    34   23   41 1   
    35   23   42 1   
@<TRIPOS>SUBSTRUCTURE
     1 3Q2         1 TEMP              0 ****  ****    0 ROOT
