@<TRIPOS>MOLECULE
3Q2
   43    46     1     0     0
SMALL
bcc


@<TRIPOS>ATOM
      1 C1          0.0430   -0.7430    0.1260 ca        1 3Q2     -0.076000
      2 C2          1.4090   -0.7220    0.2100 ca        1 3Q2     -0.138000
      3 C3          1.3880    0.4980    2.3390 ca        1 3Q2     -0.047000
      4 C4          4.2320    0.1900    0.1120 ca        1 3Q2     -0.446600
      5 C5         -0.7090   -0.1270    1.1460 ca        1 3Q2     -0.168000
      6 C6          2.0800   -0.0980    1.3130 cp        1 3Q2     -0.146500
      7 C7         -0.0360    0.5060    2.2790 ca        1 3Q2     -0.064000
      8 C8          3.5590   -0.1080    1.3120 cp        1 3Q2      0.547800
      9 C9          5.6600    0.1600    0.1190 ca        1 3Q2      0.707200
     10 C10        -2.1000    0.0600    1.4040 cc        1 3Q2      0.071900
     11 C11         5.5910   -0.3940    2.3970 ca        1 3Q2      0.889900
     12 C12         5.8920    1.3640   -2.0030 c3        1 3Q2      0.159800
     13 C13         6.4640    1.1720   -3.4160 c3        1 3Q2      0.122400
     14 C14         8.3330    0.0260   -2.5420 c3        1 3Q2      0.121400
     15 C15         7.8300    0.2150   -1.0910 c3        1 3Q2      0.180500
     16 C16         8.5890    1.3830   -0.4640 c3        1 3Q2     -0.118100
     17 N17         4.2050   -0.4060    2.4620 nb        1 3Q2     -0.765000
     18 N18         6.3440   -0.1380    1.2660 nb        1 3Q2     -0.810000
     19 N19        -2.1590    0.7630    2.6210 na        1 3Q2      0.030800
     20 N20        -0.9660    1.0350    3.1420 nc        1 3Q2     -0.275400
     21 N21         6.3700    0.3360   -1.0910 nh        1 3Q2     -0.745300
     22 N22        -3.2080   -0.4300    0.7090 nv        1 3Q2     -0.777600
     23 N23         6.2920   -0.5930    3.5970 nv        1 3Q2     -0.924500
     24 O24         7.8810    1.0620   -3.4050 os        1 3Q2     -0.412600
     25 H1         -0.4720   -1.2320   -0.7130 ha        1 3Q2      0.126000
     26 H2          2.0230   -1.2020   -0.5670 ha        1 3Q2      0.137000
     27 H3          1.8970    0.9610    3.1970 ha        1 3Q2      0.162000
     28 H4          3.6530    0.4120   -0.7900 ha        1 3Q2      0.154000
     29 H12         4.7720    1.3270   -2.0790 h1        1 3Q2      0.053200
     30 H12A        6.1850    2.3880   -1.6310 h1        1 3Q2      0.053200
     31 H13         6.0210    0.2640   -3.9030 h1        1 3Q2      0.055700
     32 H13A        6.2570    2.0840   -4.0360 h1        1 3Q2      0.055700
     33 H14         8.0050   -0.9690   -2.9440 h1        1 3Q2      0.056200
     34 H14A        9.4510    0.1070   -2.5710 h1        1 3Q2      0.056200
     35 H15         8.0910   -0.7290   -0.5260 h1        1 3Q2      0.081700
     36 H16         8.4870    2.2970   -1.0970 hc        1 3Q2      0.047700
     37 H16A        8.2200    1.6100    0.5630 hc        1 3Q2      0.047700
     38 H16B        9.6720    1.1160   -0.3990 hc        1 3Q2      0.047700
     39 HN22       -2.9250   -0.8520   -0.1530 hn        1 3Q2      0.390300
     40 HN2A       -3.9260    0.2530    0.5690 hn        1 3Q2      0.390300
     41 HN23        5.7840   -1.0320    4.3300 hn        1 3Q2      0.422300
     42 HN2B        7.2440   -0.8630    3.5090 hn        1 3Q2      0.422300
     43 HN19       -2.9850    1.0370    3.1030 hn        1 3Q2      0.324700
@<TRIPOS>BOND
     1    1    2 ar  
     2    1    5 ar  
     3    1   25 1   
     4    2    6 ar  
     5    2   26 1   
     6    3    6 ar  
     7    3    7 ar  
     8    3   27 1   
     9    4    8 ar  
    10    4    9 ar  
    11    4   28 1   
    12    5    7 ar  
    13    5   10 2   
    14    6    8 1   
    15    7   20 2   
    16    8   17 ar  
    17    9   18 ar  
    18    9   21 1   
    19   10   19 1   
    20   10   22 1   
    21   11   17 ar  
    22   11   18 ar  
    23   11   23 1   
    24   12   13 1   
    25   12   21 1   
    26   12   29 1   
    27   12   30 1   
    28   13   24 1   
    29   13   31 1   
    30   13   32 1   
    31   14   15 1   
    32   14   24 1   
    33   14   33 1   
    34   14   34 1   
    35   15   16 1   
    36   15   21 1   
    37   15   35 1   
    38   16   36 1   
    39   16   37 1   
    40   16   38 1   
    41   19   20 1   
    42   19   43 1   
    43   22   39 1   
    44   22   40 1   
    45   23   41 1   
    46   23   42 1   
@<TRIPOS>SUBSTRUCTURE
     1 3Q2         1 TEMP              0 ****  ****    0 ROOT
