@<TRIPOS>MOLECULE
3Q2
   45    48     1     0     0
SMALL
bcc


@<TRIPOS>ATOM
      1 C1          0.0010   -0.5330    0.0970 ca        1 3Q2     -0.134000
      2 C2          1.3730   -0.5780    0.1620 ca        1 3Q2     -0.047000
      3 C3          1.4460    0.4950    2.3640 ca        1 3Q2      0.009000
      4 C4          4.2650    0.2070    0.1020 ca        1 3Q2     -0.384600
      5 C5         -0.7010    0.0410    1.1740 ca        1 3Q2     -0.011000
      6 C6          2.0950   -0.0640    1.2840 cp        1 3Q2     -0.170500
      7 C7          0.0280    0.5640    2.3250 ca        1 3Q2     -0.107000
      8 C8          3.5700   -0.1490    1.2580 cp        1 3Q2      0.542800
      9 C9          5.7110    0.1100    0.0830 ca        1 3Q2      0.743200
     10 C10        -2.0690    0.2830    1.5010 cc        1 3Q2     -0.208100
     11 C11         5.5650   -0.6120    2.2930 ca        1 3Q2      0.763900
     12 C12         5.7740    0.8700   -2.2380 c3        1 3Q2      0.156800
     13 C13         6.5800    0.6790   -3.5340 c3        1 3Q2      0.117400
     14 C14         8.5720    0.3130   -2.3580 c3        1 3Q2      0.113400
     15 C15         7.9030    0.5270   -0.9800 c3        1 3Q2      0.179500
     16 C16         8.3140    1.8930   -0.4330 c3        1 3Q2     -0.118100
     17 N17         4.2070   -0.5740    2.3970 nb        1 3Q2     -0.731000
     18 N18         6.3650   -0.2970    1.2400 nb        1 3Q2     -0.764000
     19 N19        -2.0690    0.9080    2.7730 na        1 3Q2      0.108800
     20 N20        -0.8690    1.0740    3.2540 nc        1 3Q2     -0.127400
     21 N21         6.4430    0.3550   -1.0520 nh        1 3Q2     -0.710300
     22 N22        -3.2340   -0.0350    0.7210 n4        1 3Q2     -0.654400
     23 N23         6.2980   -1.0670    3.5210 n4        1 3Q2     -0.821300
     24 O24         7.9320    1.0710   -3.3720 os        1 3Q2     -0.378600
     25 H1         -0.5360   -0.9380   -0.7730 ha        1 3Q2      0.151000
     26 H2          1.9440   -1.0310   -0.6670 ha        1 3Q2      0.163000
     27 H3          1.9860    0.8880    3.2420 ha        1 3Q2      0.183000
     28 H4          3.7100    0.5830   -0.7690 ha        1 3Q2      0.182000
     29 H12         4.7980    0.3280   -2.3850 h1        1 3Q2      0.065200
     30 H12A        5.5680    1.9690   -2.0920 h1        1 3Q2      0.065200
     31 H13         6.5260   -0.3880   -3.8760 h1        1 3Q2      0.079200
     32 H13A        6.1770    1.3640   -4.3280 h1        1 3Q2      0.079200
     33 H14         8.5700   -0.7760   -2.6270 h1        1 3Q2      0.080700
     34 H14A        9.6240    0.7050   -2.3320 h1        1 3Q2      0.080700
     35 H15         8.3160   -0.2780   -0.3010 h1        1 3Q2      0.084700
     36 H16         9.4230    1.9030   -0.2930 hc        1 3Q2      0.059367
     37 H16A        7.8320    2.1030    0.5500 hc        1 3Q2      0.059367
     38 H16B        8.0430    2.7020   -1.1550 hc        1 3Q2      0.059367
     39 HN22       -3.7590    0.8190    0.4830 hn        1 3Q2      0.475133
     40 HN2A       -2.9130   -0.4860   -0.1480 hn        1 3Q2      0.475133
     41 HN23        6.9310   -0.3190    3.8310 hn        1 3Q2      0.482467
     42 HN2B        6.8470   -1.9050    3.2920 hn        1 3Q2      0.482467
     43 HN19       -2.8690    1.2150    3.2960 hn        1 3Q2      0.364700
     44 H223       -3.8500   -0.6850    1.2290 hn        1 3Q2      0.475133
     45 H233        5.6280   -1.2860    4.2700 hn        1 3Q2      0.482467
@<TRIPOS>BOND
     1    1    2 ar  
     2    1    5 ar  
     3    1   25 1   
     4    2    6 ar  
     5    2   26 1   
     6    3    6 ar  
     7    3    7 ar  
     8    3   27 1   
     9    4    8 ar  
    10    4    9 ar  
    11    4   28 1   
    12    5    7 ar  
    13    5   10 2   
    14    6    8 1   
    15    7   20 2   
    16    8   17 ar  
    17    9   18 ar  
    18    9   21 1   
    19   10   19 1   
    20   10   22 1   
    21   11   17 ar  
    22   11   18 ar  
    23   11   23 1   
    24   12   13 1   
    25   12   21 1   
    26   12   29 1   
    27   12   30 1   
    28   13   24 1   
    29   13   31 1   
    30   13   32 1   
    31   14   15 1   
    32   14   24 1   
    33   14   33 1   
    34   14   34 1   
    35   15   16 1   
    36   15   21 1   
    37   15   35 1   
    38   16   36 1   
    39   16   37 1   
    40   16   38 1   
    41   19   20 1   
    42   19   43 1   
    43   22   39 1   
    44   22   40 1   
    45   22   44 1   
    46   23   41 1   
    47   23   42 1   
    48   23   45 1   
@<TRIPOS>SUBSTRUCTURE
     1 3Q2         1 TEMP              0 ****  ****    0 ROOT
