@<TRIPOS>MOLECULE
3Q3
   57    61     1     0     0
SMALL
bcc


@<TRIPOS>ATOM
      1 C1          1.6010    1.6670   -0.1380 ca        1 3Q3     -0.056000
      2 C2          2.8650    1.5620    0.4470 ca        1 3Q3     -0.102000
      3 C3          0.5460    0.8780    0.3250 ca        1 3Q3     -0.102000
      4 C4          6.0750    1.4760   13.4600 ca        1 3Q3     -0.120000
      5 C5          5.2010    1.3980   12.4030 ca        1 3Q3     -0.057000
      6 C6          3.0890    0.6670    1.4910 ca        1 3Q3     -0.095500
      7 C7          0.7430   -0.0250    1.3670 ca        1 3Q3     -0.095500
      8 C8          4.4520    3.7170   12.6730 ca        1 3Q3      0.022000
      9 C9          3.8840    1.6840    9.7020 ca        1 3Q3     -0.348600
     10 C10         6.1720    2.6910   14.1660 ca        1 3Q3     -0.011000
     11 C11         4.3920    2.5090   12.0070 cp        1 3Q3     -0.192500
     12 C12         5.3550    3.8300   13.7630 ca        1 3Q3     -0.112000
     13 C13         2.0220   -0.1310    1.9430 ca        1 3Q3     -0.078400
     14 C14         3.4620    2.3330   10.8730 cp        1 3Q3      0.558800
     15 C15         2.9530    1.5250    8.6170 ca        1 3Q3      0.724200
     16 C16         6.9140    3.1840   15.2810 cc        1 3Q3     -0.195100
     17 C17         1.3770    2.6110    9.9370 ca        1 3Q3      0.757900
     18 C18         1.7500   -0.6780    4.3440 c         1 3Q3      0.543100
     19 C19         4.6540    0.9940    6.9270 c3        1 3Q3      0.152800
     20 C20         2.3040    0.5670    6.4420 c3        1 3Q3      0.175800
     21 C21         5.0330   -0.1240    5.9470 c3        1 3Q3      0.128400
     22 C22         2.7590   -0.5580    5.4790 c3        1 3Q3      0.068100
     23 N23         2.1890    2.8150   11.0110 nb        1 3Q3     -0.691000
     24 N24         1.6690    2.0120    8.7450 nb        1 3Q3     -0.750000
     25 N25         6.5100    4.5300   15.4630 na        1 3Q3      0.117800
     26 N26         5.6150    4.9120   14.5950 nc        1 3Q3     -0.119400
     27 N27         3.3100    0.8110    7.4670 nh        1 3Q3     -0.741300
     28 N28         7.8770    2.4850   16.0900 n4        1 3Q3     -0.657400
     29 N29        -0.0260    3.1200   10.0760 n4        1 3Q3     -0.820300
     30 N30         2.2620   -1.1230    3.0000 n4        1 3Q3     -0.521200
     31 O31         0.5480   -0.5050    4.4710 o         1 3Q3     -0.396100
     32 O32         4.0420   -0.2860    4.9290 os        1 3Q3     -0.430600
     33 H1          1.4370    2.3730   -0.9720 ha        1 3Q3      0.182000
     34 H2          3.6990    2.1830    0.0760 ha        1 3Q3      0.180000
     35 H3         -0.4530    0.9600   -0.1390 ha        1 3Q3      0.180000
     36 H6          4.0950    0.5900    1.9360 ha        1 3Q3      0.160000
     37 H7         -0.1000   -0.6400    1.7240 ha        1 3Q3      0.160000
     38 H8          3.8340    4.5850   12.3900 ha        1 3Q3      0.183000
     39 H9          4.9130    1.3000    9.6390 ha        1 3Q3      0.189000
     40 H19         5.4110    0.9850    7.7590 h1        1 3Q3      0.081700
     41 H19A        4.7200    1.9870    6.3940 h1        1 3Q3      0.081700
     42 H20         2.1080    1.5020    5.8420 h1        1 3Q3      0.092200
     43 H20A        1.3380    0.2330    6.9180 h1        1 3Q3      0.092200
     44 H21         5.1860   -1.1010    6.4770 h1        1 3Q3      0.098200
     45 H21A        5.9580    0.1640    5.3750 h1        1 3Q3      0.098200
     46 H22         2.7780   -1.5540    6.0150 h1        1 3Q3      0.115700
     47 HN28        8.7990    2.9440   16.0410 hn        1 3Q3      0.479133
     48 HN2A        7.9590    1.5260   15.7230 hn        1 3Q3      0.479133
     49 HN29       -0.2110    3.8130    9.3380 hn        1 3Q3      0.488800
     50 HN2B       -0.6820    2.3340    9.9770 hn        1 3Q3      0.488800
     51 HN30        1.7790   -1.9950    2.7330 hn        1 3Q3      0.478800
     52 HN25        6.8390    5.1740   16.1630 hn        1 3Q3      0.371700
     53 H4          6.6810    0.6050   13.7540 ha        1 3Q3      0.157000
     54 H283        7.5690    2.4440   17.0730 hn        1 3Q3      0.479133
     55 H293       -0.1530    3.5590   11.0000 hn        1 3Q3      0.488800
     56 H302        3.2760   -1.3020    3.0640 hn        1 3Q3      0.478800
     57 H5          5.1030    0.4500   11.8470 ha        1 3Q3      0.159000
@<TRIPOS>BOND
     1    1    2 ar  
     2    1    3 ar  
     3    1   33 1   
     4    2    6 ar  
     5    2   34 1   
     6    3    7 ar  
     7    3   35 1   
     8    4    5 ar  
     9    4   10 ar  
    10    4   53 1   
    11    5   11 ar  
    12    5   57 1   
    13    6   13 ar  
    14    6   36 1   
    15    7   13 ar  
    16    7   37 1   
    17    8   11 ar  
    18    8   12 ar  
    19    8   38 1   
    20    9   14 ar  
    21    9   15 ar  
    22    9   39 1   
    23   10   12 ar  
    24   10   16 2   
    25   11   14 1   
    26   12   26 2   
    27   13   30 1   
    28   14   23 ar  
    29   15   24 ar  
    30   15   27 1   
    31   16   25 1   
    32   16   28 1   
    33   17   23 ar  
    34   17   24 ar  
    35   17   29 1   
    36   18   22 1   
    37   18   30 1   
    38   18   31 2   
    39   19   21 1   
    40   19   27 1   
    41   19   40 1   
    42   19   41 1   
    43   20   22 1   
    44   20   27 1   
    45   20   42 1   
    46   20   43 1   
    47   21   32 1   
    48   21   44 1   
    49   21   45 1   
    50   22   32 1   
    51   22   46 1   
    52   25   26 1   
    53   25   52 1   
    54   28   47 1   
    55   28   48 1   
    56   28   54 1   
    57   29   49 1   
    58   29   50 1   
    59   29   55 1   
    60   30   51 1   
    61   30   56 1   
@<TRIPOS>SUBSTRUCTURE
     1 3Q3         1 TEMP              0 ****  ****    0 ROOT
