@<TRIPOS>MOLECULE
3Q3
   54    43     1     0     0
SMALL
bcc


@<TRIPOS>ATOM
      1 C1         -1.2110   -0.7650   -8.5950 c1        1 3Q3     -0.129750
      2 C2         -2.0840   -0.8470   -7.5160 c1        1 3Q3     -0.129750
      3 C3          0.1450   -0.5580   -8.3770 c1        1 3Q3     -0.129750
      4 C4          0.8700   -1.1680    5.7380 c1        1 3Q3     -0.138750
      5 C5          0.8210   -0.1030    4.8540 c1        1 3Q3     -0.138750
      6 C6         -1.5960   -0.7220   -6.2090 c1        1 3Q3     -0.129750
      7 C7          0.6340   -0.4320   -7.0680 c1        1 3Q3     -0.179000
      8 C8         -1.5150   -0.4870    4.5040 c1        1 3Q3     -0.138750
      9 C9          0.4380    0.8770    2.0630 c1        1 3Q3     -0.138750
     10 C10        -0.2860   -1.9010    6.0090 c1        1 3Q3     -0.040000
     11 C11        -0.3790    0.2350    4.2370 c1        1 3Q3     -0.040000
     12 C12        -1.4670   -1.5670    5.4010 c1        1 3Q3     -0.040000
     13 C13        -0.2380   -0.5150   -5.9900 c1        1 3Q3      0.070000
     14 C14        -0.3570    1.1360    3.1360 c1        1 3Q3     -0.040000
     15 C15         0.4010    1.7060    0.9640 c1        1 3Q3      0.163000
     16 C16        -0.5100   -3.0370    6.7770 c1        1 3Q3      0.021000
     17 C17        -1.2240    3.0340    2.0290 c1        1 3Q3      0.170000
     18 C18         0.1550    0.2360   -3.6440 c1        1 3Q3      0.312000
     19 C19         2.3390    1.7260   -0.3470 c3        1 3Q3     -0.086000
     20 C20         0.2930    0.8820   -1.2350 c3        1 3Q3     -0.080000
     21 C21         3.0880    1.1630   -1.5110 c3        1 3Q3     -0.024000
     22 C22         1.0200    0.2680   -2.4260 c3        1 3Q3      0.002000
     23 N23        -1.1860    2.2080    3.1230 n1        1 3Q3     -0.232000
     24 N24        -0.4280    2.7780    0.9530 n2        1 3Q3     -0.278000
     25 N25        -1.8150   -3.3890    6.6360 n2        1 3Q3     -0.127000
     26 N26        -2.4140   -2.4780    5.7820 n1        1 3Q3     -0.097000
     27 N27         1.1320    1.0280   -0.0770 n3        1 3Q3     -0.225000
     28 N28         0.1020   -3.8810    7.7570 n2        1 3Q3     -0.305000
     29 N29        -2.1840    4.1330    1.8010 n2        1 3Q3     -0.305000
     30 N30         0.6560   -0.3280   -4.8510 n2        1 3Q3     -0.304000
     31 O31        -1.0570    0.5710   -3.5640 o         1 3Q3     -0.349000
     32 O32         2.2840    1.0270   -2.6690 os        1 3Q3     -0.284000
     33 H1         -1.5430   -0.8510   -9.4860 ha        1 3Q3      0.142000
     34 H2         -3.0670   -0.9950   -7.6730 ha        1 3Q3      0.142000
     35 H3          0.7550   -0.5010   -9.1320 ha        1 3Q3      0.142000
     36 H4          1.7550   -1.4190    6.1930 ha        1 3Q3      0.146500
     37 H5          1.6380    0.4160    4.6610 ha        1 3Q3      0.146500
     38 H6         -2.2140   -0.7820   -5.4450 ha        1 3Q3      0.142000
     39 H7          1.6040   -0.2840   -6.9110 ha        1 3Q3      0.130000
     40 H8         -2.3520   -0.2520    4.0730 ha        1 3Q3      0.146500
     41 H9          1.0210    0.1210    2.0720 ha        1 3Q3      0.146500
     42 H19         2.1330    2.6470   -0.5260 h1        1 3Q3      0.103500
     43 H19A        2.9390    1.6780    0.4840 h1        1 3Q3      0.103500
     44 H20        -0.4850    0.2890   -0.9950 h1        1 3Q3      0.104500
     45 H20A       -0.0670    1.8120   -1.5070 h1        1 3Q3      0.104500
     46 H21         3.8480    1.7570   -1.7200 h1        1 3Q3      0.102500
     47 H21A        3.4450    0.2530   -1.2580 h1        1 3Q3      0.102500
     48 H22         1.1920   -0.6810   -2.2900 h1        1 3Q3      0.130000
     49 HN28        0.7050   -3.5270    8.3570 hn        1 3Q3      0.203750
     50 HN2A       -0.0870   -4.7970    7.7680 hn        1 3Q3      0.203750
     51 HN29       -2.2300    4.5500    0.9590 hn        1 3Q3      0.203750
     52 HN2B       -2.7120    4.4330    2.4910 hn        1 3Q3      0.203750
     53 HN30        1.5200   -0.6690   -4.8800 hn        1 3Q3      0.246000
     54 HN25       -2.2280   -4.0310    7.0780 DU        1 3Q3      0.275000
@<TRIPOS>BOND
     1    1    3 1   
     2    1   33 1   
     3    2    6 1   
     4    2   34 1   
     5    3   35 1   
     6    4   10 1   
     7    4   36 1   
     8    5   11 1   
     9    5   37 1   
    10    6   38 1   
    11    7   13 1   
    12    7   39 1   
    13    8   12 1   
    14    8   40 1   
    15    9   14 1   
    16    9   41 1   
    17   13   30 1   
    18   15   24 1   
    19   15   27 1   
    20   16   25 1   
    21   17   23 1   
    22   17   24 1   
    23   18   22 1   
    24   18   31 1   
    25   19   21 1   
    26   19   27 1   
    27   19   42 1   
    28   19   43 1   
    29   20   22 1   
    30   20   27 1   
    31   20   44 1   
    32   20   45 1   
    33   21   32 1   
    34   21   46 1   
    35   21   47 1   
    36   22   32 1   
    37   22   48 1   
    38   25   26 1   
    39   28   49 1   
    40   28   50 1   
    41   29   51 1   
    42   29   52 1   
    43   30   53 1   
@<TRIPOS>SUBSTRUCTURE
     1 3Q3         1 TEMP              0 ****  ****    0 ROOT
