@<TRIPOS>MOLECULE
3Q3
   54    58     1     0     0
SMALL
bcc


@<TRIPOS>ATOM
      1 C1          8.9290    1.4780   -0.7140 ca        1 3Q3     -0.158000
      2 C2          8.6400    0.5090    0.2440 ca        1 3Q3     -0.104000
      3 C3          7.9510    1.8390   -1.6390 ca        1 3Q3     -0.104000
      4 C4         -5.5470   -0.8590   -1.4000 ca        1 3Q3     -0.072000
      5 C5         -4.2650   -0.4710   -1.1200 ca        1 3Q3     -0.140000
      6 C6          7.3900   -0.1040    0.2900 ca        1 3Q3     -0.170000
      7 C7          6.6960    1.2420   -1.6130 ca        1 3Q3     -0.170000
      8 C8         -4.9560    0.8700    0.8160 ca        1 3Q3     -0.048000
      9 C9         -1.5860   -0.2840    0.1450 ca        1 3Q3     -0.428600
     10 C10        -6.5900   -0.4000   -0.5710 ca        1 3Q3     -0.170000
     11 C11        -3.9700    0.3880   -0.0110 cp        1 3Q3     -0.146500
     12 C12        -6.3030    0.4790    0.5610 ca        1 3Q3     -0.063000
     13 C13         6.3930    0.2550   -0.6410 ca        1 3Q3      0.069600
     14 C14        -2.5530    0.7380    0.2270 cp        1 3Q3      0.546800
     15 C15        -0.2280    0.0670    0.3970 ca        1 3Q3      0.683200
     16 C16        -8.0060   -0.5800   -0.5350 cc        1 3Q3      0.077900
     17 C17        -0.8930    2.2890    0.7220 ca        1 3Q3      0.889900
     18 C18         4.5710   -1.1990    0.2700 c         1 3Q3      0.669100
     19 C19         0.5460   -2.1480    1.0280 c3        1 3Q3      0.145800
     20 C20         2.1640   -0.4930    0.3210 c3        1 3Q3      0.158800
     21 C21         1.5520   -3.2470    0.6640 c3        1 3Q3      0.122400
     22 C22         3.1300   -1.6410   -0.0360 c3        1 3Q3      0.059100
     23 N23        -2.2400    2.0200    0.5210 nb        1 3Q3     -0.758000
     24 N24         0.1250    1.3490    0.7040 nb        1 3Q3     -0.804000
     25 N25        -8.4460    0.1730    0.5680 na        1 3Q3      0.028800
     26 N26        -7.4660    0.7980    1.2170 nc        1 3Q3     -0.275400
     27 N27         0.7760   -0.9340    0.2520 nh        1 3Q3     -0.733300
     28 N28        -8.8150   -1.4050   -1.3190 nh        1 3Q3     -0.778600
     29 N29        -0.5230    3.6270    0.9060 nh        1 3Q3     -0.924500
     30 N30         5.1150   -0.3280   -0.6640 n         1 3Q3     -0.476100
     31 O31         5.1730   -1.6030    1.2750 o         1 3Q3     -0.549100
     32 O32         2.8970   -2.7930    0.7710 os        1 3Q3     -0.380600
     33 H1          9.9180    1.9550   -0.7400 ha        1 3Q3      0.133000
     34 H2          9.4050    0.2180    0.9790 ha        1 3Q3      0.133000
     35 H3          8.1690    2.6030   -2.4000 ha        1 3Q3      0.133000
     36 H5         -3.4300   -0.8050   -1.7550 ha        1 3Q3      0.137000
     37 H6          7.1930   -0.8670    1.0600 ha        1 3Q3      0.150000
     38 H7          5.9420    1.5470   -2.3540 ha        1 3Q3      0.150000
     39 H8         -4.7370    1.5410    1.6590 ha        1 3Q3      0.159000
     40 H9         -1.8840   -1.3060   -0.1130 ha        1 3Q3      0.159000
     41 H19        -0.4900   -2.5310    0.8160 h1        1 3Q3      0.057700
     42 H19A        0.6270   -1.9410    2.1340 h1        1 3Q3      0.057700
     43 H20         2.4290   -0.1110    1.3490 h1        1 3Q3      0.069200
     44 H20A        2.3090    0.3420   -0.4190 h1        1 3Q3      0.069200
     45 H21         1.4900   -4.0860    1.4070 h1        1 3Q3      0.062200
     46 H21A        1.3650   -3.6320   -0.3730 h1        1 3Q3      0.062200
     47 H22         3.0200   -1.9310   -1.1190 h1        1 3Q3      0.064700
     48 HN28       -8.3060   -1.7560   -2.1050 hn        1 3Q3      0.392300
     49 HN2A       -9.6780   -0.9820   -1.5920 hn        1 3Q3      0.392300
     50 HN29        0.3700    3.7880    1.3120 hn        1 3Q3      0.425800
     51 HN2B       -1.2470    4.2500    1.1800 hn        1 3Q3      0.425800
     52 HN30        4.5250   -0.0340   -1.4100 hn        1 3Q3      0.316500
     53 HN25       -9.3820    0.2450    0.8970 hn        1 3Q3      0.324700
     54 H4         -5.7740   -1.5170   -2.2510 ha        1 3Q3      0.127000
@<TRIPOS>BOND
     1    1    2 ar  
     2    1    3 ar  
     3    1   33 1   
     4    2    6 ar  
     5    2   34 1   
     6    3    7 ar  
     7    3   35 1   
     8    4    5 ar  
     9    4   10 ar  
    10    4   54 1   
    11    5   11 ar  
    12    5   36 1   
    13    6   13 ar  
    14    6   37 1   
    15    7   13 ar  
    16    7   38 1   
    17    8   11 ar  
    18    8   12 ar  
    19    8   39 1   
    20    9   14 ar  
    21    9   15 ar  
    22    9   40 1   
    23   10   12 ar  
    24   10   16 2   
    25   11   14 1   
    26   12   26 2   
    27   13   30 1   
    28   14   23 ar  
    29   15   24 ar  
    30   15   27 1   
    31   16   25 1   
    32   16   28 1   
    33   17   23 ar  
    34   17   24 ar  
    35   17   29 1   
    36   18   22 1   
    37   18   30 1   
    38   18   31 2   
    39   19   21 1   
    40   19   27 1   
    41   19   41 1   
    42   19   42 1   
    43   20   22 1   
    44   20   27 1   
    45   20   43 1   
    46   20   44 1   
    47   21   32 1   
    48   21   45 1   
    49   21   46 1   
    50   22   32 1   
    51   22   47 1   
    52   25   26 1   
    53   25   53 1   
    54   28   48 1   
    55   28   49 1   
    56   29   50 1   
    57   29   51 1   
    58   30   52 1   
@<TRIPOS>SUBSTRUCTURE
     1 3Q3         1 TEMP              0 ****  ****    0 ROOT
