@<TRIPOS>MOLECULE
3Q3
   54    58     1     0     0
SMALL
bcc


@<TRIPOS>ATOM
      1 C1         -0.3350   -0.3870    0.2110 ca        1 3Q3     -0.157000
      2 C2          0.7860    0.4250    0.0580 ca        1 3Q3     -0.104000
      3 C3         -0.5320   -1.0600    1.4160 ca        1 3Q3     -0.104000
      4 C4          5.6770    0.9500   13.5340 ca        1 3Q3     -0.073000
      5 C5          5.0010    1.0770   12.3510 ca        1 3Q3     -0.140000
      6 C6          1.7120    0.5730    1.0880 ca        1 3Q3     -0.170000
      7 C7          0.3760   -0.9270    2.4590 ca        1 3Q3     -0.170000
      8 C8          4.1210    3.2900   12.9420 ca        1 3Q3     -0.048000
      9 C9          4.2560    1.8920    9.5970 ca        1 3Q3     -0.429600
     10 C10         5.6130    2.0030   14.4680 ca        1 3Q3     -0.169000
     11 C11         4.2290    2.2470   12.0530 cp        1 3Q3     -0.146500
     12 C12         4.8220    3.1990   14.1790 ca        1 3Q3     -0.064000
     13 C13         1.5200   -0.1030    2.3110 ca        1 3Q3      0.069600
     14 C14         3.5460    2.3030   10.7430 cp        1 3Q3      0.546800
     15 C15         3.5890    1.9710    8.3400 ca        1 3Q3      0.683200
     16 C16         6.1630    2.2420   15.7640 cc        1 3Q3      0.076900
     17 C17         1.6800    2.7700    9.4360 ca        1 3Q3      0.890900
     18 C18         3.5070    0.8390    3.5070 c         1 3Q3      0.669100
     19 C19         5.5770    2.0850    6.9480 c3        1 3Q3      0.145800
     20 C20         3.4790    1.4060    5.9520 c3        1 3Q3      0.158800
     21 C21         6.3170    1.3800    5.8040 c3        1 3Q3      0.122400
     22 C22         4.2760    0.7060    4.8320 c3        1 3Q3      0.059100
     23 N23         2.2720    2.7530   10.6930 nb        1 3Q3     -0.757000
     24 N24         2.3060    2.4260    8.2490 nb        1 3Q3     -0.804000
     25 N25         5.6870    3.5100   16.1400 na        1 3Q3      0.029800
     26 N26         4.9070    4.0830   15.2270 nc        1 3Q3     -0.275400
     27 N27         4.2620    1.4960    7.1770 nh        1 3Q3     -0.733300
     28 N28         6.9140    1.3920   16.5790 nv        1 3Q3     -0.778600
     29 N29         0.3240    3.1130    9.3670 nv        1 3Q3     -0.925500
     30 N30         2.4160   -0.0110    3.3890 ns        1 3Q3     -0.476100
     31 O31         3.8540    1.6460    2.6340 o         1 3Q3     -0.549100
     32 O32         5.5370    1.3370    4.6140 os        1 3Q3     -0.380600
     33 H1         -1.0580   -0.4960   -0.6090 ha        1 3Q3      0.133000
     34 H2          0.9510    0.9610   -0.8900 ha        1 3Q3      0.132500
     35 H3         -1.4150   -1.7040    1.5470 ha        1 3Q3      0.132500
     36 H5          5.0250    0.2670   11.6060 ha        1 3Q3      0.137000
     37 H6          2.5890    1.2230    0.9350 ha        1 3Q3      0.150000
     38 H7          0.1950   -1.4690    3.4000 ha        1 3Q3      0.150000
     39 H8          3.5140    4.1810   12.7280 ha        1 3Q3      0.159000
     40 H9          5.2810    1.5190    9.6890 ha        1 3Q3      0.158000
     41 H19         5.4890    3.1820    6.6950 h1        1 3Q3      0.057200
     42 H19A        6.1930    1.9870    7.8830 h1        1 3Q3      0.057200
     43 H20         3.1650    2.4250    5.5820 h1        1 3Q3      0.069200
     44 H20A        2.5540    0.8020    6.1630 h1        1 3Q3      0.069200
     45 H21         6.6110    0.3390    6.1010 h1        1 3Q3      0.062200
     46 H21A        7.2240    1.9720    5.5120 h1        1 3Q3      0.062200
     47 H22         4.4540   -0.3770    5.0870 h1        1 3Q3      0.064700
     48 HN28        7.2010    0.5780   16.0740 hn        1 3Q3      0.392300
     49 HN2A        7.6840    1.8440   17.0290 hn        1 3Q3      0.392300
     50 HN29       -0.0480    3.5990   10.1500 hn        1 3Q3      0.426800
     51 HN2B       -0.0200    3.3850    8.4760 hn        1 3Q3      0.426800
     52 HN30        2.2010   -0.5870    4.1730 hn        1 3Q3      0.316500
     53 HN25        5.8590    3.9700   17.0050 hn        1 3Q3      0.324700
     54 H4          6.2580    0.0470   13.7680 ha        1 3Q3      0.127000
@<TRIPOS>BOND
     1    1    2 ar  
     2    1    3 ar  
     3    1   33 1   
     4    2    6 ar  
     5    2   34 1   
     6    3    7 ar  
     7    3   35 1   
     8    4    5 ar  
     9    4   10 ar  
    10    4   54 1   
    11    5   11 ar  
    12    5   36 1   
    13    6   13 ar  
    14    6   37 1   
    15    7   13 ar  
    16    7   38 1   
    17    8   11 ar  
    18    8   12 ar  
    19    8   39 1   
    20    9   14 ar  
    21    9   15 ar  
    22    9   40 1   
    23   10   12 ar  
    24   10   16 2   
    25   11   14 1   
    26   12   26 2   
    27   13   30 1   
    28   14   23 ar  
    29   15   24 ar  
    30   15   27 1   
    31   16   25 1   
    32   16   28 1   
    33   17   23 ar  
    34   17   24 ar  
    35   17   29 1   
    36   18   22 1   
    37   18   30 1   
    38   18   31 2   
    39   19   21 1   
    40   19   27 1   
    41   19   41 1   
    42   19   42 1   
    43   20   22 1   
    44   20   27 1   
    45   20   43 1   
    46   20   44 1   
    47   21   32 1   
    48   21   45 1   
    49   21   46 1   
    50   22   32 1   
    51   22   47 1   
    52   25   26 1   
    53   25   53 1   
    54   28   48 1   
    55   28   49 1   
    56   29   50 1   
    57   29   51 1   
    58   30   52 1   
@<TRIPOS>SUBSTRUCTURE
     1 3Q3         1 TEMP              0 ****  ****    0 ROOT
