@<TRIPOS>MOLECULE
3Q3
   54    58     1     0     0
SMALL
bcc


@<TRIPOS>ATOM
      1 C1         -0.3420   -0.3570    0.2080 ca        1 3Q3     -0.157000
      2 C2          0.7870    0.4440    0.0540 ca        1 3Q3     -0.104000
      3 C3         -0.5470   -1.0270    1.4130 ca        1 3Q3     -0.104000
      4 C4          5.6660    0.9300   13.5350 ca        1 3Q3     -0.073000
      5 C5          4.9920    1.0640   12.3510 ca        1 3Q3     -0.140000
      6 C6          1.7130    0.5850    1.0850 ca        1 3Q3     -0.170000
      7 C7          0.3610   -0.8990    2.4570 ca        1 3Q3     -0.170000
      8 C8          4.1320    3.2840   12.9430 ca        1 3Q3     -0.048000
      9 C9          4.2580    1.8880    9.5970 ca        1 3Q3     -0.429600
     10 C10         5.6100    1.9830   14.4700 ca        1 3Q3     -0.169000
     11 C11         4.2310    2.2420   12.0540 cp        1 3Q3     -0.146500
     12 C12         4.8310    3.1860   14.1810 ca        1 3Q3     -0.064000
     13 C13         1.5130   -0.0860    2.3090 ca        1 3Q3      0.069600
     14 C14         3.5500    2.3050   10.7430 cp        1 3Q3      0.546800
     15 C15         3.5940    1.9740    8.3400 ca        1 3Q3      0.683200
     16 C16         6.1610    2.2150   15.7670 cc        1 3Q3      0.076900
     17 C17         1.6910    2.7890    9.4340 ca        1 3Q3      0.890900
     18 C18         3.5060    0.8410    3.5070 c         1 3Q3      0.669100
     19 C19         5.5830    2.0720    6.9490 c3        1 3Q3      0.145800
     20 C20         3.4800    1.4100    5.9510 c3        1 3Q3      0.158800
     21 C21         6.3180    1.3610    5.8060 c3        1 3Q3      0.122400
     22 C22         4.2730    0.7030    4.8320 c3        1 3Q3      0.059100
     23 N23         2.2800    2.7660   10.6910 nb        1 3Q3     -0.757000
     24 N24         2.3140    2.4410    8.2470 nb        1 3Q3     -0.804000
     25 N25         5.6960    3.4870   16.1430 na        1 3Q3      0.029800
     26 N26         4.9220    4.0690   15.2300 nc        1 3Q3     -0.275400
     27 N27         4.2630    1.4930    7.1770 nh        1 3Q3     -0.733300
     28 N28         6.9020    1.3580   16.5820 nh        1 3Q3     -0.778600
     29 N29         0.3380    3.1450    9.3640 nh        1 3Q3     -0.925500
     30 N30         2.4080   -0.0010    3.3890 n         1 3Q3     -0.476100
     31 O31         3.8600    1.6450    2.6330 o         1 3Q3     -0.549100
     32 O32         5.5390    1.3230    4.6150 os        1 3Q3     -0.380600
     33 H1         -1.0650   -0.4620   -0.6130 ha        1 3Q3      0.133000
     34 H2          0.9580    0.9760   -0.8950 ha        1 3Q3      0.132500
     35 H3         -1.4360   -1.6620    1.5450 ha        1 3Q3      0.132500
     36 H5          5.0100    0.2550   11.6060 ha        1 3Q3      0.137000
     37 H6          2.5960    1.2270    0.9320 ha        1 3Q3      0.150000
     38 H7          0.1740   -1.4380    3.3990 ha        1 3Q3      0.150000
     39 H8          3.5330    4.1820   12.7290 ha        1 3Q3      0.159000
     40 H9          5.2800    1.5050    9.6900 ha        1 3Q3      0.158000
     41 H19         6.1980    1.9690    7.8840 h1        1 3Q3      0.057200
     42 H19A        5.5040    3.1690    6.6960 h1        1 3Q3      0.057200
     43 H20         2.5500    0.8130    6.1620 h1        1 3Q3      0.069200
     44 H20A        3.1750    2.4310    5.5800 h1        1 3Q3      0.069200
     45 H21         6.6040    0.3170    6.1030 h1        1 3Q3      0.062200
     46 H21A        7.2300    1.9460    5.5140 h1        1 3Q3      0.062200
     47 H22         4.4430   -0.3810    5.0880 h1        1 3Q3      0.064700
     48 HN28        7.1830    0.5420   16.0770 hn        1 3Q3      0.392300
     49 HN2A        7.6770    1.8020   17.0330 hn        1 3Q3      0.392300
     50 HN29       -0.0310    3.6340   10.1460 hn        1 3Q3      0.426800
     51 HN2B       -0.0030    3.4210    8.4720 hn        1 3Q3      0.426800
     52 HN30        2.1880   -0.5740    4.1730 hn        1 3Q3      0.316500
     53 HN25        5.8700    3.9460   17.0090 hn        1 3Q3      0.324700
     54 H4          6.2390    0.0210   13.7690 ha        1 3Q3      0.127000
@<TRIPOS>BOND
     1    1    2 ar  
     2    1    3 ar  
     3    1   33 1   
     4    2    6 ar  
     5    2   34 1   
     6    3    7 ar  
     7    3   35 1   
     8    4    5 ar  
     9    4   10 ar  
    10    4   54 1   
    11    5   11 ar  
    12    5   36 1   
    13    6   13 ar  
    14    6   37 1   
    15    7   13 ar  
    16    7   38 1   
    17    8   11 ar  
    18    8   12 ar  
    19    8   39 1   
    20    9   14 ar  
    21    9   15 ar  
    22    9   40 1   
    23   10   12 ar  
    24   10   16 2   
    25   11   14 1   
    26   12   26 2   
    27   13   30 1   
    28   14   23 ar  
    29   15   24 ar  
    30   15   27 1   
    31   16   25 1   
    32   16   28 1   
    33   17   23 ar  
    34   17   24 ar  
    35   17   29 1   
    36   18   22 1   
    37   18   30 1   
    38   18   31 2   
    39   19   21 1   
    40   19   27 1   
    41   19   41 1   
    42   19   42 1   
    43   20   22 1   
    44   20   27 1   
    45   20   43 1   
    46   20   44 1   
    47   21   32 1   
    48   21   45 1   
    49   21   46 1   
    50   22   32 1   
    51   22   47 1   
    52   25   26 1   
    53   25   53 1   
    54   28   48 1   
    55   28   49 1   
    56   29   50 1   
    57   29   51 1   
    58   30   52 1   
@<TRIPOS>SUBSTRUCTURE
     1 3Q3         1 TEMP              0 ****  ****    0 ROOT
