@<TRIPOS>MOLECULE
3Q4
   62    66     1     0     0
SMALL
bcc


@<TRIPOS>ATOM
      1 C1         -0.9990   -0.2450    2.9830 ca        1 3Q4     -0.055000
      2 C2         -0.4810    0.8440    2.2790 ca        1 3Q4     -0.096500
      3 C3         -0.1780   -1.3300    3.2990 ca        1 3Q4     -0.096500
      4 C4          7.0290    7.7500    4.4230 ca        1 3Q4     -0.124000
      5 C5          6.9290    6.4840    4.9510 ca        1 3Q4     -0.054000
      6 C6          0.8540    0.8590    1.8810 ca        1 3Q4     -0.104000
      7 C7          1.1610   -1.3390    2.9140 ca        1 3Q4     -0.104000
      8 C8          9.3190    6.3680    5.4790 ca        1 3Q4      0.020000
      9 C9          7.1290    3.4720    5.3970 ca        1 3Q4     -0.381600
     10 C10         8.2910    8.3730    4.4040 ca        1 3Q4     -0.011000
     11 C11         8.0630    5.7950    5.4820 cp        1 3Q4     -0.188500
     12 C12         9.4550    7.6690    4.9290 ca        1 3Q4     -0.111000
     13 C13         1.6740   -0.2380    2.2040 ca        1 3Q4     -0.081400
     14 C14         7.8670    4.4550    6.0730 cp        1 3Q4      0.561800
     15 C15         6.9790    2.1690    5.9960 ca        1 3Q4      0.740200
     16 C16         8.8200    9.6300    3.9780 cc        1 3Q4     -0.199100
     17 C17         8.2610    2.9590    7.7750 ca        1 3Q4      0.763900
     18 C18         3.9290    0.7590    2.4380 c         1 3Q4      0.550100
     19 C19         4.7620   -0.9900    4.0780 c3        1 3Q4     -0.094400
     20 C20         5.2790   -1.1500    5.4910 c3        1 3Q4     -0.087400
     21 C21         5.6050    1.3910    4.1280 c3        1 3Q4      0.208800
     22 C22         4.3970    0.4630    3.8420 c3        1 3Q4     -0.134700
     23 C23         6.4770   -0.2410    5.7920 c3        1 3Q4      0.207500
     24 C24         7.7420   -0.8030    5.1450 c3        1 3Q4     -0.125100
     25 N25         8.4500    4.2170    7.2890 nb        1 3Q4     -0.705000
     26 N26         7.5830    1.9180    7.2160 nb        1 3Q4     -0.746000
     27 N27        10.2090    9.5920    4.2610 na        1 3Q4      0.116800
     28 N28        10.5840    8.4700    4.8060 nc        1 3Q4     -0.119400
     29 N29         6.2100    1.1600    5.4240 nh        1 3Q4     -0.739300
     30 N30         8.1180   10.7400    3.3910 n4        1 3Q4     -0.657400
     31 N31         8.8860    2.6720    9.1070 n4        1 3Q4     -0.820300
     32 N32         3.0650   -0.2600    1.7330 n4        1 3Q4     -0.534200
     33 O33         4.1680    1.7730    1.7950 o         1 3Q4     -0.424100
     34 H1         -2.0620   -0.2530    3.2840 ha        1 3Q4      0.186000
     35 H2         -1.1340    1.6960    2.0200 ha        1 3Q4      0.182000
     36 H3         -0.5910   -2.1960    3.8470 ha        1 3Q4      0.182000
     37 H6          1.2450    1.7180    1.3110 ha        1 3Q4      0.157500
     38 H7          1.7850   -2.2160    3.1550 ha        1 3Q4      0.157500
     39 H8         10.2070    5.8570    5.8870 ha        1 3Q4      0.183000
     40 H9          6.7080    3.7070    4.4100 ha        1 3Q4      0.181000
     41 H19         3.8620   -1.6510    3.9600 hc        1 3Q4      0.066200
     42 H19A        5.5440   -1.3220    3.3440 hc        1 3Q4      0.066200
     43 H20         4.4530   -0.9330    6.2200 hc        1 3Q4      0.087200
     44 H20A        5.6020   -2.2130    5.6530 hc        1 3Q4      0.087200
     45 H21         5.2170    2.4500    4.0750 h1        1 3Q4      0.073200
     46 H21A        6.3690    1.2450    3.3100 h1        1 3Q4      0.073200
     47 H22         3.5430    0.7440    4.5310 hc        1 3Q4      0.131700
     48 H23         6.6130   -0.2790    6.9180 h1        1 3Q4      0.101700
     49 H24         8.6350   -0.1870    5.4090 hc        1 3Q4      0.059700
     50 H24A        7.9120   -1.8420    5.5230 hc        1 3Q4      0.059700
     51 H24B        7.6520   -0.8420    4.0330 hc        1 3Q4      0.059700
     52 HN30        8.4860   10.9510    2.4520 hn        1 3Q4      0.478467
     53 HN3A        7.1250   10.4790    3.3130 hn        1 3Q4      0.478467
     54 HN31        9.5760    1.9160    9.0010 hn        1 3Q4      0.488800
     55 HN3B        8.1560    2.3770    9.7680 hn        1 3Q4      0.488800
     56 HN32        3.0610   -0.0470    0.7210 hn        1 3Q4      0.473300
     57 HN27       10.8830   10.3170    4.0840 hn        1 3Q4      0.371700
     58 H4          6.1410    8.2670    4.0300 ha        1 3Q4      0.154000
     59 H303        8.1990   11.5790    3.9850 hn        1 3Q4      0.478467
     60 H313        9.3540    3.5170    9.4660 hn        1 3Q4      0.488800
     61 H322        3.4570   -1.2000    1.8720 hn        1 3Q4      0.473300
     62 H5          5.9470    5.9840    4.9850 ha        1 3Q4      0.156000
@<TRIPOS>BOND
     1    1    2 ar  
     2    1    3 ar  
     3    1   34 1   
     4    2    6 ar  
     5    2   35 1   
     6    3    7 ar  
     7    3   36 1   
     8    4    5 ar  
     9    4   10 ar  
    10    4   58 1   
    11    5   11 ar  
    12    5   62 1   
    13    6   13 ar  
    14    6   37 1   
    15    7   13 ar  
    16    7   38 1   
    17    8   11 ar  
    18    8   12 ar  
    19    8   39 1   
    20    9   14 ar  
    21    9   15 ar  
    22    9   40 1   
    23   10   12 ar  
    24   10   16 2   
    25   11   14 1   
    26   12   28 2   
    27   13   32 1   
    28   14   25 ar  
    29   15   26 ar  
    30   15   29 1   
    31   16   27 1   
    32   16   30 1   
    33   17   25 ar  
    34   17   26 ar  
    35   17   31 1   
    36   18   22 1   
    37   18   32 1   
    38   18   33 2   
    39   19   20 1   
    40   19   22 1   
    41   19   41 1   
    42   19   42 1   
    43   20   23 1   
    44   20   43 1   
    45   20   44 1   
    46   21   22 1   
    47   21   29 1   
    48   21   45 1   
    49   21   46 1   
    50   22   47 1   
    51   23   24 1   
    52   23   29 1   
    53   23   48 1   
    54   24   49 1   
    55   24   50 1   
    56   24   51 1   
    57   27   28 1   
    58   27   57 1   
    59   30   52 1   
    60   30   53 1   
    61   30   59 1   
    62   31   54 1   
    63   31   55 1   
    64   31   60 1   
    65   32   56 1   
    66   32   61 1   
@<TRIPOS>SUBSTRUCTURE
     1 3Q4         1 TEMP              0 ****  ****    0 ROOT
