@<TRIPOS>MOLECULE
3Q4
   59    63     1     0     0
SMALL
bcc


@<TRIPOS>ATOM
      1 C1         -0.4400    0.3300    0.0680 ca        1 3Q4     -0.157000
      2 C2          0.8880    0.6730   -0.1740 ca        1 3Q4     -0.104500
      3 C3         -0.8380    0.0060    1.3640 ca        1 3Q4     -0.104500
      4 C4          6.6760    7.5540    5.7030 ca        1 3Q4     -0.075000
      5 C5          6.9440    6.2410    5.9800 ca        1 3Q4     -0.137000
      6 C6          1.8220    0.6990    0.8590 ca        1 3Q4     -0.170500
      7 C7          0.0760    0.0250    2.4110 ca        1 3Q4     -0.170500
      8 C8          9.2130    6.3730    5.0580 ca        1 3Q4     -0.049000
      9 C9          7.3600    3.3190    5.6690 ca        1 3Q4     -0.442600
     10 C10         7.6700    8.3310    5.0740 ca        1 3Q4     -0.167000
     11 C11         8.2080    5.6500    5.6520 cp        1 3Q4     -0.143500
     12 C12         8.9670    7.7420    4.7440 ca        1 3Q4     -0.063000
     13 C13         1.4290    0.3730    2.1740 ca        1 3Q4      0.068600
     14 C14         8.3990    4.2180    5.9710 cp        1 3Q4      0.546800
     15 C15         7.5670    1.9350    5.9580 ca        1 3Q4      0.712200
     16 C16         7.7670    9.6840    4.6310 cc        1 3Q4      0.071900
     17 C17         9.6810    2.4770    6.8180 ca        1 3Q4      0.888900
     18 C18         3.6760    0.6330    3.2580 c         1 3Q4      0.667100
     19 C19         4.4190   -0.8840    5.1120 c3        1 3Q4     -0.075400
     20 C20         5.2340   -0.9820    6.3850 c3        1 3Q4     -0.082400
     21 C21         5.7930    1.1180    4.4830 c3        1 3Q4      0.207800
     22 C22         4.3670    0.5530    4.6200 c3        1 3Q4     -0.143700
     23 C23         6.6340   -0.3510    6.2460 c3        1 3Q4      0.215500
     24 C24         7.5290   -1.2850    5.4320 c3        1 3Q4     -0.120100
     25 N25         9.5670    3.8300    6.5320 nb        1 3Q4     -0.764000
     26 N26         8.7390    1.5080    6.5190 nb        1 3Q4     -0.812000
     27 N27         9.0590    9.8040    4.0890 na        1 3Q4      0.031800
     28 N28         9.7700    8.6800    4.1410 nc        1 3Q4     -0.276400
     29 N29         6.5180    1.0150    5.7380 nh        1 3Q4     -0.758300
     30 N30         6.8630   10.7380    4.7840 nv        1 3Q4     -0.777600
     31 N31        10.8240    2.0600    7.5160 nv        1 3Q4     -0.923500
     32 N32         2.3120    0.3820    3.2680 ns        1 3Q4     -0.470100
     33 O33         4.3090    0.9150    2.2250 o         1 3Q4     -0.588100
     34 H1         -1.1680    0.3130   -0.7550 ha        1 3Q4      0.133000
     35 H2          1.2120    0.9300   -1.1940 ha        1 3Q4      0.133000
     36 H3         -1.8850   -0.2660    1.5660 ha        1 3Q4      0.133000
     37 H5          6.1900    5.6120    6.4780 ha        1 3Q4      0.137000
     38 H6          2.8650    0.9750    0.6340 ha        1 3Q4      0.150000
     39 H7         -0.2660   -0.2350    3.4240 ha        1 3Q4      0.150000
     40 H8         10.1920    5.9310    4.8220 ha        1 3Q4      0.159000
     41 H9          6.4260    3.6910    5.2360 ha        1 3Q4      0.157000
     42 H19         3.3820   -1.2650    5.3070 hc        1 3Q4      0.049200
     43 H19A        4.8740   -1.5340    4.3190 hc        1 3Q4      0.049200
     44 H20         4.6840   -0.4720    7.2190 hc        1 3Q4      0.052200
     45 H20A        5.3620   -2.0580    6.6670 hc        1 3Q4      0.052200
     46 H21         5.7200    2.1890    4.1510 h1        1 3Q4      0.065700
     47 H21A        6.3230    0.5470    3.6640 h1        1 3Q4      0.065700
     48 H22         3.7970    1.1810    5.3600 hc        1 3Q4      0.078700
     49 H23         7.0670   -0.2820    7.2900 h1        1 3Q4      0.079700
     50 H24         7.5940   -2.2700    5.9530 hc        1 3Q4      0.044367
     51 H24A        7.1150   -1.4530    4.4080 hc        1 3Q4      0.044367
     52 H24B        8.5600   -0.8720    5.3340 hc        1 3Q4      0.044367
     53 HN30        6.7300   11.2730    3.9490 hn        1 3Q4      0.390300
     54 HN3A        5.9940   10.4050    5.1520 hn        1 3Q4      0.390300
     55 HN31       11.0390    1.0910    7.4700 hn        1 3Q4      0.421800
     56 HN3B       11.6030    2.6780    7.4850 hn        1 3Q4      0.421800
     57 HN32        1.9040    0.1470    4.1460 hn        1 3Q4      0.315500
     58 HN27        9.4630   10.6280    3.7070 hn        1 3Q4      0.324700
     59 H4          5.7110    8.0110    5.9650 ha        1 3Q4      0.126000
@<TRIPOS>BOND
     1    1    2 ar  
     2    1    3 ar  
     3    1   34 1   
     4    2    6 ar  
     5    2   35 1   
     6    3    7 ar  
     7    3   36 1   
     8    4    5 ar  
     9    4   10 ar  
    10    4   59 1   
    11    5   11 ar  
    12    5   37 1   
    13    6   13 ar  
    14    6   38 1   
    15    7   13 ar  
    16    7   39 1   
    17    8   11 ar  
    18    8   12 ar  
    19    8   40 1   
    20    9   14 ar  
    21    9   15 ar  
    22    9   41 1   
    23   10   12 ar  
    24   10   16 2   
    25   11   14 1   
    26   12   28 2   
    27   13   32 1   
    28   14   25 ar  
    29   15   26 ar  
    30   15   29 1   
    31   16   27 1   
    32   16   30 1   
    33   17   25 ar  
    34   17   26 ar  
    35   17   31 1   
    36   18   22 1   
    37   18   32 1   
    38   18   33 2   
    39   19   20 1   
    40   19   22 1   
    41   19   42 1   
    42   19   43 1   
    43   20   23 1   
    44   20   44 1   
    45   20   45 1   
    46   21   22 1   
    47   21   29 1   
    48   21   46 1   
    49   21   47 1   
    50   22   48 1   
    51   23   24 1   
    52   23   29 1   
    53   23   49 1   
    54   24   50 1   
    55   24   51 1   
    56   24   52 1   
    57   27   28 1   
    58   27   58 1   
    59   30   53 1   
    60   30   54 1   
    61   31   55 1   
    62   31   56 1   
    63   32   57 1   
@<TRIPOS>SUBSTRUCTURE
     1 3Q4         1 TEMP              0 ****  ****    0 ROOT
