@<TRIPOS>MOLECULE
3Q4
   59    63     1     0     0
SMALL
bcc


@<TRIPOS>ATOM
      1 C1         -0.4520    0.3360    0.0810 ca        1 3Q4     -0.157000
      2 C2          0.8750    0.6800   -0.1640 ca        1 3Q4     -0.104500
      3 C3         -0.8470    0.0110    1.3790 ca        1 3Q4     -0.104500
      4 C4          6.6790    7.5530    5.7070 ca        1 3Q4     -0.075000
      5 C5          6.9470    6.2390    5.9820 ca        1 3Q4     -0.137000
      6 C6          1.8120    0.7040    0.8660 ca        1 3Q4     -0.170500
      7 C7          0.0710    0.0270    2.4220 ca        1 3Q4     -0.170500
      8 C8          9.2140    6.3730    5.0530 ca        1 3Q4     -0.049000
      9 C9          7.3630    3.3170    5.6650 ca        1 3Q4     -0.442600
     10 C10         7.6710    8.3300    5.0770 ca        1 3Q4     -0.167000
     11 C11         8.2100    5.6480    5.6490 cp        1 3Q4     -0.143500
     12 C12         8.9660    7.7420    4.7420 ca        1 3Q4     -0.063000
     13 C13         1.4230    0.3760    2.1820 ca        1 3Q4      0.068600
     14 C14         8.4030    4.2160    5.9650 cp        1 3Q4      0.546800
     15 C15         7.5710    1.9330    5.9520 ca        1 3Q4      0.712200
     16 C16         7.7660    9.6840    4.6360 cc        1 3Q4      0.071900
     17 C17         9.6870    2.4740    6.8070 ca        1 3Q4      0.888900
     18 C18         3.6730    0.6340    3.2600 c         1 3Q4      0.667100
     19 C19         4.4210   -0.8860    5.1110 c3        1 3Q4     -0.075400
     20 C20         5.2390   -0.9840    6.3800 c3        1 3Q4     -0.082400
     21 C21         5.7940    1.1170    4.4800 c3        1 3Q4      0.207800
     22 C22         4.3680    0.5520    4.6200 c3        1 3Q4     -0.143700
     23 C23         6.6390   -0.3540    6.2390 c3        1 3Q4      0.215500
     24 C24         7.5320   -1.2870    5.4210 c3        1 3Q4     -0.120100
     25 N25         9.5720    3.8270    6.5230 nb        1 3Q4     -0.764000
     26 N26         8.7450    1.5050    6.5090 nb        1 3Q4     -0.812000
     27 N27         9.0570    9.8050    4.0900 na        1 3Q4      0.031800
     28 N28         9.7680    8.6810    4.1390 nc        1 3Q4     -0.276400
     29 N29         6.5220    1.0140    5.7320 nh        1 3Q4     -0.758300
     30 N30         6.8620   10.7380    4.7930 nh        1 3Q4     -0.777600
     31 N31        10.8320    2.0570    7.5020 nh        1 3Q4     -0.923500
     32 N32         2.3090    0.3830    3.2730 n         1 3Q4     -0.470100
     33 O33         4.3030    0.9180    2.2260 o         1 3Q4     -0.588100
     34 H1         -1.1830    0.3200   -0.7390 ha        1 3Q4      0.133000
     35 H2          1.1960    0.9380   -1.1840 ha        1 3Q4      0.133000
     36 H3         -1.8930   -0.2630    1.5830 ha        1 3Q4      0.133000
     37 H5          6.1950    5.6090    6.4810 ha        1 3Q4      0.137000
     38 H6          2.8550    0.9800    0.6380 ha        1 3Q4      0.150000
     39 H7         -0.2680   -0.2340    3.4360 ha        1 3Q4      0.150000
     40 H8         10.1920    5.9310    4.8140 ha        1 3Q4      0.159000
     41 H9          6.4280    3.6900    5.2350 ha        1 3Q4      0.157000
     42 H19         3.3850   -1.2670    5.3070 hc        1 3Q4      0.049200
     43 H19A        4.8740   -1.5340    4.3140 hc        1 3Q4      0.049200
     44 H20         4.6920   -0.4760    7.2170 hc        1 3Q4      0.052200
     45 H20A        5.3680   -2.0610    6.6610 hc        1 3Q4      0.052200
     46 H21         6.3220    0.5480    3.6590 h1        1 3Q4      0.065700
     47 H21A        5.7200    2.1890    4.1500 h1        1 3Q4      0.065700
     48 H22         3.8000    1.1800    5.3620 hc        1 3Q4      0.078700
     49 H23         7.0750   -0.2860    7.2820 h1        1 3Q4      0.079700
     50 H24         7.5980   -2.2720    5.9410 hc        1 3Q4      0.044367
     51 H24A        8.5630   -0.8730    5.3210 hc        1 3Q4      0.044367
     52 H24B        7.1160   -1.4530    4.3980 hc        1 3Q4      0.044367
     53 HN30        5.9940   10.4040    5.1620 hn        1 3Q4      0.390300
     54 HN3A        6.7290   11.2750    3.9600 hn        1 3Q4      0.390300
     55 HN31       11.6110    2.6750    7.4690 hn        1 3Q4      0.421800
     56 HN3B       11.0470    1.0880    7.4530 hn        1 3Q4      0.421800
     57 HN32        1.9040    0.1460    4.1520 hn        1 3Q4      0.315500
     58 HN27        9.4600   10.6300    3.7080 hn        1 3Q4      0.324700
     59 H4          5.7140    8.0080    5.9720 ha        1 3Q4      0.126000
@<TRIPOS>BOND
     1    1    2 ar  
     2    1    3 ar  
     3    1   34 1   
     4    2    6 ar  
     5    2   35 1   
     6    3    7 ar  
     7    3   36 1   
     8    4    5 ar  
     9    4   10 ar  
    10    4   59 1   
    11    5   11 ar  
    12    5   37 1   
    13    6   13 ar  
    14    6   38 1   
    15    7   13 ar  
    16    7   39 1   
    17    8   11 ar  
    18    8   12 ar  
    19    8   40 1   
    20    9   14 ar  
    21    9   15 ar  
    22    9   41 1   
    23   10   12 ar  
    24   10   16 2   
    25   11   14 1   
    26   12   28 2   
    27   13   32 1   
    28   14   25 ar  
    29   15   26 ar  
    30   15   29 1   
    31   16   27 1   
    32   16   30 1   
    33   17   25 ar  
    34   17   26 ar  
    35   17   31 1   
    36   18   22 1   
    37   18   32 1   
    38   18   33 2   
    39   19   20 1   
    40   19   22 1   
    41   19   42 1   
    42   19   43 1   
    43   20   23 1   
    44   20   44 1   
    45   20   45 1   
    46   21   22 1   
    47   21   29 1   
    48   21   46 1   
    49   21   47 1   
    50   22   48 1   
    51   23   24 1   
    52   23   29 1   
    53   23   49 1   
    54   24   50 1   
    55   24   51 1   
    56   24   52 1   
    57   27   28 1   
    58   27   58 1   
    59   30   53 1   
    60   30   54 1   
    61   31   55 1   
    62   31   56 1   
    63   32   57 1   
@<TRIPOS>SUBSTRUCTURE
     1 3Q4         1 TEMP              0 ****  ****    0 ROOT
