@<TRIPOS>MOLECULE
3Q4
   59    48     1     0     0
SMALL
bcc


@<TRIPOS>ATOM
      1 C1         -5.8640   -2.9570   -6.1650 c1        1 3Q4     -0.130500
      2 C2         -5.1790   -1.7440   -6.1040 c1        1 3Q4     -0.130500
      3 C3         -5.7790   -3.8590   -5.1040 c1        1 3Q4     -0.130500
      4 C4          2.6910    5.1580    2.2880 c1        1 3Q4     -0.142250
      5 C5          2.4500    4.0160    1.5240 c1        1 3Q4     -0.142250
      6 C6         -4.4100   -1.4330   -4.9850 c1        1 3Q4     -0.130500
      7 C7         -5.0100   -3.5480   -3.9850 c1        1 3Q4     -0.187000
      8 C8          2.9400    2.6350    3.4380 c1        1 3Q4     -0.142250
      9 C9          1.2920    0.9240    1.1520 c1        1 3Q4     -0.142250
     10 C10         3.0630    5.0340    3.6510 c1        1 3Q4     -0.037000
     11 C11         2.5740    2.7580    2.0980 c1        1 3Q4     -0.037000
     12 C12         3.1850    3.7980    4.2160 c1        1 3Q4     -0.037000
     13 C13        -4.3250   -2.3350   -3.9250 c1        1 3Q4      0.078000
     14 C14         2.4950    1.5760    1.2950 c1        1 3Q4     -0.037000
     15 C15         1.2370   -0.2820    0.4900 c1        1 3Q4      0.165000
     16 C16         3.3090    5.9800    4.6350 c1        1 3Q4      0.017000
     17 C17         3.5650   -0.1740    0.1230 c1        1 3Q4      0.167000
     18 C18        -2.5080   -1.8450   -2.3550 c1        1 3Q4      0.312000
     19 C19        -1.7870   -3.0980   -0.2700 c3        1 3Q4     -0.155000
     20 C20        -1.1820   -3.0320    1.0850 c3        1 3Q4     -0.155000
     21 C21        -0.6400   -0.9530   -0.8210 c3        1 3Q4     -0.042000
     22 C22        -1.9820   -1.7380   -0.8910 c3        1 3Q4     -0.131000
     23 C23         0.0870   -2.2260    1.1190 c3        1 3Q4     -0.001000
     24 C24         1.1780   -2.9990    0.3500 c3        1 3Q4     -0.244000
     25 N25         3.6210    1.0310    0.7850 n1        1 3Q4     -0.234000
     26 N26         2.3670   -0.8250   -0.0200 n2        1 3Q4     -0.269000
     27 N27         3.5790    5.3240    5.7900 n2        1 3Q4     -0.125000
     28 N28         3.5040    3.9680    5.5390 n1        1 3Q4     -0.102000
     29 N29        -0.0530   -0.9260    0.5360 n3        1 3Q4     -0.225000
     30 N30         3.3950    7.3940    4.7650 n2        1 3Q4     -0.305000
     31 N31         4.9080   -0.6100   -0.2540 n2        1 3Q4     -0.305000
     32 N32        -3.7830   -2.3760   -2.6030 n2        1 3Q4     -0.327000
     33 O33        -1.8640   -1.3480   -3.2730 o         1 3Q4     -0.345000
     34 H1         -6.4080   -3.1770   -6.9560 ha        1 3Q4      0.142250
     35 H2         -5.2400   -1.0980   -6.8620 ha        1 3Q4      0.142250
     36 H3         -6.2610   -4.7130   -5.1470 ha        1 3Q4      0.142250
     37 H4          2.6040    6.0420    1.8850 ha        1 3Q4      0.145500
     38 H5          2.1960    4.1020    0.5920 ha        1 3Q4      0.145500
     39 H6         -3.9170   -0.5580   -4.9410 ha        1 3Q4      0.142250
     40 H7         -4.9500   -4.1890   -3.2310 ha        1 3Q4      0.127000
     41 H8          3.0280    1.7420    3.8450 ha        1 3Q4      0.145500
     42 H9          0.4700    1.3190    1.5230 ha        1 3Q4      0.145500
     43 H19        -1.2080   -3.6230   -0.8450 hc        1 3Q4      0.090500
     44 H19A       -2.6720   -3.5510   -0.2050 hc        1 3Q4      0.090500
     45 H20        -0.9840   -3.9410    1.3850 hc        1 3Q4      0.091500
     46 H20A       -1.8240   -2.6330    1.6960 hc        1 3Q4      0.091500
     47 H21         0.0100   -1.3760   -1.4410 h1        1 3Q4      0.109500
     48 H21A       -0.7980   -0.0370   -1.1100 h1        1 3Q4      0.109500
     49 H22        -2.7140   -1.2440   -0.4580 hc        1 3Q4      0.115000
     50 H23         0.3720   -2.1230    2.0580 h1        1 3Q4      0.102000
     51 H24         1.9650   -3.1270    0.9340 hc        1 3Q4      0.085667
     52 H24A        0.8300   -3.8700    0.0800 hc        1 3Q4      0.085667
     53 H24B        1.4440   -2.4840   -0.4570 hc        1 3Q4      0.085667
     54 HN30        3.4950    7.9130    4.0240 hn        1 3Q4      0.203500
     55 HN3A        3.3290    7.7810    5.5860 hn        1 3Q4      0.203500
     56 HN31        5.6360   -0.0790   -0.0600 hn        1 3Q4      0.203500
     57 HN3B        5.0240   -1.4090   -0.7130 hn        1 3Q4      0.203500
     58 HN32       -4.2880   -2.6700   -1.9210 hn        1 3Q4      0.228000
     59 HN27        3.7840    5.7200    6.6100 DU        1 3Q4      0.274000
@<TRIPOS>BOND
     1    1    3 1   
     2    1   34 1   
     3    2    6 1   
     4    2   35 1   
     5    3   36 1   
     6    4   10 1   
     7    4   37 1   
     8    5   11 1   
     9    5   38 1   
    10    6   39 1   
    11    7   13 1   
    12    7   40 1   
    13    8   12 1   
    14    8   41 1   
    15    9   14 1   
    16    9   42 1   
    17   13   32 1   
    18   15   26 1   
    19   15   29 1   
    20   16   27 1   
    21   17   25 1   
    22   17   26 1   
    23   18   22 1   
    24   18   33 1   
    25   19   20 1   
    26   19   22 1   
    27   19   43 1   
    28   19   44 1   
    29   20   23 1   
    30   20   45 1   
    31   20   46 1   
    32   21   22 1   
    33   21   29 1   
    34   21   47 1   
    35   21   48 1   
    36   22   49 1   
    37   23   24 1   
    38   23   29 1   
    39   23   50 1   
    40   24   51 1   
    41   24   52 1   
    42   24   53 1   
    43   27   28 1   
    44   30   54 1   
    45   30   55 1   
    46   31   56 1   
    47   31   57 1   
    48   32   58 1   
@<TRIPOS>SUBSTRUCTURE
     1 3Q4         1 TEMP              0 ****  ****    0 ROOT
