@<TRIPOS>MOLECULE
3Q4
   59    63     1     0     0
SMALL
bcc


@<TRIPOS>ATOM
      1 C1          7.2580    3.9730    0.7780 ca        1 3Q4     -0.157000
      2 C2          6.2290    3.5750    1.6280 ca        1 3Q4     -0.104500
      3 C3          7.4080    3.3420   -0.4570 ca        1 3Q4     -0.104500
      4 C4         -3.9830    1.9880   -1.3230 ca        1 3Q4     -0.076000
      5 C5         -3.2630    0.8340   -1.1780 ca        1 3Q4     -0.138000
      6 C6          5.3490    2.5590    1.2630 ca        1 3Q4     -0.170500
      7 C7          6.5430    2.3260   -0.8420 ca        1 3Q4     -0.170500
      8 C8         -4.6000    0.0860    0.7390 ca        1 3Q4     -0.046000
      9 C9         -1.3270   -1.1810   -0.1850 ca        1 3Q4     -0.442600
     10 C10        -5.0410    2.2440   -0.4280 ca        1 3Q4     -0.167000
     11 C11        -3.5660   -0.1130   -0.1440 cp        1 3Q4     -0.146500
     12 C12        -5.3670    1.2820    0.6240 ca        1 3Q4     -0.064000
     13 C13         5.4920    1.9150    0.0170 ca        1 3Q4      0.068600
     14 C14        -2.7200   -1.3220   -0.0490 cp        1 3Q4      0.547800
     15 C15        -0.5220   -2.3590   -0.1040 ca        1 3Q4      0.710200
     16 C16        -5.9860    3.2990   -0.2550 cc        1 3Q4      0.070900
     17 C17        -2.4740   -3.6120    0.2460 ca        1 3Q4      0.888900
     18 C18         3.5940    0.2950    0.2680 c         1 3Q4      0.667100
     19 C19         3.7450   -2.0440   -0.6270 c3        1 3Q4     -0.075400
     20 C20         2.9680   -3.1910   -1.2350 c3        1 3Q4     -0.082400
     21 C21         1.5820   -1.1770    0.2990 c3        1 3Q4      0.206800
     22 C22         2.8600   -0.8170   -0.4810 c3        1 3Q4     -0.143700
     23 C23         1.6580   -3.4910   -0.4790 c3        1 3Q4      0.215500
     24 C24         1.9840   -4.2160    0.8270 c3        1 3Q4     -0.121100
     25 N25        -3.3200   -2.5170    0.1600 nb        1 3Q4     -0.765000
     26 N26        -1.0970   -3.5820    0.1070 nb        1 3Q4     -0.811000
     27 N27        -6.7770    2.9110    0.8410 na        1 3Q4      0.031800
     28 N28        -6.4260    1.7410    1.3690 nc        1 3Q4     -0.274400
     29 N29         0.8680   -2.2680   -0.3430 nh        1 3Q4     -0.756300
     30 N30        -6.2090    4.4330   -1.0410 nh        1 3Q4     -0.777600
     31 N31        -3.0530   -4.8490    0.5700 nh        1 3Q4     -0.924500
     32 N32         4.6410    0.8870   -0.4230 n         1 3Q4     -0.471100
     33 O33         3.2550    0.6390    1.4140 o         1 3Q4     -0.587100
     34 H1          7.9470    4.7750    1.0770 ha        1 3Q4      0.133000
     35 H2          6.1030    4.0660    2.6050 ha        1 3Q4      0.133000
     36 H3          8.2180    3.6490   -1.1360 ha        1 3Q4      0.133000
     37 H5         -2.4360    0.6030   -1.8670 ha        1 3Q4      0.136000
     38 H6          4.5450    2.2690    1.9600 ha        1 3Q4      0.150000
     39 H7          6.6840    1.8460   -1.8220 ha        1 3Q4      0.150000
     40 H8         -4.8490   -0.6450    1.5220 ha        1 3Q4      0.162000
     41 H9         -0.8960   -0.1900   -0.3650 ha        1 3Q4      0.157000
     42 H19         4.1380   -2.3420    0.3810 hc        1 3Q4      0.049200
     43 H19A        4.6280   -1.8100   -1.2780 hc        1 3Q4      0.049200
     44 H20         2.7260   -2.9530   -2.3040 hc        1 3Q4      0.051200
     45 H20A        3.5970   -4.1190   -1.2250 hc        1 3Q4      0.051200
     46 H21         1.8770   -1.4540    1.3540 h1        1 3Q4      0.066200
     47 H21A        0.9350   -0.2600    0.3620 h1        1 3Q4      0.066200
     48 H22         2.5680   -0.4430   -1.5030 hc        1 3Q4      0.077700
     49 H23         1.0620   -4.2020   -1.1280 h1        1 3Q4      0.076700
     50 H24         2.6370   -3.5930    1.4830 hc        1 3Q4      0.046033
     51 H24A        1.0550   -4.4710    1.3900 hc        1 3Q4      0.046033
     52 H24B        2.5220   -5.1650    0.5890 hc        1 3Q4      0.046033
     53 HN30       -5.4920    4.5280   -1.7310 hn        1 3Q4      0.390300
     54 HN3A       -6.3230    5.2710   -0.5070 hn        1 3Q4      0.390300
     55 HN31       -2.5140   -5.6560    0.3560 hn        1 3Q4      0.421800
     56 HN3B       -4.0310   -4.9260    0.4090 hn        1 3Q4      0.421800
     57 HN32        4.8440    0.5250   -1.3290 hn        1 3Q4      0.315500
     58 HN27       -7.5480    3.4130    1.2190 hn        1 3Q4      0.324700
     59 H4         -3.7570    2.7080   -2.1220 ha        1 3Q4      0.126000
@<TRIPOS>BOND
     1    1    2 ar  
     2    1    3 ar  
     3    1   34 1   
     4    2    6 ar  
     5    2   35 1   
     6    3    7 ar  
     7    3   36 1   
     8    4    5 ar  
     9    4   10 ar  
    10    4   59 1   
    11    5   11 ar  
    12    5   37 1   
    13    6   13 ar  
    14    6   38 1   
    15    7   13 ar  
    16    7   39 1   
    17    8   11 ar  
    18    8   12 ar  
    19    8   40 1   
    20    9   14 ar  
    21    9   15 ar  
    22    9   41 1   
    23   10   12 ar  
    24   10   16 2   
    25   11   14 1   
    26   12   28 2   
    27   13   32 1   
    28   14   25 ar  
    29   15   26 ar  
    30   15   29 1   
    31   16   27 1   
    32   16   30 1   
    33   17   25 ar  
    34   17   26 ar  
    35   17   31 1   
    36   18   22 1   
    37   18   32 1   
    38   18   33 2   
    39   19   20 1   
    40   19   22 1   
    41   19   42 1   
    42   19   43 1   
    43   20   23 1   
    44   20   44 1   
    45   20   45 1   
    46   21   22 1   
    47   21   29 1   
    48   21   46 1   
    49   21   47 1   
    50   22   48 1   
    51   23   24 1   
    52   23   29 1   
    53   23   49 1   
    54   24   50 1   
    55   24   51 1   
    56   24   52 1   
    57   27   28 1   
    58   27   58 1   
    59   30   53 1   
    60   30   54 1   
    61   31   55 1   
    62   31   56 1   
    63   32   57 1   
@<TRIPOS>SUBSTRUCTURE
     1 3Q4         1 TEMP              0 ****  ****    0 ROOT
