@<TRIPOS>MOLECULE
3Q5
   63    66     1     0     0
SMALL
bcc


@<TRIPOS>ATOM
      1 C1          0.1730    1.2690    0.3190 ca        1 3Q5     -0.056000
      2 C2          1.5200    1.0300    0.3500 ca        1 3Q5     -0.159000
      3 C3          1.3520   -0.3840    2.3500 ca        1 3Q5     -0.039000
      4 C4          4.1820   -0.2690    0.0770 ca        1 3Q5     -0.447600
      5 C5         -0.6450    0.6760    1.3000 ca        1 3Q5     -0.181000
      6 C6          2.1070    0.2040    1.3630 cp        1 3Q5     -0.163500
      7 C7         -0.0570   -0.1690    2.3400 ca        1 3Q5     -0.064000
      8 C8          3.5710    0.0030    1.3250 cp        1 3Q5      0.569800
      9 C9          5.5900   -0.4500    0.0640 ca        1 3Q5      0.683200
     10 C10        -2.0420    0.6950    1.6030 cc        1 3Q5      0.106900
     11 C11         5.6460   -0.1080    2.3760 ca        1 3Q5      0.912900
     12 C12         5.4180   -2.3500   -5.7340 c         1 3Q5      0.633100
     13 C13         7.5180   -1.3430   -3.6940 c3        1 3Q5     -0.095400
     14 C14         8.0140   -0.2110   -2.8160 c3        1 3Q5     -0.083400
     15 C15         5.7560   -1.8010   -1.9450 c3        1 3Q5      0.186800
     16 C16         6.0200   -1.5480   -3.4610 c3        1 3Q5      0.112500
     17 C17         7.6700   -0.4260   -1.3270 c3        1 3Q5      0.203500
     18 C18         8.5940   -1.4950   -0.7470 c3        1 3Q5     -0.125100
     19 C19         7.5930   -3.8090   -8.2170 c3        1 3Q5     -0.129433
     20 C20         6.8540   -1.4050   -8.1390 c3        1 3Q5     -0.129433
     21 C21         5.1700   -3.2310   -8.5690 c3        1 3Q5     -0.129433
     22 C22         6.4640   -2.8450   -7.8870 c3        1 3Q5      0.199800
     23 N23         4.2700    0.0870    2.4730 nb        1 3Q5     -0.744000
     24 N24         6.3370   -0.3700    1.1990 nb        1 3Q5     -0.807000
     25 N25        -2.1860   -0.1290    2.7350 na        1 3Q5      0.019800
     26 N26        -1.0340   -0.6240    3.1880 nc        1 3Q5     -0.268400
     27 N27         6.2320   -0.6590   -1.1980 nh        1 3Q5     -0.754300
     28 N28        -3.0530    1.4270    0.9950 nh        1 3Q5     -0.786600
     29 N29         6.3790   -0.0980    3.5550 nh        1 3Q5     -0.935500
     30 N30         5.4800   -2.7010   -4.2740 n4        1 3Q5     -0.647800
     31 O31         4.6110   -1.5310   -6.1510 o         1 3Q5     -0.433000
     32 O32         6.3230   -3.0600   -6.4130 os        1 3Q5     -0.422900
     33 H1         -0.2760    1.9210   -0.4440 ha        1 3Q5      0.130000
     34 H2          2.1850    1.4950   -0.3930 ha        1 3Q5      0.130000
     35 H3          1.8000   -1.0000    3.1440 ha        1 3Q5      0.161000
     36 H4          3.5740   -0.3020   -0.8320 ha        1 3Q5      0.150000
     37 H13         7.7110   -1.1000   -4.7720 hc        1 3Q5      0.063200
     38 H13A        8.0820   -2.2830   -3.4460 hc        1 3Q5      0.063200
     39 H14         9.1280   -0.1340   -2.9150 hc        1 3Q5      0.074700
     40 H14A        7.5710    0.7590   -3.1650 hc        1 3Q5      0.074700
     41 H15         6.2830   -2.7550   -1.6450 h1        1 3Q5      0.060200
     42 H15A        4.6510   -1.9330   -1.7690 h1        1 3Q5      0.060200
     43 H16         5.4500   -0.6280   -3.7960 hx        1 3Q5      0.132700
     44 H17         7.8830    0.5470   -0.7870 h1        1 3Q5      0.101700
     45 H18         8.4750   -2.4710   -1.2750 hc        1 3Q5      0.051033
     46 H18A        8.3990   -1.6560    0.3400 hc        1 3Q5      0.051033
     47 H18B        9.6530   -1.1580   -0.8630 hc        1 3Q5      0.051033
     48 H19         7.3120   -4.8540   -7.9410 hc        1 3Q5      0.072256
     49 H19A        8.5240   -3.5280   -7.6700 hc        1 3Q5      0.072256
     50 H19B        7.7860   -3.7620   -9.3170 hc        1 3Q5      0.072256
     51 H20         7.1370   -1.2880   -9.2140 hc        1 3Q5      0.072256
     52 H20A        6.0020   -0.7160   -7.9200 hc        1 3Q5      0.072256
     53 H20B        7.7290   -1.1190   -7.5070 hc        1 3Q5      0.072256
     54 H21         4.3480   -2.5240   -8.2980 hc        1 3Q5      0.072256
     55 H21A        5.3190   -3.1930   -9.6770 hc        1 3Q5      0.072256
     56 H21B        4.8710   -4.2690   -8.2860 hc        1 3Q5      0.072256
     57 HN28       -2.8180    1.6890    0.0610 hn        1 3Q5      0.403800
     58 HN2A       -3.9700    1.0420    1.0770 hn        1 3Q5      0.403800
     59 HN29        7.3670   -0.0370    3.4970 hn        1 3Q5      0.445300
     60 HN2B        5.9370    0.2460    4.3750 hn        1 3Q5      0.445300
     61 HN30        6.0780   -3.5250   -4.1440 hn        1 3Q5      0.468300
     62 HN25       -3.0180   -0.2560    3.2670 hn        1 3Q5      0.328700
     63 H302        4.5270   -2.9150   -3.9550 hn        1 3Q5      0.468300
@<TRIPOS>BOND
     1    1    2 ar  
     2    1    5 ar  
     3    1   33 1   
     4    2    6 ar  
     5    2   34 1   
     6    3    6 ar  
     7    3    7 ar  
     8    3   35 1   
     9    4    8 ar  
    10    4    9 ar  
    11    4   36 1   
    12    5    7 ar  
    13    5   10 2   
    14    6    8 1   
    15    7   26 2   
    16    8   23 ar  
    17    9   24 ar  
    18    9   27 1   
    19   10   25 1   
    20   10   28 1   
    21   11   23 ar  
    22   11   24 ar  
    23   11   29 1   
    24   12   30 1   
    25   12   31 2   
    26   12   32 1   
    27   13   14 1   
    28   13   16 1   
    29   13   37 1   
    30   13   38 1   
    31   14   17 1   
    32   14   39 1   
    33   14   40 1   
    34   15   16 1   
    35   15   27 1   
    36   15   41 1   
    37   15   42 1   
    38   16   30 1   
    39   16   43 1   
    40   17   18 1   
    41   17   27 1   
    42   17   44 1   
    43   18   45 1   
    44   18   46 1   
    45   18   47 1   
    46   19   22 1   
    47   19   48 1   
    48   19   49 1   
    49   19   50 1   
    50   20   22 1   
    51   20   51 1   
    52   20   52 1   
    53   20   53 1   
    54   21   22 1   
    55   21   54 1   
    56   21   55 1   
    57   21   56 1   
    58   22   32 1   
    59   25   26 1   
    60   25   62 1   
    61   28   57 1   
    62   28   58 1   
    63   29   59 1   
    64   29   60 1   
    65   30   61 1   
    66   30   63 1   
@<TRIPOS>SUBSTRUCTURE
     1 3Q5         1 TEMP              0 ****  ****    0 ROOT
