@<TRIPOS>MOLECULE
3Q5
   65    68     1     0     0
SMALL
bcc


@<TRIPOS>ATOM
      1 C1          0.0290    0.9700    0.1730 ca        1 3Q5     -0.121000
      2 C2          1.3880    0.7630    0.1910 ca        1 3Q5     -0.057000
      3 C3          1.3090   -0.4860    2.2990 ca        1 3Q5      0.021000
      4 C4          4.1800   -0.4650    0.0650 ca        1 3Q5     -0.360600
      5 C5         -0.7450    0.4490    1.2290 ca        1 3Q5     -0.012000
      6 C6          2.0300    0.0470    1.2490 cp        1 3Q5     -0.194500
      7 C7         -0.0980   -0.3010    2.3000 ca        1 3Q5     -0.112000
      8 C8          3.5030   -0.0690    1.2300 cp        1 3Q5      0.559800
      9 C9          5.6160   -0.5400    0.0830 ca        1 3Q5      0.731200
     10 C10        -2.1230    0.4480    1.6000 cc        1 3Q5     -0.196100
     11 C11         5.5260    0.1510    2.3050 ca        1 3Q5      0.758900
     12 C12         5.6280   -2.2550   -5.7420 c         1 3Q5      0.644100
     13 C13         7.8310   -1.4480   -3.4970 c3        1 3Q5     -0.103400
     14 C14         8.2530   -0.3410   -2.5580 c3        1 3Q5     -0.088400
     15 C15         5.8860   -1.8970   -1.9420 c3        1 3Q5      0.190800
     16 C16         6.3120   -1.6290   -3.4180 c3        1 3Q5      0.116500
     17 C17         7.7980   -0.5880   -1.1100 c3        1 3Q5      0.205500
     18 C18         8.6470   -1.6850   -0.4720 c3        1 3Q5     -0.126100
     19 C19         7.3350   -3.6870   -8.5730 c3        1 3Q5     -0.135100
     20 C20         6.7140   -1.2560   -8.3300 c3        1 3Q5     -0.135100
     21 C21         4.9090   -3.0070   -8.5200 c3        1 3Q5     -0.135100
     22 C22         6.3120   -2.6870   -8.0660 c3        1 3Q5      0.215800
     23 N23         4.1690    0.2420    2.3830 nb        1 3Q5     -0.692000
     24 N24         6.2950   -0.2290    1.2440 nb        1 3Q5     -0.738000
     25 N25        -2.2070   -0.2800    2.8130 na        1 3Q5      0.117800
     26 N26        -1.0500   -0.7160    3.2230 nc        1 3Q5     -0.118400
     27 N27         6.3460   -0.8310   -1.0750 nh        1 3Q5     -0.748300
     28 N28        -3.2310    1.0660    0.9200 n4        1 3Q5     -0.657400
     29 N29         6.2800    0.5090    3.5490 n4        1 3Q5     -0.820300
     30 N30         5.8510   -2.7460   -4.3170 n4        1 3Q5     -0.662800
     31 O31         4.8190   -1.3620   -5.9460 o         1 3Q5     -0.439000
     32 O32         6.4010   -2.9400   -6.5690 os        1 3Q5     -0.420900
     33 H1         -0.4430    1.5360   -0.6430 ha        1 3Q5      0.156000
     34 H2          2.0130    1.1750   -0.6200 ha        1 3Q5      0.158000
     35 H3          1.7840   -1.0380    3.1270 ha        1 3Q5      0.184000
     36 H4          3.6050   -0.6840   -0.8460 ha        1 3Q5      0.179000
     37 H13         8.3550   -2.4020   -3.2180 hc        1 3Q5      0.083700
     38 H13A        8.1360   -1.1830   -4.5450 hc        1 3Q5      0.083700
     39 H14         7.8470    0.6410   -2.9190 hc        1 3Q5      0.092200
     40 H14A        9.3740   -0.2640   -2.5620 hc        1 3Q5      0.092200
     41 H15         4.7650   -1.9820   -1.8910 h1        1 3Q5      0.068200
     42 H15A        6.3340   -2.8810   -1.6090 h1        1 3Q5      0.068200
     43 H16         5.7980   -0.6850   -3.7830 hx        1 3Q5      0.135700
     44 H17         7.9880    0.3770   -0.5470 h1        1 3Q5      0.096700
     45 H18         9.7200   -1.3660   -0.4940 hc        1 3Q5      0.061367
     46 H18A        8.5580   -2.6500   -1.0260 hc        1 3Q5      0.061367
     47 H18B        8.3600   -1.8600    0.5910 hc        1 3Q5      0.061367
     48 H19         7.0470   -4.7280   -8.2930 hc        1 3Q5      0.079144
     49 H19A        8.3480   -3.4650   -8.1600 hc        1 3Q5      0.079144
     50 H19B        7.3730   -3.6100   -9.6890 hc        1 3Q5      0.079144
     51 H20         5.9630   -0.5430   -7.9090 hc        1 3Q5      0.079144
     52 H20A        7.7180   -1.0380   -7.8930 hc        1 3Q5      0.079144
     53 H20B        6.7690   -1.0960   -9.4370 hc        1 3Q5      0.079144
     54 H21         4.1730   -2.2820   -8.0940 hc        1 3Q5      0.079144
     55 H21A        4.8660   -2.9360   -9.6370 hc        1 3Q5      0.079144
     56 H21B        4.6220   -4.0450   -8.2230 hc        1 3Q5      0.079144
     57 HN28       -3.9320    0.3620    0.6440 hn        1 3Q5      0.479467
     58 HN2A       -2.8640    1.5250    0.0740 hn        1 3Q5      0.479467
     59 HN29        6.8480   -0.2960    3.8480 hn        1 3Q5      0.490467
     60 HN2B        6.9000    1.3070    3.3510 hn        1 3Q5      0.490467
     61 HN30        6.5530   -3.4990   -4.3300 hn        1 3Q5      0.467300
     62 HN25       -3.0370   -0.4740    3.3480 hn        1 3Q5      0.372700
     63 H283       -3.6790    1.7750    1.5190 hn        1 3Q5      0.479467
     64 H293        5.6230    0.7650    4.3010 hn        1 3Q5      0.490467
     65 H302        4.9610   -3.1230   -3.9770 hn        1 3Q5      0.467300
@<TRIPOS>BOND
     1    1    2 ar  
     2    1    5 ar  
     3    1   33 1   
     4    2    6 ar  
     5    2   34 1   
     6    3    6 ar  
     7    3    7 ar  
     8    3   35 1   
     9    4    8 ar  
    10    4    9 ar  
    11    4   36 1   
    12    5    7 ar  
    13    5   10 2   
    14    6    8 1   
    15    7   26 2   
    16    8   23 ar  
    17    9   24 ar  
    18    9   27 1   
    19   10   25 1   
    20   10   28 1   
    21   11   23 ar  
    22   11   24 ar  
    23   11   29 1   
    24   12   30 1   
    25   12   31 2   
    26   12   32 1   
    27   13   14 1   
    28   13   16 1   
    29   13   37 1   
    30   13   38 1   
    31   14   17 1   
    32   14   39 1   
    33   14   40 1   
    34   15   16 1   
    35   15   27 1   
    36   15   41 1   
    37   15   42 1   
    38   16   30 1   
    39   16   43 1   
    40   17   18 1   
    41   17   27 1   
    42   17   44 1   
    43   18   45 1   
    44   18   46 1   
    45   18   47 1   
    46   19   22 1   
    47   19   48 1   
    48   19   49 1   
    49   19   50 1   
    50   20   22 1   
    51   20   51 1   
    52   20   52 1   
    53   20   53 1   
    54   21   22 1   
    55   21   54 1   
    56   21   55 1   
    57   21   56 1   
    58   22   32 1   
    59   25   26 1   
    60   25   62 1   
    61   28   57 1   
    62   28   58 1   
    63   28   63 1   
    64   29   59 1   
    65   29   60 1   
    66   29   64 1   
    67   30   61 1   
    68   30   65 1   
@<TRIPOS>SUBSTRUCTURE
     1 3Q5         1 TEMP              0 ****  ****    0 ROOT
