@<TRIPOS>MOLECULE
3Q5
   62    53     1     0     0
SMALL
bcc


@<TRIPOS>ATOM
      1 C1         -2.7330   -4.5710   -2.6840 c1        1 3Q5     -0.086667
      2 C2         -1.9720   -3.7260   -1.8540 c1        1 3Q5     -0.086667
      3 C3         -0.2450   -3.6660   -3.5060 c1        1 3Q5     -0.086667
      4 C4          0.4820   -1.5090   -1.1650 c1        1 3Q5     -0.261000
      5 C5         -2.2410   -4.9570   -3.9220 c1        1 3Q5     -0.091333
      6 C6         -0.7390   -3.2820   -2.2690 c1        1 3Q5     -0.091333
      7 C7         -1.0100   -4.5160   -4.3400 c1        1 3Q5     -0.091333
      8 C8          0.2440   -2.8500   -1.3420 c1        1 3Q5      0.097000
      9 C9          1.4640   -1.0990   -0.3130 c1        1 3Q5      0.137000
     10 C10        -2.7650   -5.7710   -4.9180 c1        1 3Q5      0.020000
     11 C11         1.9720   -3.3230    0.1850 c1        1 3Q5      0.157000
     12 C12        -0.0450    3.7410    2.3400 c1        1 3Q5      0.389000
     13 C13         2.8870    2.1120    2.0400 c3        1 3Q5     -0.191000
     14 C14         3.3460    2.0250    0.6620 c3        1 3Q5     -0.158000
     15 C15         1.1810    0.3670    1.5590 c3        1 3Q5     -0.068000
     16 C16         1.4790    1.7250    2.1860 c3        1 3Q5      0.023000
     17 C17         3.0440    0.6630    0.0320 c3        1 3Q5     -0.014000
     18 C18         3.3840    0.7170   -1.4230 c3        1 3Q5     -0.216000
     19 C19        -1.7730    4.4960    4.3820 c3        1 3Q5     -0.231333
     20 C20        -3.5340    5.0910    2.7290 c3        1 3Q5     -0.231333
     21 C21        -1.3910    6.4390    2.8590 c3        1 3Q5     -0.231333
     22 C22        -2.0130    5.0190    2.9970 c3        1 3Q5      0.114000
     23 N23         0.9700   -3.7430   -0.6840 n2        1 3Q5     -0.222000
     24 N24         2.2060   -2.0170    0.3590 n1        1 3Q5     -0.264000
     25 N25        -1.8630   -5.8270   -5.9340 n2        1 3Q5     -0.127000
     26 N26        -0.7700   -5.0500   -5.5830 n1        1 3Q5     -0.095000
     27 N27         1.6450    0.2780    0.1790 n3        1 3Q5     -0.218000
     28 N28        -3.9680   -6.5120   -5.2380 n2        1 3Q5     -0.303000
     29 N29         2.6270   -4.3460    0.8780 n2        1 3Q5     -0.303000
     30 N30         0.6430    2.7370    1.5340 n3        1 3Q5     -0.326000
     31 O31         0.5580    4.3240    3.2380 o         1 3Q5     -0.407000
     32 O32        -1.3970    4.1160    2.0220 o         1 3Q5     -0.291000
     33 H1         -3.6130   -4.8870   -2.3870 ha        1 3Q5      0.142000
     34 H2         -2.3180   -3.4580   -0.9880 ha        1 3Q5      0.142000
     35 H3          0.6510   -3.3450   -3.8070 ha        1 3Q5      0.142000
     36 H4         -0.0500   -0.8530   -1.6460 ha        1 3Q5      0.166000
     37 H13         3.0000    3.0360    2.3600 hc        1 3Q5      0.095500
     38 H13A        3.4300    1.5220    2.5850 hc        1 3Q5      0.095500
     39 H14         4.2870    2.1730    0.6410 hc        1 3Q5      0.089500
     40 H14A        2.9030    2.7250    0.1360 hc        1 3Q5      0.089500
     41 H15         1.6260   -0.3340    2.0890 h1        1 3Q5      0.099500
     42 H15A        0.2080    0.2140    1.5800 h1        1 3Q5      0.099500
     43 H16         1.2540    1.6920    3.1520 h1        1 3Q5      0.127000
     44 H17         3.5970   -0.0040    0.4570 h1        1 3Q5      0.078000
     45 H18         3.8220    1.5540   -1.6190 hc        1 3Q5      0.084333
     46 H18A        2.5600    0.6440   -1.9560 hc        1 3Q5      0.084333
     47 H18B        3.9720   -0.0090   -1.6410 hc        1 3Q5      0.084333
     48 H19        -1.9050    3.5320    4.3890 hc        1 3Q5      0.090444
     49 H19A       -2.4010    4.9140    5.0010 hc        1 3Q5      0.090444
     50 H19B       -0.8370    4.7060    4.6620 hc        1 3Q5      0.090444
     51 H20        -3.9460    5.7430    3.3340 hc        1 3Q5      0.090444
     52 H20A       -3.9470    4.1740    2.8840 hc        1 3Q5      0.090444
     53 H20B       -3.6830    5.3530    1.8390 hc        1 3Q5      0.090444
     54 H21        -0.5600    6.4800    3.3650 hc        1 3Q5      0.090444
     55 H21A       -2.0260    7.1140    3.2100 hc        1 3Q5      0.090444
     56 H21B       -1.2030    6.6280    1.8980 hc        1 3Q5      0.090444
     57 HN28       -4.5920   -6.6260   -4.6250 hn        1 3Q5      0.202250
     58 HN2A       -4.0820   -6.8490   -6.0670 hn        1 3Q5      0.202250
     59 HN29        3.3450   -4.1500    1.4120 hn        1 3Q5      0.202250
     60 HN2B        2.3240   -5.2080    0.8150 hn        1 3Q5      0.202250
     61 HN30        0.4800    2.6840    0.6220 hn        1 3Q5      0.237000
     62 HN25       -1.9730   -6.2510   -6.7000 DU        1 3Q5      0.275000
@<TRIPOS>BOND
     1    1    5 1   
     2    1   33 1   
     3    2    6 1   
     4    2   34 1   
     5    3    7 1   
     6    3   35 1   
     7    4    9 1   
     8    4   36 1   
     9    8   23 1   
    10    9   27 1   
    11   10   25 1   
    12   11   23 1   
    13   11   24 1   
    14   12   30 1   
    15   12   31 1   
    16   13   14 1   
    17   13   16 1   
    18   13   37 1   
    19   13   38 1   
    20   14   17 1   
    21   14   39 1   
    22   14   40 1   
    23   15   16 1   
    24   15   27 1   
    25   15   41 1   
    26   15   42 1   
    27   16   30 1   
    28   16   43 1   
    29   17   18 1   
    30   17   27 1   
    31   17   44 1   
    32   18   45 1   
    33   18   46 1   
    34   18   47 1   
    35   19   22 1   
    36   19   48 1   
    37   19   49 1   
    38   19   50 1   
    39   20   22 1   
    40   20   51 1   
    41   20   52 1   
    42   20   53 1   
    43   21   22 1   
    44   21   54 1   
    45   21   55 1   
    46   21   56 1   
    47   22   32 1   
    48   25   26 1   
    49   28   57 1   
    50   28   58 1   
    51   29   59 1   
    52   29   60 1   
    53   30   61 1   
@<TRIPOS>SUBSTRUCTURE
     1 3Q5         1 TEMP              0 ****  ****    0 ROOT
