@<TRIPOS>MOLECULE
3Q5
   63    66     1     0     0
SMALL
bcc


@<TRIPOS>ATOM
      1 C1          0.1790    1.2540    0.3420 ca        1 3Q5     -0.056000
      2 C2          1.5270    1.0160    0.3670 ca        1 3Q5     -0.159000
      3 C3          1.3680   -0.4020    2.3650 ca        1 3Q5     -0.039000
      4 C4          4.1880   -0.2810    0.0810 ca        1 3Q5     -0.447600
      5 C5         -0.6340    0.6590    1.3260 ca        1 3Q5     -0.181000
      6 C6          2.1180    0.1870    1.3760 cp        1 3Q5     -0.163500
      7 C7         -0.0420   -0.1880    2.3610 ca        1 3Q5     -0.064000
      8 C8          3.5820   -0.0120    1.3320 cp        1 3Q5      0.569800
      9 C9          5.5960   -0.4610    0.0610 ca        1 3Q5      0.682200
     10 C10        -2.0300    0.6760    1.6350 cc        1 3Q5      0.106900
     11 C11         5.6620   -0.1240    2.3740 ca        1 3Q5      0.912900
     12 C12         5.4040   -2.3520   -5.7390 c         1 3Q5      0.633100
     13 C13         7.5100   -1.3450   -3.7060 c3        1 3Q5     -0.095400
     14 C14         8.0070   -0.2130   -2.8280 c3        1 3Q5     -0.083400
     15 C15         5.7560   -1.8090   -1.9510 c3        1 3Q5      0.186800
     16 C16         6.0130   -1.5530   -3.4670 c3        1 3Q5      0.112500
     17 C17         7.6700   -0.4310   -1.3390 c3        1 3Q5      0.203500
     18 C18         8.5980   -1.5000   -0.7640 c3        1 3Q5     -0.125100
     19 C19         7.5780   -3.7990   -8.2300 c3        1 3Q5     -0.129433
     20 C20         6.8310   -1.3970   -8.1460 c3        1 3Q5     -0.129433
     21 C21         5.1520   -3.2280   -8.5750 c3        1 3Q5     -0.129433
     22 C22         6.4470   -2.8390   -7.8960 c3        1 3Q5      0.199800
     23 N23         4.2860    0.0700    2.4770 nb        1 3Q5     -0.744000
     24 N24         6.3470   -0.3830    1.1930 nb        1 3Q5     -0.807000
     25 N25        -2.1690   -0.1500    2.7650 na        1 3Q5      0.019800
     26 N26        -1.0150   -0.6450    3.2120 nc        1 3Q5     -0.268400
     27 N27         6.2330   -0.6670   -1.2040 nh        1 3Q5     -0.754300
     28 N28        -3.0440    1.4100    1.0320 nv        1 3Q5     -0.786600
     29 N29         6.3990   -0.1160    3.5500 nv        1 3Q5     -0.935500
     30 N30         5.4710   -2.7050   -4.2800 ny        1 3Q5     -0.647800
     31 O31         4.5930   -1.5350   -6.1520 o         1 3Q5     -0.433000
     32 O32         6.3100   -3.0580   -6.4220 os        1 3Q5     -0.422900
     33 H1         -0.2730    1.9070   -0.4180 ha        1 3Q5      0.130000
     34 H2          2.1880    1.4820   -0.3780 ha        1 3Q5      0.130000
     35 H3          1.8190   -1.0200    3.1550 ha        1 3Q5      0.161000
     36 H4          3.5770   -0.3140   -0.8260 ha        1 3Q5      0.150000
     37 H13         7.6980   -1.0990   -4.7850 hc        1 3Q5      0.063200
     38 H13A        8.0760   -2.2840   -3.4610 hc        1 3Q5      0.063200
     39 H14         7.5610    0.7560   -3.1740 hc        1 3Q5      0.074700
     40 H14A        9.1200   -0.1340   -2.9320 hc        1 3Q5      0.074700
     41 H15         4.6520   -1.9420   -1.7700 h1        1 3Q5      0.060200
     42 H15A        6.2850   -2.7620   -1.6540 h1        1 3Q5      0.060200
     43 H16         5.4400   -0.6330   -3.7980 hx        1 3Q5      0.132700
     44 H17         7.8840    0.5410   -0.7970 h1        1 3Q5      0.101700
     45 H18         9.6560   -1.1610   -0.8850 hc        1 3Q5      0.051033
     46 H18A        8.4090   -1.6620    0.3240 hc        1 3Q5      0.051033
     47 H18B        8.4780   -2.4750   -1.2930 hc        1 3Q5      0.051033
     48 H19         8.5090   -3.5160   -7.6850 hc        1 3Q5      0.072256
     49 H19A        7.7680   -3.7480   -9.3310 hc        1 3Q5      0.072256
     50 H19B        7.3010   -4.8450   -7.9560 hc        1 3Q5      0.072256
     51 H20         5.9770   -0.7120   -7.9240 hc        1 3Q5      0.072256
     52 H20A        7.1120   -1.2770   -9.2210 hc        1 3Q5      0.072256
     53 H20B        7.7060   -1.1100   -7.5140 hc        1 3Q5      0.072256
     54 H21         4.8570   -4.2680   -8.2940 hc        1 3Q5      0.072256
     55 H21A        5.2980   -3.1870   -9.6830 hc        1 3Q5      0.072256
     56 H21B        4.3290   -2.5250   -8.3010 hc        1 3Q5      0.072256
     57 HN28       -2.8130    1.6740    0.0980 hn        1 3Q5      0.403800
     58 HN2A       -3.9610    1.0240    1.1170 hn        1 3Q5      0.403800
     59 HN29        5.9610    0.2260    4.3720 hn        1 3Q5      0.445300
     60 HN2B        7.3870   -0.0540    3.4880 hn        1 3Q5      0.445300
     61 HN30        6.0720   -3.5290   -4.1530 hn        1 3Q5      0.468300
     62 HN25       -2.9980   -0.2790    3.3010 hn        1 3Q5      0.328700
     63 H302        4.5200   -2.9210   -3.9570 hn        1 3Q5      0.468300
@<TRIPOS>BOND
     1    1    2 ar  
     2    1    5 ar  
     3    1   33 1   
     4    2    6 ar  
     5    2   34 1   
     6    3    6 ar  
     7    3    7 ar  
     8    3   35 1   
     9    4    8 ar  
    10    4    9 ar  
    11    4   36 1   
    12    5    7 ar  
    13    5   10 2   
    14    6    8 1   
    15    7   26 2   
    16    8   23 ar  
    17    9   24 ar  
    18    9   27 1   
    19   10   25 1   
    20   10   28 1   
    21   11   23 ar  
    22   11   24 ar  
    23   11   29 1   
    24   12   30 1   
    25   12   31 2   
    26   12   32 1   
    27   13   14 1   
    28   13   16 1   
    29   13   37 1   
    30   13   38 1   
    31   14   17 1   
    32   14   39 1   
    33   14   40 1   
    34   15   16 1   
    35   15   27 1   
    36   15   41 1   
    37   15   42 1   
    38   16   30 1   
    39   16   43 1   
    40   17   18 1   
    41   17   27 1   
    42   17   44 1   
    43   18   45 1   
    44   18   46 1   
    45   18   47 1   
    46   19   22 1   
    47   19   48 1   
    48   19   49 1   
    49   19   50 1   
    50   20   22 1   
    51   20   51 1   
    52   20   52 1   
    53   20   53 1   
    54   21   22 1   
    55   21   54 1   
    56   21   55 1   
    57   21   56 1   
    58   22   32 1   
    59   25   26 1   
    60   25   62 1   
    61   28   57 1   
    62   28   58 1   
    63   29   59 1   
    64   29   60 1   
    65   30   61 1   
    66   30   63 1   
@<TRIPOS>SUBSTRUCTURE
     1 3Q5         1 TEMP              0 ****  ****    0 ROOT
