@<TRIPOS>MOLECULE
3Q5
   62    65     1     0     0
SMALL
bcc


@<TRIPOS>ATOM
      1 C1         -3.4750   -2.1620   -1.3280 ca        1 3Q5     -0.076000
      2 C2         -2.8390   -0.9630   -1.1510 ca        1 3Q5     -0.137000
      3 C3         -4.3490   -0.2820    0.6600 ca        1 3Q5     -0.048000
      4 C4         -1.1050    1.1770   -0.0560 ca        1 3Q5     -0.440600
      5 C5         -4.5770   -2.4720   -0.5080 ca        1 3Q5     -0.167000
      6 C6         -3.2720   -0.0270   -0.1540 cp        1 3Q5     -0.146500
      7 C7         -5.0320   -1.5240    0.5080 ca        1 3Q5     -0.065000
      8 C8         -2.5110    1.2340   -0.0180 cp        1 3Q5      0.545800
      9 C9         -0.3830    2.4050    0.0620 ca        1 3Q5      0.709200
     10 C10        -5.4690   -3.5800   -0.3880 cc        1 3Q5      0.070900
     11 C11        -2.4260    3.5380    0.2550 ca        1 3Q5      0.886900
     12 C12         4.4060   -1.0310   -0.0350 c         1 3Q5      0.744100
     13 C13         3.9200    2.3400   -0.1710 c3        1 3Q5     -0.104400
     14 C14         3.1150    3.4010   -0.8850 c3        1 3Q5     -0.079400
     15 C15         1.7520    1.3750    0.6580 c3        1 3Q5      0.194800
     16 C16         3.1020    1.0450   -0.0510 c3        1 3Q5      0.091700
     17 C17         1.7460    3.6570   -0.2250 c3        1 3Q5      0.215500
     18 C18         1.9440    4.4640    1.0580 c3        1 3Q5     -0.120100
     19 C19         6.7040   -3.4270    1.4680 c3        1 3Q5     -0.114100
     20 C20         6.7520   -2.7200   -0.9310 c3        1 3Q5     -0.114100
     21 C21         4.7690   -3.9680   -0.0230 c3        1 3Q5     -0.114100
     22 C22         5.8650   -2.9610    0.2790 c3        1 3Q5      0.186800
     23 N23        -3.1960    2.3910    0.1300 nb        1 3Q5     -0.765000
     24 N24        -1.0440    3.5920    0.2120 nb        1 3Q5     -0.810000
     25 N25        -6.3540   -3.2330    0.6470 na        1 3Q5      0.031800
     26 N26        -6.1180   -2.0360    1.1770 nc        1 3Q5     -0.276400
     27 N27         1.0240    2.3940   -0.0730 nh        1 3Q5     -0.756300
     28 N28        -5.4440   -4.8170   -1.0380 nh        1 3Q5     -0.777600
     29 N29        -3.1030    4.7410    0.5180 nh        1 3Q5     -0.923500
     30 N30         3.7890   -0.0080    0.6670 n         1 3Q5     -0.533900
     31 O31         4.1980   -1.3680   -1.2120 o         1 3Q5     -0.589000
     32 O32         5.3030   -1.7110    0.7560 os        1 3Q5     -0.452900
     33 H1         -3.1410   -2.8800   -2.0910 ha        1 3Q5      0.127000
     34 H2         -1.9800   -0.6890   -1.7820 ha        1 3Q5      0.139000
     35 H3         -4.6930    0.4380    1.4170 ha        1 3Q5      0.161000
     36 H4         -0.6010    0.2150   -0.1970 ha        1 3Q5      0.160000
     37 H13         4.8640    2.1400   -0.7430 hc        1 3Q5      0.047700
     38 H13A        4.2110    2.7050    0.8480 hc        1 3Q5      0.047700
     39 H14         3.6850    4.3650   -0.8900 hc        1 3Q5      0.053700
     40 H14A        2.9550    3.0930   -1.9520 hc        1 3Q5      0.053700
     41 H15         1.1400    0.4350    0.7290 h1        1 3Q5      0.052700
     42 H15A        1.9690    1.7260    1.7100 h1        1 3Q5      0.052700
     43 H16         2.8760    0.6620   -1.0930 h1        1 3Q5      0.102700
     44 H17         1.1480    4.2960   -0.9440 h1        1 3Q5      0.075700
     45 H18         2.4430    5.4310    0.8030 hc        1 3Q5      0.043700
     46 H18A        0.9690    4.6910    1.5480 hc        1 3Q5      0.043700
     47 H18B        2.5890    3.9160    1.7860 hc        1 3Q5      0.043700
     48 H19         7.4810   -2.6660    1.7130 hc        1 3Q5      0.051922
     49 H19A        6.0540   -3.5760    2.3630 hc        1 3Q5      0.051922
     50 H19B        7.2000   -4.3910    1.2070 hc        1 3Q5      0.051922
     51 H20         6.1360   -2.4200   -1.8130 hc        1 3Q5      0.051922
     52 H20A        7.4870   -1.9080   -0.7120 hc        1 3Q5      0.051922
     53 H20B        7.3070   -3.6560   -1.1760 hc        1 3Q5      0.051922
     54 H21         5.2270   -4.9660   -0.2210 hc        1 3Q5      0.051922
     55 H21A        4.0750   -4.0530    0.8470 hc        1 3Q5      0.051922
     56 H21B        4.1840   -3.6520   -0.9210 hc        1 3Q5      0.051922
     57 HN28       -4.7550   -4.8190   -1.7640 hn        1 3Q5      0.390300
     58 HN2A       -6.3390   -5.1060   -1.3780 hn        1 3Q5      0.390300
     59 HN29       -4.0690    4.7540    0.2830 hn        1 3Q5      0.420800
     60 HN2B       -2.6000    5.5760    0.3210 hn        1 3Q5      0.420800
     61 HN30        4.1690    0.2240    1.5560 hn        1 3Q5      0.314500
     62 HN25       -7.0960   -3.7930    1.0000 hn        1 3Q5      0.323700
@<TRIPOS>BOND
     1    1    2 ar  
     2    1    5 ar  
     3    1   33 1   
     4    2    6 ar  
     5    2   34 1   
     6    3    6 ar  
     7    3    7 ar  
     8    3   35 1   
     9    4    8 ar  
    10    4    9 ar  
    11    4   36 1   
    12    5    7 ar  
    13    5   10 2   
    14    6    8 1   
    15    7   26 2   
    16    8   23 ar  
    17    9   24 ar  
    18    9   27 1   
    19   10   25 1   
    20   10   28 1   
    21   11   23 ar  
    22   11   24 ar  
    23   11   29 1   
    24   12   30 1   
    25   12   31 2   
    26   12   32 1   
    27   13   14 1   
    28   13   16 1   
    29   13   37 1   
    30   13   38 1   
    31   14   17 1   
    32   14   39 1   
    33   14   40 1   
    34   15   16 1   
    35   15   27 1   
    36   15   41 1   
    37   15   42 1   
    38   16   30 1   
    39   16   43 1   
    40   17   18 1   
    41   17   27 1   
    42   17   44 1   
    43   18   45 1   
    44   18   46 1   
    45   18   47 1   
    46   19   22 1   
    47   19   48 1   
    48   19   49 1   
    49   19   50 1   
    50   20   22 1   
    51   20   51 1   
    52   20   52 1   
    53   20   53 1   
    54   21   22 1   
    55   21   54 1   
    56   21   55 1   
    57   21   56 1   
    58   22   32 1   
    59   25   26 1   
    60   25   62 1   
    61   28   57 1   
    62   28   58 1   
    63   29   59 1   
    64   29   60 1   
    65   30   61 1   
@<TRIPOS>SUBSTRUCTURE
     1 3Q5         1 TEMP              0 ****  ****    0 ROOT
