@<TRIPOS>MOLECULE
3Q6
   62    53     1     0     0
SMALL
bcc


@<TRIPOS>ATOM
      1 C1         -4.2920    1.4960    5.1370 c1        1 3Q6     -0.092000
      2 C2         -3.6160    0.5630    4.3620 c1        1 3Q6     -0.092000
      3 C3         -1.5100    1.4380    5.1740 c1        1 3Q6     -0.092000
      4 C4         -1.1440    0.0230    2.2460 c1        1 3Q6     -0.294000
      5 C5         -3.5550    2.4230    5.9510 c1        1 3Q6     -0.084000
      6 C6         -2.2360    0.5260    4.3730 c1        1 3Q6     -0.084000
      7 C7         -2.1970    2.3870    5.9620 c1        1 3Q6     -0.084000
      8 C8         -1.5470   -0.3890    3.5020 c1        1 3Q6      0.104000
      9 C9         -0.4370   -0.8330    1.4400 c1        1 3Q6      0.167000
     10 C10        -3.9640    3.5160    6.7240 c1        1 3Q6      0.017000
     11 C11        -0.5340   -2.4830    3.1190 c1        1 3Q6      0.166000
     12 C12         0.7770   -1.3530   -4.4980 c1        1 3Q6      0.397000
     13 C13         2.3530   -0.6500   -1.7310 c3        1 3Q6     -0.184000
     14 C14         1.7260   -0.1970    0.6480 c3        1 3Q6     -0.050000
     15 C15         0.0650   -1.1520   -0.8780 c3        1 3Q6     -0.051000
     16 C16         2.5880    0.2100   -0.5370 c3        1 3Q6     -0.099000
     17 C17         0.9230   -0.7480   -2.0760 c3        1 3Q6      0.016000
     18 C18         2.2710    1.6810   -0.9090 c3        1 3Q6     -0.211000
     19 C19         3.1450   -1.9560   -7.2890 c3        1 3Q6     -0.232000
     20 C20         2.6480    0.0700   -5.9240 c3        1 3Q6     -0.232000
     21 C21         0.8860   -0.8980   -7.3800 c3        1 3Q6     -0.232000
     22 C22         2.0690   -1.2180   -6.4780 c3        1 3Q6      0.115000
     23 N23        -1.2450   -1.6260    3.9310 n2        1 3Q6     -0.234000
     24 N24        -0.1350   -2.0790    1.8770 n1        1 3Q6     -0.276000
     25 N25        -2.8720    4.1240    7.1910 n2        1 3Q6     -0.124000
     26 N26        -1.7560    3.4270    6.7210 n1        1 3Q6     -0.102000
     27 N27         0.3040   -0.3010    0.3000 n3        1 3Q6     -0.225000
     28 N28        -5.2390    3.7610    7.2280 n2        1 3Q6     -0.303500
     29 N29        -0.3400   -3.7840    3.6650 n2        1 3Q6     -0.303500
     30 N30         0.7540   -1.7560   -3.1490 n3        1 3Q6     -0.341000
     31 O31         0.0410   -0.5070   -4.8750 o         1 3Q6     -0.400000
     32 O32         1.6530   -2.0180   -5.4340 o         1 3Q6     -0.293000
     33 H1         -5.2810    1.5230    5.1300 ha        1 3Q6      0.141333
     34 H2         -4.1290   -0.0820    3.7950 ha        1 3Q6      0.141333
     35 H3         -0.5640    1.4140    5.1810 ha        1 3Q6      0.141333
     36 H4         -1.3630    0.9240    1.9320 ha        1 3Q6      0.162000
     37 H13         2.6910   -1.5410   -1.5460 hc        1 3Q6      0.087500
     38 H13A        2.8280   -0.2860   -2.4730 hc        1 3Q6      0.087500
     39 H14         2.0360   -1.0640    0.9830 h1        1 3Q6      0.083000
     40 H14A        1.8290    0.4710    1.3550 h1        1 3Q6      0.083000
     41 H15        -0.8780   -1.0870   -1.1270 h1        1 3Q6      0.097500
     42 H15A        0.2660   -2.0740   -0.6450 h1        1 3Q6      0.097500
     43 H16         3.5610    0.1430   -0.2720 hc        1 3Q6      0.092000
     44 H17         0.6040    0.1550   -2.4200 h1        1 3Q6      0.143000
     45 H18         1.3970    1.9160   -0.5800 hc        1 3Q6      0.081667
     46 H18A        2.2910    1.7850   -1.9140 hc        1 3Q6      0.081667
     47 H18B        2.9470    2.2770   -0.5040 hc        1 3Q6      0.081667
     48 H19         3.4370   -1.3860   -8.0500 hc        1 3Q6      0.091000
     49 H19A        2.7730   -2.8020   -7.6370 hc        1 3Q6      0.091000
     50 H19B        3.9030   -2.1480   -6.7190 hc        1 3Q6      0.091000
     51 H20         3.0050   -0.0960   -4.9970 hc        1 3Q6      0.091000
     52 H20A        1.9510    0.7530   -5.8880 hc        1 3Q6      0.091000
     53 H20B        3.3630    0.3730   -6.4940 hc        1 3Q6      0.091000
     54 H21         0.2960   -1.6630   -7.4210 hc        1 3Q6      0.091000
     55 H21A        1.2120   -0.6850   -8.2840 hc        1 3Q6      0.091000
     56 H21B        0.4160   -0.1570   -7.0320 hc        1 3Q6      0.091000
     57 HN28       -5.8450    4.2410    6.7300 hn        1 3Q6      0.201500
     58 HN2A       -5.4440    3.5130    8.0630 hn        1 3Q6      0.201500
     59 HN29        0.0590   -4.4370    3.1640 hn        1 3Q6      0.201500
     60 HN2B       -0.6390   -3.9740    4.5190 hn        1 3Q6      0.201500
     61 HN30        0.5490   -2.6080   -2.9380 hn        1 3Q6      0.228000
     62 HN25       -2.8560    4.9060    7.6990 DU        1 3Q6      0.274000
@<TRIPOS>BOND
     1    1    5 1   
     2    1   33 1   
     3    2    6 1   
     4    2   34 1   
     5    3    7 1   
     6    3   35 1   
     7    4    9 1   
     8    4   36 1   
     9    8   23 1   
    10    9   27 1   
    11   10   25 1   
    12   11   23 1   
    13   11   24 1   
    14   12   30 1   
    15   12   31 1   
    16   13   16 1   
    17   13   17 1   
    18   13   37 1   
    19   13   38 1   
    20   14   16 1   
    21   14   27 1   
    22   14   39 1   
    23   14   40 1   
    24   15   17 1   
    25   15   27 1   
    26   15   41 1   
    27   15   42 1   
    28   16   18 1   
    29   16   43 1   
    30   17   30 1   
    31   17   44 1   
    32   18   45 1   
    33   18   46 1   
    34   18   47 1   
    35   19   22 1   
    36   19   48 1   
    37   19   49 1   
    38   19   50 1   
    39   20   22 1   
    40   20   51 1   
    41   20   52 1   
    42   20   53 1   
    43   21   22 1   
    44   21   54 1   
    45   21   55 1   
    46   21   56 1   
    47   22   32 1   
    48   25   26 1   
    49   28   57 1   
    50   28   58 1   
    51   29   59 1   
    52   29   60 1   
    53   30   61 1   
@<TRIPOS>SUBSTRUCTURE
     1 3Q6         1 TEMP              0 ****  ****    0 ROOT
