@<TRIPOS>MOLECULE
3Q6
   65    68     1     0     0
SMALL
bcc


@<TRIPOS>ATOM
      1 C1         -0.0070    1.0370    0.3060 ca        1 3Q6     -0.122000
      2 C2          1.3570    0.8730    0.2850 ca        1 3Q6     -0.055000
      3 C3          1.3620   -0.4830    2.3280 ca        1 3Q6      0.021000
      4 C4          4.1890   -0.2220    0.0400 ca        1 3Q6     -0.338600
      5 C5         -0.7420    0.4410    1.3500 ca        1 3Q6     -0.011000
      6 C6          2.0430    0.1270    1.2940 cp        1 3Q6     -0.193500
      7 C7         -0.0500   -0.3430    2.3670 ca        1 3Q6     -0.112000
      8 C8          3.5180    0.0660    1.2420 cp        1 3Q6      0.552800
      9 C9          5.6250   -0.2300    0.0330 ca        1 3Q6      0.709200
     10 C10        -2.1110    0.3790    1.7490 cc        1 3Q6     -0.197100
     11 C11         5.5540    0.2920    2.2990 ca        1 3Q6      0.751900
     12 C12         4.8220   -2.6590   -4.7930 c         1 3Q6      0.647100
     13 C13         8.0430   -1.1590   -3.4070 c3        1 3Q6     -0.110400
     14 C14         7.7560   -0.0390   -1.1760 c3        1 3Q6      0.177800
     15 C15         6.0040   -1.5690   -1.9630 c3        1 3Q6      0.179800
     16 C16         8.3430    0.0840   -2.5860 c3        1 3Q6     -0.064700
     17 C17         6.5360   -1.4280   -3.4190 c3        1 3Q6      0.129500
     18 C18         7.8970    1.3530   -3.2780 c3        1 3Q6     -0.107100
     19 C19         4.1490   -3.7050   -8.1770 c3        1 3Q6     -0.133767
     20 C20         2.9280   -1.8640   -6.9640 c3        1 3Q6     -0.133767
     21 C21         2.7230   -4.2520   -6.1730 c3        1 3Q6     -0.133767
     22 C22         3.5890   -3.2180   -6.8520 c3        1 3Q6      0.212800
     23 N23         4.1950    0.3240    2.4020 nb        1 3Q6     -0.685000
     24 N24         6.3150    0.0200    1.1980 nb        1 3Q6     -0.731000
     25 N25        -2.1470   -0.4120    2.9250 na        1 3Q6      0.117800
     26 N26        -0.9680   -0.8330    3.2870 nc        1 3Q6     -0.119400
     27 N27         6.3380   -0.3960   -1.1720 nh        1 3Q6     -0.732300
     28 N28        -3.2510    0.9990    1.1270 n4        1 3Q6     -0.657400
     29 N29         6.3160    0.5920    3.5520 n4        1 3Q6     -0.819300
     30 N30         6.2270   -2.6610   -4.2300 n4        1 3Q6     -0.658800
     31 O31         3.8730   -2.3200   -4.0960 o         1 3Q6     -0.467000
     32 O32         4.8650   -3.0620   -6.0540 os        1 3Q6     -0.417900
     33 H1         -0.5140    1.6270   -0.4720 ha        1 3Q6      0.156000
     34 H2          1.9500    1.3420   -0.5180 ha        1 3Q6      0.159000
     35 H3          1.8710   -1.0620    3.1160 ha        1 3Q6      0.183000
     36 H4          3.6130   -0.4140   -0.8780 ha        1 3Q6      0.189000
     37 H13         8.5890   -2.0340   -2.9630 hc        1 3Q6      0.082200
     38 H13A        8.4240   -1.0040   -4.4530 hc        1 3Q6      0.082200
     39 H14         8.3540   -0.8030   -0.5990 h1        1 3Q6      0.077700
     40 H14A        7.8690    0.9630   -0.6690 h1        1 3Q6      0.077700
     41 H15         6.4580   -2.4960   -1.5000 h1        1 3Q6      0.074200
     42 H15A        4.8830   -1.6940   -1.9990 h1        1 3Q6      0.074200
     43 H16         9.4660    0.1360   -2.4560 hc        1 3Q6      0.107700
     44 H17         6.0040   -0.5660   -3.9260 hx        1 3Q6      0.131700
     45 H18         8.3440    1.4130   -4.3010 hc        1 3Q6      0.057367
     46 H18A        8.2420    2.2450   -2.6990 hc        1 3Q6      0.057367
     47 H18B        6.7860    1.4050   -3.3690 hc        1 3Q6      0.057367
     48 H19         4.8430   -2.9500   -8.6170 hc        1 3Q6      0.077700
     49 H19A        4.6960   -4.6700   -8.0470 hc        1 3Q6      0.077700
     50 H19B        3.2930   -3.8650   -8.8800 hc        1 3Q6      0.077700
     51 H20         3.6350   -1.1110   -7.3890 hc        1 3Q6      0.077700
     52 H20A        2.0490   -1.9490   -7.6530 hc        1 3Q6      0.077700
     53 H20B        2.5670   -1.5120   -5.9680 hc        1 3Q6      0.077700
     54 H21         1.8320   -4.4570   -6.8190 hc        1 3Q6      0.077700
     55 H21A        3.2820   -5.2090   -6.0340 hc        1 3Q6      0.077700
     56 H21B        2.3650   -3.8850   -5.1810 hc        1 3Q6      0.077700
     57 HN28       -2.9170    1.5110    0.2970 hn        1 3Q6      0.479467
     58 HN2A       -3.9380    0.2900    0.8310 hn        1 3Q6      0.479467
     59 HN29        5.6650    0.7280    4.3400 hn        1 3Q6      0.490467
     60 HN2B        6.9510   -0.1910    3.7630 hn        1 3Q6      0.490467
     61 HN30        6.3370   -3.5020   -3.6510 hn        1 3Q6      0.475300
     62 HN25       -2.9580   -0.6580    3.4670 hn        1 3Q6      0.372700
     63 H283       -3.7040    1.6640    1.7710 hn        1 3Q6      0.479467
     64 H293        6.8690    1.4490    3.4130 hn        1 3Q6      0.490467
     65 H302        6.8950   -2.7200   -5.0150 hn        1 3Q6      0.475300
@<TRIPOS>BOND
     1    1    2 ar  
     2    1    5 ar  
     3    1   33 1   
     4    2    6 ar  
     5    2   34 1   
     6    3    6 ar  
     7    3    7 ar  
     8    3   35 1   
     9    4    8 ar  
    10    4    9 ar  
    11    4   36 1   
    12    5    7 ar  
    13    5   10 2   
    14    6    8 1   
    15    7   26 2   
    16    8   23 ar  
    17    9   24 ar  
    18    9   27 1   
    19   10   25 1   
    20   10   28 1   
    21   11   23 ar  
    22   11   24 ar  
    23   11   29 1   
    24   12   30 1   
    25   12   31 2   
    26   12   32 1   
    27   13   16 1   
    28   13   17 1   
    29   13   37 1   
    30   13   38 1   
    31   14   16 1   
    32   14   27 1   
    33   14   39 1   
    34   14   40 1   
    35   15   17 1   
    36   15   27 1   
    37   15   41 1   
    38   15   42 1   
    39   16   18 1   
    40   16   43 1   
    41   17   30 1   
    42   17   44 1   
    43   18   45 1   
    44   18   46 1   
    45   18   47 1   
    46   19   22 1   
    47   19   48 1   
    48   19   49 1   
    49   19   50 1   
    50   20   22 1   
    51   20   51 1   
    52   20   52 1   
    53   20   53 1   
    54   21   22 1   
    55   21   54 1   
    56   21   55 1   
    57   21   56 1   
    58   22   32 1   
    59   25   26 1   
    60   25   62 1   
    61   28   57 1   
    62   28   58 1   
    63   28   63 1   
    64   29   59 1   
    65   29   60 1   
    66   29   64 1   
    67   30   61 1   
    68   30   65 1   
@<TRIPOS>SUBSTRUCTURE
     1 3Q6         1 TEMP              0 ****  ****    0 ROOT
