@<TRIPOS>MOLECULE
3Q6
   63    66     1     0     0
SMALL
bcc


@<TRIPOS>ATOM
      1 C1          0.8930    2.2460    2.0380 ca        1 3Q6     -0.053000
      2 C2          1.8630    1.4420    1.5020 ca        1 3Q6     -0.157000
      3 C3          0.3580   -0.4920    1.3580 ca        1 3Q6     -0.035000
      4 C4          3.5150   -0.1020   -0.4100 ca        1 3Q6     -0.403600
      5 C5         -0.3930    1.7120    2.2440 ca        1 3Q6     -0.178000
      6 C6          1.5930    0.0770    1.1590 cp        1 3Q6     -0.164500
      7 C7         -0.6800    0.3200    1.8990 ca        1 3Q6     -0.065000
      8 C8          2.6920   -0.7140    0.5690 cp        1 3Q6      0.563800
      9 C9          4.5590   -0.8820   -0.9600 ca        1 3Q6      0.650200
     10 C10        -1.6310    2.2180    2.7500 cc        1 3Q6      0.105900
     11 C11         3.9130   -2.6900    0.3700 ca        1 3Q6      0.892900
     12 C12         6.2290   -2.2650   -5.7720 c         1 3Q6      0.634100
     13 C13         7.5880    0.6090   -3.6420 c3        1 3Q6     -0.100400
     14 C14         6.2220    0.7890   -1.5260 c3        1 3Q6      0.166800
     15 C15         6.0640   -1.2340   -2.8530 c3        1 3Q6      0.177800
     16 C16         6.8940    1.5590   -2.6730 c3        1 3Q6     -0.059700
     17 C17         6.6100   -0.4750   -4.0950 c3        1 3Q6      0.113500
     18 C18         5.9170    2.4720   -3.3790 c3        1 3Q6     -0.102100
     19 C19         5.3800   -5.6420   -4.8300 c3        1 3Q6     -0.130433
     20 C20         5.3560   -4.7490   -7.1830 c3        1 3Q6     -0.130433
     21 C21         3.7530   -3.8300   -5.4660 c3        1 3Q6     -0.130433
     22 C22         5.1140   -4.4390   -5.7230 c3        1 3Q6      0.200800
     23 N23         2.8720   -1.9880    0.9700 nb        1 3Q6     -0.737000
     24 N24         4.7900   -2.1690   -0.5670 nb        1 3Q6     -0.820000
     25 N25        -2.5250    1.1340    2.6880 na        1 3Q6      0.021800
     26 N26        -1.9910    0.0250    2.1790 nc        1 3Q6     -0.268400
     27 N27         5.3630   -0.2930   -1.9980 nh        1 3Q6     -0.726300
     28 N28        -1.9480    3.5150    3.1350 nv        1 3Q6     -0.784600
     29 N29         4.0490   -4.0430    0.6970 nv        1 3Q6     -0.921500
     30 N30         7.2640   -1.4420   -5.0530 ny        1 3Q6     -0.648800
     31 O31         5.6010   -1.7920   -6.7090 o         1 3Q6     -0.434000
     32 O32         6.1680   -3.4890   -5.2450 os        1 3Q6     -0.419900
     33 H1          1.1000    3.2930    2.3050 ha        1 3Q6      0.132000
     34 H2          2.8790    1.8300    1.3400 ha        1 3Q6      0.128000
     35 H3          0.1480   -1.5440    1.1110 ha        1 3Q6      0.160000
     36 H4          3.3210    0.9270   -0.7330 ha        1 3Q6      0.168000
     37 H13         8.4680    0.1410   -3.1250 hc        1 3Q6      0.064200
     38 H13A        7.9660    1.1930   -4.5220 hc        1 3Q6      0.064200
     39 H14         5.5790    1.5040   -0.9380 h1        1 3Q6      0.065700
     40 H14A        7.0300    0.3980   -0.8410 h1        1 3Q6      0.065700
     41 H15         6.9270   -1.7390   -2.3290 h1        1 3Q6      0.066700
     42 H15A        5.3380   -2.0270   -3.1910 h1        1 3Q6      0.066700
     43 H16         7.6970    2.1990   -2.2040 hc        1 3Q6      0.082700
     44 H17         5.7530    0.0030   -4.6640 hx        1 3Q6      0.132700
     45 H18         5.0490    1.9030   -3.7900 hc        1 3Q6      0.051367
     46 H18A        6.4220    3.0120   -4.2170 hc        1 3Q6      0.051367
     47 H18B        5.5220    3.2320   -2.6610 hc        1 3Q6      0.051367
     48 H19         6.4180   -6.0230   -4.9820 hc        1 3Q6      0.072811
     49 H19A        4.6520   -6.4460   -5.1000 hc        1 3Q6      0.072811
     50 H19B        5.2450   -5.3720   -3.7560 hc        1 3Q6      0.072811
     51 H20         4.6520   -5.5570   -7.5030 hc        1 3Q6      0.072811
     52 H20A        5.1730   -3.8480   -7.8190 hc        1 3Q6      0.072811
     53 H20B        6.4020   -5.1040   -7.3430 hc        1 3Q6      0.072811
     54 H21         3.5720   -2.9580   -6.1420 hc        1 3Q6      0.072811
     55 H21A        3.6660   -3.4970   -4.4040 hc        1 3Q6      0.072811
     56 H21B        2.9670   -4.6010   -5.6640 hc        1 3Q6      0.072811
     57 HN28       -2.6890    3.5920    3.8000 hn        1 3Q6      0.403300
     58 HN2A       -1.1360    4.0350    3.3970 hn        1 3Q6      0.403300
     59 HN29        3.5690   -4.3500    1.5130 hn        1 3Q6      0.431300
     60 HN2B        4.9380   -4.4550    0.5330 hn        1 3Q6      0.431300
     61 HN30        7.7960   -0.9080   -5.7510 hn        1 3Q6      0.467300
     62 HN25       -3.4980    1.1580    2.9010 hn        1 3Q6      0.328700
     63 H302        7.8980   -2.0630   -4.5360 hn        1 3Q6      0.467300
@<TRIPOS>BOND
     1    1    2 ar  
     2    1    5 ar  
     3    1   33 1   
     4    2    6 ar  
     5    2   34 1   
     6    3    6 ar  
     7    3    7 ar  
     8    3   35 1   
     9    4    8 ar  
    10    4    9 ar  
    11    4   36 1   
    12    5    7 ar  
    13    5   10 2   
    14    6    8 1   
    15    7   26 2   
    16    8   23 ar  
    17    9   24 ar  
    18    9   27 1   
    19   10   25 1   
    20   10   28 1   
    21   11   23 ar  
    22   11   24 ar  
    23   11   29 1   
    24   12   30 1   
    25   12   31 2   
    26   12   32 1   
    27   13   16 1   
    28   13   17 1   
    29   13   37 1   
    30   13   38 1   
    31   14   16 1   
    32   14   27 1   
    33   14   39 1   
    34   14   40 1   
    35   15   17 1   
    36   15   27 1   
    37   15   41 1   
    38   15   42 1   
    39   16   18 1   
    40   16   43 1   
    41   17   30 1   
    42   17   44 1   
    43   18   45 1   
    44   18   46 1   
    45   18   47 1   
    46   19   22 1   
    47   19   48 1   
    48   19   49 1   
    49   19   50 1   
    50   20   22 1   
    51   20   51 1   
    52   20   52 1   
    53   20   53 1   
    54   21   22 1   
    55   21   54 1   
    56   21   55 1   
    57   21   56 1   
    58   22   32 1   
    59   25   26 1   
    60   25   62 1   
    61   28   57 1   
    62   28   58 1   
    63   29   59 1   
    64   29   60 1   
    65   30   61 1   
    66   30   63 1   
@<TRIPOS>SUBSTRUCTURE
     1 3Q6         1 TEMP              0 ****  ****    0 ROOT
