@<TRIPOS>MOLECULE
3Q6
   63    66     1     0     0
SMALL
bcc


@<TRIPOS>ATOM
      1 C1          0.9180    2.1070    2.1680 ca        1 3Q6     -0.053000
      2 C2          1.8790    1.3150    1.6000 ca        1 3Q6     -0.157000
      3 C3          0.3470   -0.5890    1.3590 ca        1 3Q6     -0.035000
      4 C4          3.5180   -0.1620   -0.3760 ca        1 3Q6     -0.403600
      5 C5         -0.3770    1.5830    2.3440 ca        1 3Q6     -0.178000
      6 C6          1.5920   -0.0290    1.1920 cp        1 3Q6     -0.164500
      7 C7         -0.6820    0.2120    1.9340 ca        1 3Q6     -0.065000
      8 C8          2.6810   -0.8070    0.5700 cp        1 3Q6      0.563800
      9 C9          4.5540   -0.9300   -0.9570 ca        1 3Q6      0.650200
     10 C10        -1.6090    2.0810    2.8690 cc        1 3Q6      0.105900
     11 C11         3.8760   -2.7890    0.2840 ca        1 3Q6      0.892900
     12 C12         6.2280   -2.1080   -5.8220 c         1 3Q6      0.634100
     13 C13         7.6170    0.6420   -3.5530 c3        1 3Q6     -0.100400
     14 C14         6.2430    0.7420   -1.4370 c3        1 3Q6      0.166800
     15 C15         6.0630   -1.2140   -2.8590 c3        1 3Q6      0.177800
     16 C16         6.9310    1.5550   -2.5430 c3        1 3Q6     -0.059700
     17 C17         6.6260   -0.4050   -4.0610 c3        1 3Q6      0.113500
     18 C18         5.9700    2.5140   -3.2100 c3        1 3Q6     -0.102100
     19 C19         5.3280   -5.5150   -5.0470 c3        1 3Q6     -0.130433
     20 C20         5.3290   -4.5100   -7.3550 c3        1 3Q6     -0.130433
     21 C21         3.7300   -3.6530   -5.6030 c3        1 3Q6     -0.130433
     22 C22         5.0840   -4.2670   -5.8820 c3        1 3Q6      0.200800
     23 N23         2.8420   -2.1010    0.9120 nb        1 3Q6     -0.737000
     24 N24         4.7640   -2.2370   -0.6250 nb        1 3Q6     -0.820000
     25 N25        -2.5180    1.0140    2.7530 na        1 3Q6      0.021800
     26 N26        -1.9970   -0.0780    2.1950 nc        1 3Q6     -0.268400
     27 N27         5.3710   -0.3040   -1.9640 nh        1 3Q6     -0.726300
     28 N28        -1.9100    3.3640    3.3130 nh        1 3Q6     -0.784600
     29 N29         3.9900   -4.1580    0.5460 nh        1 3Q6     -0.921500
     30 N30         7.2710   -1.3360   -5.0600 n4        1 3Q6     -0.648800
     31 O31         5.6110   -1.5830   -6.7380 o         1 3Q6     -0.434000
     32 O32         6.1480   -3.3560   -5.3540 os        1 3Q6     -0.419900
     33 H1          1.1380    3.1370    2.4850 ha        1 3Q6      0.132000
     34 H2          2.9010    1.6960    1.4600 ha        1 3Q6      0.128000
     35 H3          0.1240   -1.6250    1.0630 ha        1 3Q6      0.160000
     36 H4          3.3400    0.8840   -0.6510 ha        1 3Q6      0.168000
     37 H13         8.0080    1.2610   -4.4030 hc        1 3Q6      0.064200
     38 H13A        8.4880    0.1380   -3.0550 hc        1 3Q6      0.064200
     39 H14         7.0420    0.3070   -0.7680 h1        1 3Q6      0.065700
     40 H14A        5.6070    1.4370   -0.8190 h1        1 3Q6      0.065700
     41 H15         6.9160   -1.7550   -2.3550 h1        1 3Q6      0.066700
     42 H15A        5.3270   -1.9800   -3.2360 h1        1 3Q6      0.066700
     43 H16         7.7410    2.1610   -2.0420 hc        1 3Q6      0.082700
     44 H17         5.7790    0.1100   -4.6110 hx        1 3Q6      0.132700
     45 H18         5.0970    1.9770   -3.6510 hc        1 3Q6      0.051367
     46 H18A        6.4870    3.0850   -4.0190 hc        1 3Q6      0.051367
     47 H18B        5.5820    3.2450   -2.4580 hc        1 3Q6      0.051367
     48 H19         6.3620   -5.9020   -5.2120 hc        1 3Q6      0.072811
     49 H19A        4.5910   -6.2950   -5.3580 hc        1 3Q6      0.072811
     50 H19B        5.1910   -5.2940   -3.9610 hc        1 3Q6      0.072811
     51 H20         5.1620   -3.5780   -7.9480 hc        1 3Q6      0.072811
     52 H20A        4.6160   -5.2920   -7.7160 hc        1 3Q6      0.072811
     53 H20B        6.3720   -4.8720   -7.5260 hc        1 3Q6      0.072811
     54 H21         3.5640   -2.7470   -6.2370 hc        1 3Q6      0.072811
     55 H21A        3.6420   -3.3690   -4.5260 hc        1 3Q6      0.072811
     56 H21B        2.9350   -4.4020   -5.8410 hc        1 3Q6      0.072811
     57 HN28       -2.6530    3.4200    3.9780 hn        1 3Q6      0.403300
     58 HN2A       -1.0920    3.8590    3.6020 hn        1 3Q6      0.403300
     59 HN29        3.5020   -4.4960    1.3460 hn        1 3Q6      0.431300
     60 HN2B        4.8740   -4.5740    0.3670 hn        1 3Q6      0.431300
     61 HN30        7.8140   -0.7780   -5.7300 hn        1 3Q6      0.467300
     62 HN25       -3.4910    1.0430    2.9630 hn        1 3Q6      0.328700
     63 H302        7.8940   -1.9900   -4.5710 hn        1 3Q6      0.467300
@<TRIPOS>BOND
     1    1    2 ar  
     2    1    5 ar  
     3    1   33 1   
     4    2    6 ar  
     5    2   34 1   
     6    3    6 ar  
     7    3    7 ar  
     8    3   35 1   
     9    4    8 ar  
    10    4    9 ar  
    11    4   36 1   
    12    5    7 ar  
    13    5   10 2   
    14    6    8 1   
    15    7   26 2   
    16    8   23 ar  
    17    9   24 ar  
    18    9   27 1   
    19   10   25 1   
    20   10   28 1   
    21   11   23 ar  
    22   11   24 ar  
    23   11   29 1   
    24   12   30 1   
    25   12   31 2   
    26   12   32 1   
    27   13   16 1   
    28   13   17 1   
    29   13   37 1   
    30   13   38 1   
    31   14   16 1   
    32   14   27 1   
    33   14   39 1   
    34   14   40 1   
    35   15   17 1   
    36   15   27 1   
    37   15   41 1   
    38   15   42 1   
    39   16   18 1   
    40   16   43 1   
    41   17   30 1   
    42   17   44 1   
    43   18   45 1   
    44   18   46 1   
    45   18   47 1   
    46   19   22 1   
    47   19   48 1   
    48   19   49 1   
    49   19   50 1   
    50   20   22 1   
    51   20   51 1   
    52   20   52 1   
    53   20   53 1   
    54   21   22 1   
    55   21   54 1   
    56   21   55 1   
    57   21   56 1   
    58   22   32 1   
    59   25   26 1   
    60   25   62 1   
    61   28   57 1   
    62   28   58 1   
    63   29   59 1   
    64   29   60 1   
    65   30   61 1   
    66   30   63 1   
@<TRIPOS>SUBSTRUCTURE
     1 3Q6         1 TEMP              0 ****  ****    0 ROOT
