@<TRIPOS>MOLECULE
3Q6
   62    65     1     0     0
SMALL
bcc


@<TRIPOS>ATOM
      1 C1         -3.7160   -1.3910   -1.4840 ca        1 3Q6     -0.075000
      2 C2         -2.9110   -0.3140   -1.2280 ca        1 3Q6     -0.136000
      3 C3         -4.0500    0.1980    0.8840 ca        1 3Q6     -0.050000
      4 C4         -0.7760    1.4100   -0.1110 ca        1 3Q6     -0.425600
      5 C5         -4.7230   -1.7210   -0.5550 ca        1 3Q6     -0.167000
      6 C6         -3.0740    0.4760   -0.0420 cp        1 3Q6     -0.144500
      7 C7         -4.9030   -0.9200    0.6550 ca        1 3Q6     -0.064000
      8 C8         -2.1440    1.6070    0.1610 cp        1 3Q6      0.541800
      9 C9          0.1100    2.5060    0.1100 ca        1 3Q6      0.686200
     10 C10        -5.7260   -2.7330   -0.4670 cc        1 3Q6      0.071900
     11 C11        -1.7200    3.8110    0.7670 ca        1 3Q6      0.884900
     12 C12         3.8840   -1.5170    0.0200 c         1 3Q6      0.741100
     13 C13         4.3880    2.1460   -0.2260 c3        1 3Q6     -0.080400
     14 C14         2.2990    3.5540   -0.2780 c3        1 3Q6      0.189800
     15 C15         2.1420    1.2360    0.4470 c3        1 3Q6      0.158800
     16 C16         3.6820    3.3100   -0.8980 c3        1 3Q6     -0.065700
     17 C17         3.5030    0.8910   -0.2270 c3        1 3Q6      0.094700
     18 C18         3.5940    3.1340   -2.3970 c3        1 3Q6     -0.092100
     19 C19         4.8770   -4.4890    1.8820 c3        1 3Q6     -0.114100
     20 C20         5.1840   -4.1130   -0.5730 c3        1 3Q6     -0.114100
     21 C21         2.8730   -4.3430    0.3900 c3        1 3Q6     -0.114100
     22 C22         4.2900   -3.8460    0.6260 c3        1 3Q6      0.186800
     23 N23        -2.6400    2.7840    0.6070 nb        1 3Q6     -0.760000
     24 N24        -0.3530    3.7050    0.5690 nb        1 3Q6     -0.803000
     25 N25        -6.4040   -2.4790    0.7380 na        1 3Q6      0.031800
     26 N26        -5.9410   -1.4230    1.4020 nc        1 3Q6     -0.277400
     27 N27         1.4860    2.3470   -0.2220 nh        1 3Q6     -0.732300
     28 N28        -5.9540   -3.8350   -1.2960 nh        1 3Q6     -0.777600
     29 N29        -2.2200    5.0760    1.1060 nh        1 3Q6     -0.924500
     30 N30         4.1660   -0.2210    0.4230 n         1 3Q6     -0.529900
     31 O31         3.3770   -1.8760   -1.0550 o         1 3Q6     -0.587000
     32 O32         4.2850   -2.4340    0.9630 os        1 3Q6     -0.453900
     33 H1         -3.5900   -1.9970   -2.3920 ha        1 3Q6      0.128000
     34 H2         -2.1220   -0.0270   -1.9390 ha        1 3Q6      0.140000
     35 H3         -4.1890    0.8090    1.7890 ha        1 3Q6      0.158000
     36 H4         -0.4190    0.4460   -0.4920 ha        1 3Q6      0.163000
     37 H13         5.3490    1.9310   -0.7610 hc        1 3Q6      0.049700
     38 H13A        4.6400    2.4310    0.8300 hc        1 3Q6      0.049700
     39 H14         2.4460    3.9920    0.7520 h1        1 3Q6      0.052700
     40 H14A        1.7550    4.3140   -0.9080 h1        1 3Q6      0.052700
     41 H15         1.4750    0.3300    0.3950 h1        1 3Q6      0.047200
     42 H15A        2.3250    1.4740    1.5360 h1        1 3Q6      0.047200
     43 H16         4.2880    4.2400   -0.6920 hc        1 3Q6      0.053700
     44 H17         3.3040    0.5830   -1.2990 h1        1 3Q6      0.103700
     45 H18         2.9460    2.2640   -2.6630 hc        1 3Q6      0.041033
     46 H18A        3.1600    4.0500   -2.8660 hc        1 3Q6      0.041033
     47 H18B        4.6110    2.9620   -2.8270 hc        1 3Q6      0.041033
     48 H19         5.9050   -4.1000    2.0680 hc        1 3Q6      0.051922
     49 H19A        4.2400   -4.2560    2.7670 hc        1 3Q6      0.051922
     50 H19B        4.9200   -5.5940    1.7380 hc        1 3Q6      0.051922
     51 H20         4.7320   -3.6830   -1.5000 hc        1 3Q6      0.051922
     52 H20A        6.1870   -3.6520   -0.4130 hc        1 3Q6      0.051922
     53 H20B        5.3060   -5.2140   -0.7060 hc        1 3Q6      0.051922
     54 H21         2.8800   -5.4550    0.3050 hc        1 3Q6      0.051922
     55 H21A        2.2170   -4.0480    1.2430 hc        1 3Q6      0.051922
     56 H21B        2.4580   -3.9090   -0.5510 hc        1 3Q6      0.051922
     57 HN28       -5.3800   -3.7840   -2.1140 hn        1 3Q6      0.390800
     58 HN2A       -6.9180   -3.9660   -1.5270 hn        1 3Q6      0.390800
     59 HN29       -1.5650    5.7210    1.4850 hn        1 3Q6      0.422300
     60 HN2B       -3.1290    5.0940    1.5080 hn        1 3Q6      0.422300
     61 HN30        4.4380   -0.0930    1.3720 hn        1 3Q6      0.313500
     62 HN25       -7.1570   -3.0090    1.1130 hn        1 3Q6      0.323700
@<TRIPOS>BOND
     1    1    2 ar  
     2    1    5 ar  
     3    1   33 1   
     4    2    6 ar  
     5    2   34 1   
     6    3    6 ar  
     7    3    7 ar  
     8    3   35 1   
     9    4    8 ar  
    10    4    9 ar  
    11    4   36 1   
    12    5    7 ar  
    13    5   10 2   
    14    6    8 1   
    15    7   26 2   
    16    8   23 ar  
    17    9   24 ar  
    18    9   27 1   
    19   10   25 1   
    20   10   28 1   
    21   11   23 ar  
    22   11   24 ar  
    23   11   29 1   
    24   12   30 1   
    25   12   31 2   
    26   12   32 1   
    27   13   16 1   
    28   13   17 1   
    29   13   37 1   
    30   13   38 1   
    31   14   16 1   
    32   14   27 1   
    33   14   39 1   
    34   14   40 1   
    35   15   17 1   
    36   15   27 1   
    37   15   41 1   
    38   15   42 1   
    39   16   18 1   
    40   16   43 1   
    41   17   30 1   
    42   17   44 1   
    43   18   45 1   
    44   18   46 1   
    45   18   47 1   
    46   19   22 1   
    47   19   48 1   
    48   19   49 1   
    49   19   50 1   
    50   20   22 1   
    51   20   51 1   
    52   20   52 1   
    53   20   53 1   
    54   21   22 1   
    55   21   54 1   
    56   21   55 1   
    57   21   56 1   
    58   22   32 1   
    59   25   26 1   
    60   25   62 1   
    61   28   57 1   
    62   28   58 1   
    63   29   59 1   
    64   29   60 1   
    65   30   61 1   
@<TRIPOS>SUBSTRUCTURE
     1 3Q6         1 TEMP              0 ****  ****    0 ROOT
