@<TRIPOS>MOLECULE
3QA
   53    51     1     0     0
SMALL
bcc


@<TRIPOS>ATOM
      1 C5'        -0.5370    1.5970    1.4320 c3        1 3QA     -0.202000
      2 C4'         1.4630   -2.2620   -0.8570 c2        1 3QA     -0.304000
      3 C3'         2.0370   -2.2580    0.3970 c2        1 3QA      0.232000
      4 O3'         2.3130   -3.4540    0.9680 oh        1 3QA     -0.223000
      5 C2'         2.3430   -1.0020    1.1740 c3        1 3QA     -0.085000
      6 C1'         1.1780   -1.0420   -1.4650 c1        1 3QA     -0.207000
      7 C8          4.1590    3.5540    0.3970 c3        1 3QA     -0.112000
      8 N7          5.2880    4.1060   -0.3580 n2        1 3QA     -0.126000
      9 C5          6.0520    3.1100   -0.7330 c2        1 3QA     -0.042000
     10 C6          7.3060    3.2200   -1.5510 c2        1 3QA      0.139000
     11 N1          7.5120    2.5450   -2.6400 n2        1 3QA     -0.285000
     12 C2          6.6320   -0.4740   -0.6640 c1        1 3QA      0.178000
     13 N3          6.1260    0.5850   -0.4970 n2        1 3QA     -0.283000
     14 C4          5.5200    1.7770   -0.2620 c2        1 3QA      0.053000
     15 N1'         3.2830   -0.1430    0.4800 n7        1 3QA     -0.290000
     16 C6'        -0.0410    1.7810    0.0290 c3        1 3QA     -0.294000
     17 S6'        -1.4220    2.2560   -0.9740 ss        1 3QA      0.059000
     18 C20        -0.9330    1.7310   -2.5870 c3        1 3QA     -0.325000
     19 C21        -2.1660    1.2600   -3.3290 c3        1 3QA     -0.011000
     20 O22        -1.8550    0.8740   -4.6560 oh        1 3QA     -0.345000
     21 C10         3.4320    1.1460    1.1370 c3        1 3QA     -0.027000
     22 C9          4.3630    2.0490    0.4300 c2        1 3QA     -0.141000
     23 C23        -4.9260   -0.2950   -5.3110 c2        1 3QA     -0.357000
     24 C24        -4.4230   -1.1990   -6.1580 c2        1 3QA     -0.001000
     25 O25        -3.0870   -1.4070   -6.3820 oh        1 3QA     -0.278000
     26 H1          0.3250    1.4520    2.1310 hc        1 3QA      0.080333
     27 H2         -1.1140    2.4920    1.7730 hc        1 3QA      0.080333
     28 H3         -1.2020    0.7020    1.5050 hc        1 3QA      0.080333
     29 H4          1.2580   -3.2430   -1.3220 ha        1 3QA      0.122000
     30 H5          2.8090   -3.3210    1.7940 ho        1 3QA      0.241000
     31 H6          2.7920   -1.2630    2.1770 h1        1 3QA      0.097500
     32 H7          1.3460   -0.4940    1.3660 h1        1 3QA      0.097500
     33 H8          2.9880   -0.0190   -0.4780 hn        1 3QA      0.198000
     34 H9          0.8090   -1.0620   -2.4990 ha        1 3QA      0.067000
     35 H10         4.1560    3.9920    1.4310 h1        1 3QA      0.146000
     36 H11         3.1970    3.8230   -0.1180 h1        1 3QA      0.146000
     37 H12         6.7890    1.9060   -2.8890 hn        1 3QA      0.159000
     38 H14         0.4320    0.8370   -0.3630 h1        1 3QA      0.118000
     39 H15         0.7320    2.5880   -0.0100 h1        1 3QA      0.118000
     40 H16        -0.1790    0.9060   -2.5290 h1        1 3QA      0.116500
     41 H17        -0.4600    2.5840   -3.1330 h1        1 3QA      0.116500
     42 H18        -2.5910    0.3310   -2.8610 h1        1 3QA      0.099000
     43 H19        -2.9520    2.0640   -3.3400 h1        1 3QA      0.099000
     44 H20         3.8360    0.9600    2.1770 h1        1 3QA      0.088500
     45 H21         2.4370    1.6790    1.2560 h1        1 3QA      0.088500
     46 H22         7.9000    4.8810   -0.5550 hn        1 3QA      0.202500
     47 H23         9.0670    4.2520   -1.5670 hn        1 3QA      0.202500
     48 H24        -1.4830    1.6420   -5.1050 ho        1 3QA      0.205000
     49 H25        -4.2850    0.3680   -4.7150 ha        1 3QA      0.123500
     50 H26        -6.0050   -0.1750   -5.1730 ha        1 3QA      0.123500
     51 H27        -5.0110   -1.8910   -6.7830 h4        1 3QA      0.153000
     52 H28        -2.5730   -0.7990   -5.8260 ho        1 3QA      0.232000
     53 N6          8.2780    4.0660   -0.9850 n8        1 3QA     -0.325000
@<TRIPOS>BOND
     1    1   16 1   
     2    1   26 1   
     3    1   27 1   
     4    1   28 1   
     5    2    3 1   
     6    2    6 1   
     7    2   29 1   
     8    3    4 1   
     9    3    5 1   
    10    4   30 1   
    11    5   15 1   
    12    5   31 1   
    13    5   32 1   
    14    6   34 1   
    15    7    8 1   
    16    7   22 1   
    17    7   35 1   
    18    7   36 1   
    19    8    9 1   
    20    9   10 1   
    21    9   14 1   
    22   10   11 1   
    23   10   53 1   
    24   11   37 1   
    25   12   13 1   
    26   13   14 1   
    27   14   22 1   
    28   15   21 1   
    29   15   33 1   
    30   16   17 1   
    31   16   38 1   
    32   16   39 1   
    33   17   18 1   
    34   18   19 1   
    35   18   40 1   
    36   18   41 1   
    37   19   20 1   
    38   19   42 1   
    39   19   43 1   
    40   20   48 1   
    41   21   22 1   
    42   21   44 1   
    43   21   45 1   
    44   23   24 1   
    45   23   49 1   
    46   23   50 1   
    47   24   25 1   
    48   24   51 1   
    49   25   52 1   
    50   46   53 1   
    51   47   53 1   
@<TRIPOS>SUBSTRUCTURE
     1 3QA         1 TEMP              0 ****  ****    0 ROOT
