@<TRIPOS>MOLECULE
3QA
   53    55     1     0     0
SMALL
bcc


@<TRIPOS>ATOM
      1 C5'         0.1850   -0.1930   -0.2780 c3        1 3QA     -0.066400
      2 C4'         1.6040   -0.7190   -0.2110 c3        1 3QA     -0.119700
      3 C3'         2.1960   -0.6810    1.2120 c3        1 3QA      0.120100
      4 O3'         1.4290    0.0580    2.1390 oh        1 3QA     -0.591800
      5 C2'         3.6120   -0.0760    1.0390 c3        1 3QA      0.117800
      6 C1'         2.5850    0.0930   -1.0860 c3        1 3QA      0.153800
      7 C8          5.4380    2.7170    1.6570 cc        1 3QA     -0.086100
      8 N7          6.7700    3.0900    1.8430 na        1 3QA     -0.162400
      9 C5          7.3870    3.1060    0.5920 ca        1 3QA     -0.324800
     10 C6          8.7170    3.4220    0.1670 ca        1 3QA      0.650200
     11 N1          9.0200    3.3160   -1.1570 nb        1 3QA     -0.749000
     12 C2          8.0220    2.9210   -2.0040 ca        1 3QA      0.636900
     13 N3          6.7460    2.5850   -1.7230 nb        1 3QA     -0.669000
     14 C4          6.4220    2.6740   -0.4090 ca        1 3QA      0.465100
     15 N1'         3.7340    0.5250   -0.2850 n3        1 3QA     -0.708600
     16 C6'        -0.4730   -0.5540   -1.5850 c3        1 3QA     -0.006300
     17 S6'        -2.0520    0.2450   -1.6180 ss        1 3QA     -0.304200
     18 C20        -2.6850   -0.3120   -3.1720 c3        1 3QA     -0.019300
     19 C21        -4.0890    0.2340   -3.3070 c3        1 3QA      0.144400
     20 O22        -4.5600   -0.1820   -4.5900 os        1 3QA     -0.437600
     21 C10         3.9110    1.9740   -0.2850 c3        1 3QA      0.239000
     22 C9          5.1860    2.4250    0.3140 cd        1 3QA     -0.251000
     23 C23        -5.8810    0.2840   -4.8570 c3        1 3QA      0.086400
     24 C24        -6.2560   -0.2720   -6.2260 c3        1 3QA      0.132400
     25 O25        -6.3790   -1.6790   -6.2010 oh        1 3QA     -0.598800
     26 H1          0.1840    0.9230   -0.1510 hc        1 3QA      0.062700
     27 H2         -0.4020   -0.6250    0.5780 hc        1 3QA      0.062700
     28 H3          1.6090   -1.7870   -0.5610 hc        1 3QA      0.066700
     29 H4          2.2450   -1.7080    1.6630 h1        1 3QA      0.086700
     30 H5          1.3260    0.9510    1.7880 ho        1 3QA      0.398000
     31 H6          3.8210    0.6570    1.8640 h1        1 3QA      0.058200
     32 H7          4.3760   -0.8980    1.0990 h1        1 3QA      0.058200
     33 H8          2.0530    0.9580   -1.5710 h1        1 3QA      0.052700
     34 H9          2.9930   -0.5590   -1.9070 h1        1 3QA      0.052700
     35 H10         4.7550    2.6690    2.5090 h4        1 3QA      0.171000
     36 H11         7.1250    3.5440    2.6430 hn        1 3QA      0.301700
     37 H12         8.3200    2.8620   -3.0720 h5        1 3QA      0.052100
     38 H14         0.1510   -0.2120   -2.4470 h1        1 3QA      0.062700
     39 H15        -0.5970   -1.6610   -1.6740 h1        1 3QA      0.062700
     40 H16        -2.0490    0.0530   -4.0140 h1        1 3QA      0.072700
     41 H17        -2.7000   -1.4280   -3.2190 h1        1 3QA      0.072700
     42 H18        -4.7630   -0.1780   -2.5090 h1        1 3QA      0.043700
     43 H19        -4.0930    1.3570   -3.2530 h1        1 3QA      0.043700
     44 H20         3.8950    2.3080   -1.3640 h1        1 3QA      0.043700
     45 H21         3.0610    2.4970    0.2510 h1        1 3QA      0.043700
     46 H22         9.6630    3.3710    1.9420 hn        1 3QA      0.397800
     47 H23        10.5620    4.0700    0.7340 hn        1 3QA      0.397800
     48 H24        -6.5820   -0.0940   -4.0670 h1        1 3QA      0.040200
     49 H25        -5.8940    1.4050   -4.8680 h1        1 3QA      0.040200
     50 H26        -7.2710    0.1050   -6.5240 h1        1 3QA      0.054200
     51 H27        -5.4920    0.0360   -6.9880 h1        1 3QA      0.054200
     52 H28        -5.5360   -2.0290   -5.8840 ho        1 3QA      0.412000
     53 N6          9.6470    3.9080    1.1030 nh        1 3QA     -0.916500
@<TRIPOS>BOND
     1    1    2 1   
     2    1   16 1   
     3    1   26 1   
     4    1   27 1   
     5    2    3 1   
     6    2    6 1   
     7    2   28 1   
     8    3    4 1   
     9    3    5 1   
    10    3   29 1   
    11    4   30 1   
    12    5   15 1   
    13    5   31 1   
    14    5   32 1   
    15    6   15 1   
    16    6   33 1   
    17    6   34 1   
    18    7    8 1   
    19    7   22 2   
    20    7   35 1   
    21    8    9 1   
    22    8   36 1   
    23    9   10 ar  
    24    9   14 ar  
    25   10   11 ar  
    26   10   53 1   
    27   11   12 ar  
    28   12   13 ar  
    29   12   37 1   
    30   13   14 ar  
    31   14   22 1   
    32   15   21 1   
    33   16   17 1   
    34   16   38 1   
    35   16   39 1   
    36   17   18 1   
    37   18   19 1   
    38   18   40 1   
    39   18   41 1   
    40   19   20 1   
    41   19   42 1   
    42   19   43 1   
    43   20   23 1   
    44   21   22 1   
    45   21   44 1   
    46   21   45 1   
    47   23   24 1   
    48   23   48 1   
    49   23   49 1   
    50   24   25 1   
    51   24   50 1   
    52   24   51 1   
    53   25   52 1   
    54   46   53 1   
    55   47   53 1   
@<TRIPOS>SUBSTRUCTURE
     1 3QA         1 TEMP              0 ****  ****    0 ROOT
