@<TRIPOS>MOLECULE
3QB
   62    59     1     0     0
SMALL
bcc


@<TRIPOS>ATOM
      1 C4         -2.0680    0.0100   -0.2480 c3        1 3QB     -0.005000
      2 C14        -0.5750    2.1320   -6.3930 c3        1 3QB     -0.071000
      3 C5          2.6790   -0.6480    1.4900 c1        1 3QB     -1.016000
      4 C6          1.4890   -2.9750    1.2330 c3        1 3QB     -0.709000
      5 C11        -0.9020    1.9420   -4.0040 c3        1 3QB     -0.078000
      6 C7         -1.8130    1.1430   -1.2860 c3        1 3QB     -0.013000
      7 C8         -2.4320    2.4510   -0.7190 c3        1 3QB      0.005000
      8 C9         -1.5670    3.1510    0.3070 c3        1 3QB     -0.247000
      9 C12        -1.2560    0.5760   -4.6200 c3        1 3QB     -0.166000
     10 C13        -1.1780    0.7370   -6.1410 c3        1 3QB     -0.112000
     11 N1         -0.4170    1.2410   -1.6340 n         1 3QB     -0.357000
     12 N2         -0.3190    2.7600   -5.0900 n3        1 3QB     -0.060000
     13 C3         -1.4440   -1.3260   -0.6640 c3        1 3QB     -0.060000
     14 C18         2.0220    6.6250   -6.6190 c3        1 3QB     -0.313000
     15 C16        -2.5270    0.5930   -6.8020 c3        1 3QB     -0.220000
     16 C15         0.3850    3.8320   -4.9240 c2        1 3QB     -0.100000
     17 O8         -2.6580    3.2950   -1.8480 oh        1 3QB     -0.371000
     18 O5         -3.4650   -0.1290   -0.0700 oh        1 3QB     -0.314000
     19 O7         -1.9090   -1.7220   -1.9400 oh        1 3QB     -0.325000
     20 C2          1.5460    1.3080    0.5710 c1        1 3QB     -0.005000
     21 O6          1.3160    2.4620    1.0970 oh        1 3QB     -0.161000
     22 C1          2.8580    0.6160    0.8520 c3        1 3QB      0.076000
     23 O4          3.6830    1.5380    1.5790 oh        1 3QB     -0.375000
     24 S1          2.5180   -1.8820    2.0730 ss        1 3QB      1.278000
     25 H1         -2.4070    0.8780   -2.2130 h1        1 3QB      0.099000
     26 H3         -1.2870    2.7840   -6.9720 h1        1 3QB      0.125000
     27 H4         -3.8030   -0.6480   -0.8140 ho        1 3QB      0.218000
     28 H5          0.4690   -2.5740    1.0330 h1        1 3QB      0.120000
     29 H6          1.3740   -3.8860    1.8690 h1        1 3QB      0.120000
     30 H7          1.9070   -3.3020    0.2530 h1        1 3QB      0.120000
     31 H8         -1.8400    2.4790   -3.6590 h1        1 3QB      0.180000
     32 H9         -1.6760    0.3170    0.7610 h1        1 3QB      0.132000
     33 H10        -3.4290    2.1760   -0.2640 h1        1 3QB      0.118000
     34 H11        -2.1520    3.9580    0.8100 hc        1 3QB      0.093000
     35 H12        -0.6670    3.6110   -0.1700 hc        1 3QB      0.093000
     36 H13        -1.2140    2.4270    1.0810 hc        1 3QB      0.093000
     37 H14        -0.5300   -0.2050   -4.2790 hc        1 3QB      0.120000
     38 H15        -2.2820    0.2650   -4.2980 hc        1 3QB      0.120000
     39 H16        -0.4820   -0.0380   -6.5640 hc        1 3QB      0.124000
     40 H17         0.5550    4.2030   -3.8920 h4        1 3QB      0.236500
     41 H19        -0.3260   -1.2730   -0.6310 h1        1 3QB      0.111000
     42 H20         2.0480    4.7590   -7.7580 ha        1 3QB      0.099000
     43 H21         1.1160    7.1970   -6.9950 hc        1 3QB      0.148667
     44 H22        -3.2540    1.3390   -6.4000 hc        1 3QB      0.093667
     45 H23         2.1310    6.8770   -5.5310 hc        1 3QB      0.148667
     46 H24         2.9140    7.0110   -7.1770 hc        1 3QB      0.148667
     47 H25        -2.9350   -0.4310   -6.6170 hc        1 3QB      0.093667
     48 H26        -2.4380    0.7410   -7.9060 hc        1 3QB      0.093667
     49 H27         0.9300    4.4730   -5.8580 h4        1 3QB      0.236500
     50 H28         3.2110    4.2250   -5.5430 ha        1 3QB      0.017000
     51 H29         3.6270    4.4440   -6.0380 ha        1 3QB      0.017000
     52 H30        -3.0960    4.0880   -1.5190 ho        1 3QB      0.218000
     53 H31        -1.3970   -1.2340   -2.5960 ho        1 3QB      0.194000
     54 H32        -1.8060   -2.1330    0.0320 h1        1 3QB      0.111000
     55 H33         2.0190    2.8210    1.6870 ho        1 3QB      0.213000
     56 H34         3.3680    0.4800   -0.1550 h1        1 3QB      0.148000
     57 H35         4.0270    1.0930    2.3600 ho        1 3QB      0.229000
     58 C10         0.0520    1.7790   -2.8010 c2        1 3QB      0.296000
     59 C17         1.7190    5.2390   -6.8240 c1        1 3QB     -0.040000
     60 O9          1.2590    2.0890   -2.9220 o         1 3QB     -0.390000
     61 H121        0.2420    1.2130   -0.8490 hn        1 3QB      0.297000
     62 H2          0.3930    2.0580   -6.9600 h1        1 3QB      0.125000
@<TRIPOS>BOND
     1    1    6 1   
     2    1   13 1   
     3    1   18 1   
     4    1   32 1   
     5    2   10 1   
     6    2   12 1   
     7    2   26 1   
     8    2   62 1   
     9    3   22 1   
    10    3   24 1   
    11    4   24 1   
    12    4   28 1   
    13    4   29 1   
    14    4   30 1   
    15    5    9 1   
    16    5   12 1   
    17    5   31 1   
    18    5   58 1   
    19    6    7 1   
    20    6   11 1   
    21    6   25 1   
    22    7    8 1   
    23    7   17 1   
    24    7   33 1   
    25    8   34 1   
    26    8   35 1   
    27    8   36 1   
    28    9   10 1   
    29    9   37 1   
    30    9   38 1   
    31   10   15 1   
    32   10   39 1   
    33   11   58 1   
    34   11   61 1   
    35   12   16 1   
    36   13   19 1   
    37   13   41 1   
    38   13   54 1   
    39   14   43 1   
    40   14   45 1   
    41   14   46 1   
    42   14   59 1   
    43   15   44 1   
    44   15   47 1   
    45   15   48 1   
    46   16   40 1   
    47   16   49 1   
    48   17   52 1   
    49   18   27 1   
    50   19   53 1   
    51   20   21 1   
    52   20   22 1   
    53   21   55 1   
    54   22   23 1   
    55   22   56 1   
    56   23   57 1   
    57   42   59 1   
    58   50   51 1   
    59   58   60 1   
@<TRIPOS>SUBSTRUCTURE
     1 3QB         1 TEMP              0 ****  ****    0 ROOT
