@<TRIPOS>MOLECULE
3QC
   49    51     1     0     0
SMALL
bcc


@<TRIPOS>ATOM
      1 C1          0.2910   -0.2710    0.0740 ca        1 3QC     -0.154300
      2 C2          1.6840   -0.8330    0.0590 c3        1 3QC      0.104300
      3 C11        -1.7450    0.2440    1.2680 ca        1 3QC     -0.104000
      4 C12        -2.3030    0.7380    0.0950 ca        1 3QC     -0.104000
      5 C13        -1.5830    0.7190   -1.1070 ca        1 3QC     -0.055300
      6 C14        -0.2780    0.1980   -1.1220 ca        1 3QC     -0.071300
      7 C19        -1.1530   -1.4530    4.5880 ca        1 3QC     -0.152000
      8 C20        -1.9920   -2.3590    5.2580 ca        1 3QC      0.137100
      9 C21        -2.4500   -3.5230    4.6240 ca        1 3QC     -0.196000
     10 C22        -2.0640   -3.7730    3.3100 ca        1 3QC     -0.081000
     11 O28        -2.3240   -2.0300    6.5500 oh        1 3QC     -0.489100
     12 C33         0.4940    0.1240   -2.3870 c3        1 3QC     -0.062800
     13 N3          2.3430   -0.8050    1.3580 n         1 3QC     -0.362800
     14 C4          1.5060   -1.4420    2.3860 c3        1 3QC      0.058000
     15 C5          0.1340   -0.7650    2.5620 c3        1 3QC      0.005900
     16 C6         -0.4440   -0.2720    1.2690 ca        1 3QC     -0.076300
     17 C17        -0.7750   -1.7230    3.2710 ca        1 3QC     -0.072300
     18 C23        -1.2310   -2.8830    2.6340 ca        1 3QC     -0.159000
     19 C29        -2.2230    1.2430   -2.3380 c3        1 3QC     -0.064800
     20 C38         3.1350    0.2270    1.8170 c         1 3QC      0.621100
     21 N39         3.8490    1.2140    0.8720 n4        1 3QC     -0.574200
     22 C40         2.9090    2.1850    0.2680 c3        1 3QC      0.078600
     23 C44         4.7150    0.5460   -0.1250 c3        1 3QC      0.078600
     24 O48         3.5020    0.4070    2.9870 o         1 3QC     -0.501100
     25 H21A        1.6280   -1.9290   -0.2280 h1        1 3QC      0.079200
     26 H22A        2.3120   -0.3260   -0.7220 h1        1 3QC      0.079200
     27 H11        -2.3280    0.2460    2.2040 ha        1 3QC      0.159000
     28 H12        -3.3290    1.1410    0.1090 ha        1 3QC      0.154000
     29 H22        -2.4210   -4.6830    2.8010 ha        1 3QC      0.146000
     30 H28        -2.9010   -2.7250    6.9010 ho        1 3QC      0.431000
     31 H331       -0.1630    0.2640   -3.2820 hc        1 3QC      0.048700
     32 H332        0.9910   -0.8740   -2.4900 hc        1 3QC      0.048700
     33 H333        1.2810    0.9200   -2.4120 hc        1 3QC      0.048700
     34 H41         1.3680   -2.5100    2.0480 h1        1 3QC      0.103700
     35 H42         2.0510   -1.4470    3.3720 h1        1 3QC      0.103700
     36 H5          0.2810    0.1450    3.2190 hc        1 3QC      0.075700
     37 H23        -0.9430   -3.0870    1.5920 ha        1 3QC      0.134000
     38 H291       -1.5690    2.0060   -2.8290 hc        1 3QC      0.057367
     39 H292       -2.4040    0.4110   -3.0650 hc        1 3QC      0.057367
     40 H293       -3.2060    1.7230   -2.1080 hc        1 3QC      0.057367
     41 H401        3.4840    2.9020   -0.3790 hx        1 3QC      0.107033
     42 H402        2.3930    2.7520    1.0910 hx        1 3QC      0.107033
     43 H403        2.1350    1.6620   -0.3550 hx        1 3QC      0.107033
     44 H441        4.1220    0.2120   -1.0150 hx        1 3QC      0.107033
     45 H442        5.5020    1.2720   -0.4710 hx        1 3QC      0.107033
     46 H443        5.2110   -0.3420    0.3530 hx        1 3QC      0.107033
     47 H19        -0.8110   -0.5500    5.1140 ha        1 3QC      0.154000
     48 H391        4.4730    1.7470    1.5090 hn        1 3QC      0.470800
     49 H21        -3.1070   -4.2250    5.1570 ha        1 3QC      0.149000
@<TRIPOS>BOND
     1    1    2 1   
     2    1    6 ar  
     3    1   16 ar  
     4    2   13 1   
     5    2   25 1   
     6    2   26 1   
     7    3    4 ar  
     8    3   16 ar  
     9    3   27 1   
    10    4    5 ar  
    11    4   28 1   
    12    5    6 ar  
    13    5   19 1   
    14    6   12 1   
    15    7    8 ar  
    16    7   17 ar  
    17    7   47 1   
    18    8    9 ar  
    19    8   11 1   
    20    9   10 ar  
    21    9   49 1   
    22   10   18 ar  
    23   10   29 1   
    24   11   30 1   
    25   12   31 1   
    26   12   32 1   
    27   12   33 1   
    28   13   14 1   
    29   13   20 1   
    30   14   15 1   
    31   14   34 1   
    32   14   35 1   
    33   15   16 1   
    34   15   17 1   
    35   15   36 1   
    36   17   18 ar  
    37   18   37 1   
    38   19   38 1   
    39   19   39 1   
    40   19   40 1   
    41   20   21 1   
    42   20   24 2   
    43   21   22 1   
    44   21   23 1   
    45   21   48 1   
    46   22   41 1   
    47   22   42 1   
    48   22   43 1   
    49   23   44 1   
    50   23   45 1   
    51   23   46 1   
@<TRIPOS>SUBSTRUCTURE
     1 3QC         1 TEMP              0 ****  ****    0 ROOT
