@<TRIPOS>MOLECULE
3QC
   49    51     1     0     0
SMALL
bcc


@<TRIPOS>ATOM
      1 C1          0.2940   -0.2750    0.0750 ca        1 3QC     -0.154300
      2 C2          1.6780   -0.8570    0.0590 c3        1 3QC      0.104300
      3 C11        -1.7300    0.2830    1.2710 ca        1 3QC     -0.104000
      4 C12        -2.2840    0.7750    0.0950 ca        1 3QC     -0.104000
      5 C13        -1.5690    0.7350   -1.1090 ca        1 3QC     -0.055300
      6 C14        -0.2720    0.1940   -1.1240 ca        1 3QC     -0.071300
      7 C19        -1.1530   -1.3960    4.6020 ca        1 3QC     -0.152000
      8 C20        -2.0050   -2.2840    5.2820 ca        1 3QC      0.137100
      9 C21        -2.4830   -3.4460    4.6590 ca        1 3QC     -0.196000
     10 C22        -2.1040   -3.7130    3.3460 ca        1 3QC     -0.081000
     11 O28        -2.3280   -1.9390    6.5720 oh        1 3QC     -0.489100
     12 C33         0.4950    0.0980   -2.3910 c3        1 3QC     -0.062800
     13 N3          2.3410   -0.8300    1.3560 n         1 3QC     -0.362800
     14 C4          1.4980   -1.4450    2.3920 c3        1 3QC      0.058000
     15 C5          0.1370   -0.7450    2.5660 c3        1 3QC      0.005900
     16 C6         -0.4370   -0.2540    1.2720 ca        1 3QC     -0.076300
     17 C17        -0.7840   -1.6830    3.2870 ca        1 3QC     -0.072300
     18 C23        -1.2600   -2.8420    2.6600 ca        1 3QC     -0.159000
     19 C29        -2.2040    1.2590   -2.3420 c3        1 3QC     -0.064800
     20 C38         3.1510    0.1940    1.8040 c         1 3QC      0.621100
     21 N39         3.8750    1.1640    0.8480 n4        1 3QC     -0.574200
     22 C40         2.9470    2.1440    0.2410 c3        1 3QC      0.078600
     23 C44         4.7270    0.4750   -0.1470 c3        1 3QC      0.078600
     24 O48         3.5250    0.3770    2.9710 o         1 3QC     -0.501100
     25 H21A        2.3110   -0.3670   -0.7280 h1        1 3QC      0.079200
     26 H22A        1.6040   -1.9550   -0.2190 h1        1 3QC      0.079200
     27 H11        -2.3100    0.3000    2.2080 ha        1 3QC      0.159000
     28 H12        -3.3030    1.1940    0.1090 ha        1 3QC      0.154000
     29 H22        -2.4760   -4.6210    2.8460 ha        1 3QC      0.146000
     30 H28        -2.9140   -2.6220    6.9310 ho        1 3QC      0.431000
     31 H331        0.9760   -0.9090   -2.4870 hc        1 3QC      0.048700
     32 H332        1.2940    0.8810   -2.4250 hc        1 3QC      0.048700
     33 H333       -0.1630    0.2400   -3.2850 hc        1 3QC      0.048700
     34 H41         1.3430   -2.5140    2.0630 h1        1 3QC      0.103700
     35 H42         2.0470   -1.4500    3.3760 h1        1 3QC      0.103700
     36 H5          0.3010    0.1680    3.2160 hc        1 3QC      0.075700
     37 H23        -0.9790   -3.0580    1.6190 ha        1 3QC      0.134000
     38 H291       -1.5400    2.0080   -2.8420 hc        1 3QC      0.057367
     39 H292       -2.4010    0.4250   -3.0620 hc        1 3QC      0.057367
     40 H293       -3.1790    1.7560   -2.1130 hc        1 3QC      0.057367
     41 H401        2.1620    1.6270   -0.3750 hx        1 3QC      0.107033
     42 H402        2.4440    2.7240    1.0620 hx        1 3QC      0.107033
     43 H403        3.5300    2.8470   -0.4130 hx        1 3QC      0.107033
     44 H441        5.2080   -0.4200    0.3330 hx        1 3QC      0.107033
     45 H442        5.5260    1.1850   -0.4990 hx        1 3QC      0.107033
     46 H443        4.1260    0.1480   -1.0350 hx        1 3QC      0.107033
     47 H19        -0.7960   -0.4940    5.1200 ha        1 3QC      0.154000
     48 H391        4.5110    1.6910    1.4780 hn        1 3QC      0.470800
     49 H21        -3.1480   -4.1330    5.2010 ha        1 3QC      0.149000
@<TRIPOS>BOND
     1    1    2 1   
     2    1    6 ar  
     3    1   16 ar  
     4    2   13 1   
     5    2   25 1   
     6    2   26 1   
     7    3    4 ar  
     8    3   16 ar  
     9    3   27 1   
    10    4    5 ar  
    11    4   28 1   
    12    5    6 ar  
    13    5   19 1   
    14    6   12 1   
    15    7    8 ar  
    16    7   17 ar  
    17    7   47 1   
    18    8    9 ar  
    19    8   11 1   
    20    9   10 ar  
    21    9   49 1   
    22   10   18 ar  
    23   10   29 1   
    24   11   30 1   
    25   12   31 1   
    26   12   32 1   
    27   12   33 1   
    28   13   14 1   
    29   13   20 1   
    30   14   15 1   
    31   14   34 1   
    32   14   35 1   
    33   15   16 1   
    34   15   17 1   
    35   15   36 1   
    36   17   18 ar  
    37   18   37 1   
    38   19   38 1   
    39   19   39 1   
    40   19   40 1   
    41   20   21 1   
    42   20   24 2   
    43   21   22 1   
    44   21   23 1   
    45   21   48 1   
    46   22   41 1   
    47   22   42 1   
    48   22   43 1   
    49   23   44 1   
    50   23   45 1   
    51   23   46 1   
@<TRIPOS>SUBSTRUCTURE
     1 3QC         1 TEMP              0 ****  ****    0 ROOT
