@<TRIPOS>MOLECULE
3QC
   48    44     1     0     0
SMALL
bcc


@<TRIPOS>ATOM
      1 C1         -0.7250    0.4060   -1.7630 c1        1 3QC     -0.084000
      2 C2          0.8820    0.3880   -1.7800 c2        1 3QC     -0.013000
      3 C11        -2.7740    0.7880   -0.4210 c1        1 3QC     -0.118000
      4 C12        -3.5470    0.7340   -1.6050 c1        1 3QC     -0.128000
      5 C13        -2.9080    0.5160   -2.8730 c1        1 3QC     -0.064000
      6 C14        -1.4950    0.3540   -2.9420 c1        1 3QC     -0.060000
      7 C19        -0.8170    0.2050    3.1320 c1        1 3QC     -0.159000
      8 C20        -0.9750   -0.8000    4.0660 c1        1 3QC      0.073000
      9 C21        -0.8880   -2.1350    3.6760 c1        1 3QC     -0.150500
     10 C22        -0.6400   -2.4590    2.3340 c1        1 3QC     -0.150500
     11 O28        -1.2250   -0.4670    5.4430 oh        1 3QC     -0.256000
     12 C33        -0.8160    0.2200   -4.3780 c3        1 3QC     -0.184000
     13 N3          1.5030    0.4430   -0.5560 n         1 3QC     -0.290000
     14 C4          0.9450    1.2410    0.4230 c3        1 3QC     -0.037000
     15 C5         -0.4730    1.0210    0.7190 c3        1 3QC     -0.057000
     16 C6         -1.3750    0.6270   -0.4830 c2        1 3QC     -0.067000
     17 C17        -0.5690   -0.1170    1.7890 c1        1 3QC     -0.044000
     18 C23        -0.4820   -1.4520    1.3970 c1        1 3QC     -0.146000
     19 C29        -3.7510    0.3940   -4.1380 c3        1 3QC     -0.178000
     20 C38         2.6990   -0.3210   -0.2990 c2        1 3QC      0.378000
     21 N39         3.4090   -0.1490    0.9410 n         1 3QC     -0.324000
     22 C40         3.8870   -1.3280    1.6780 c3        1 3QC     -0.071500
     23 C44         3.8630    1.1480    1.3200 c3        1 3QC     -0.071500
     24 O48         3.1650   -1.0150   -1.1670 o         1 3QC     -0.398000
     25 H21A        1.1760    1.1550   -2.2880 h4        1 3QC      0.115000
     26 H22A        1.1600   -0.4320   -2.2100 h4        1 3QC      0.115000
     27 H11        -3.2130    0.9370    0.4470 ha        1 3QC      0.136000
     28 H12        -4.5080    0.8450   -1.5600 ha        1 3QC      0.131000
     29 H19        -0.8780    1.1590    3.4110 ha        1 3QC      0.146000
     30 H21        -1.0000   -2.8410    4.3330 ha        1 3QC      0.134500
     31 H22        -0.5810   -3.3740    2.0670 ha        1 3QC      0.134500
     32 H28        -0.4490   -0.3760    5.8710 ho        1 3QC      0.217000
     33 H331       -0.2800    1.0030   -4.5540 hc        1 3QC      0.086000
     34 H332       -1.4910    0.1440   -5.0400 hc        1 3QC      0.086000
     35 H333       -0.2290   -0.6020   -4.3980 hc        1 3QC      0.086000
     36 H41         1.0440    2.2070    0.1220 h1        1 3QC      0.102000
     37 H42         1.4320    1.0890    1.2260 h1        1 3QC      0.102000
     38 H5         -0.8330    1.8440    1.1140 hc        1 3QC      0.108000
     39 H23        -0.3020   -1.6860    0.4220 ha        1 3QC      0.160000
     40 H291       -3.4360    1.0520   -4.8120 hc        1 3QC      0.083333
     41 H292       -4.7080    0.5760   -3.9180 hc        1 3QC      0.083333
     42 H293       -3.6660   -0.5120   -4.5010 hc        1 3QC      0.083333
     43 H401        4.8620   -1.3490    1.6590 h1        1 3QC      0.082333
     44 H402        3.5420   -2.1240    1.2690 h1        1 3QC      0.082333
     45 H403        3.5920   -1.2800    2.5700 h1        1 3QC      0.082333
     46 H441        4.7790    1.0960    1.5980 h1        1 3QC      0.082333
     47 H442        3.3040    1.4900    2.0760 h1        1 3QC      0.082333
     48 H443        3.7900    1.7380    0.5780 h1        1 3QC      0.082333
@<TRIPOS>BOND
     1    1    6 1   
     2    1   16 1   
     3    2   13 1   
     4    2   25 1   
     5    2   26 1   
     6    3   16 1   
     7    3   27 1   
     8    4    5 1   
     9    4   28 1   
    10    5   19 1   
    11    6   12 1   
    12    7    8 1   
    13    7   29 1   
    14    8   11 1   
    15    9   10 1   
    16    9   30 1   
    17   10   31 1   
    18   11   32 1   
    19   12   33 1   
    20   12   34 1   
    21   12   35 1   
    22   13   14 1   
    23   13   20 1   
    24   14   15 1   
    25   14   36 1   
    26   14   37 1   
    27   15   16 1   
    28   15   17 1   
    29   15   38 1   
    30   17   18 1   
    31   18   39 1   
    32   19   40 1   
    33   19   41 1   
    34   19   42 1   
    35   20   21 1   
    36   20   24 1   
    37   21   22 1   
    38   21   23 1   
    39   22   43 1   
    40   22   44 1   
    41   22   45 1   
    42   23   46 1   
    43   23   47 1   
    44   23   48 1   
@<TRIPOS>SUBSTRUCTURE
     1 3QC         1 TEMP              0 ****  ****    0 ROOT
