@<TRIPOS>MOLECULE
3QC
   49    51     1     0     0
SMALL
bcc


@<TRIPOS>ATOM
      1 C1          0.2820   -0.2600    0.0570 ca        1 3QC     -0.154300
      2 C2          1.6660   -0.8430    0.0620 c3        1 3QC      0.104300
      3 C11        -1.7620    0.2900    1.2200 ca        1 3QC     -0.104000
      4 C12        -2.2950    0.7910    0.0380 ca        1 3QC     -0.104000
      5 C13        -1.5590    0.7590   -1.1530 ca        1 3QC     -0.055300
      6 C14        -0.2610    0.2180   -1.1480 ca        1 3QC     -0.071300
      7 C19        -1.2470   -1.4130    4.5490 ca        1 3QC     -0.152000
      8 C20        -2.1110   -2.3050    5.2070 ca        1 3QC      0.137100
      9 C21        -2.5770   -3.4630    4.5670 ca        1 3QC     -0.196000
     10 C22        -2.1750   -3.7210    3.2600 ca        1 3QC     -0.081000
     11 O28        -2.4570   -1.9700    6.4930 oh        1 3QC     -0.489100
     12 C33         0.5270    0.1300   -2.4020 c3        1 3QC     -0.062800
     13 N3          2.3060   -0.8250    1.3710 n         1 3QC     -0.362800
     14 C4          1.4440   -1.4480    2.3870 c3        1 3QC      0.058000
     15 C5          0.0810   -0.7480    2.5420 c3        1 3QC      0.005900
     16 C6         -0.4700   -0.2470    1.2410 ca        1 3QC     -0.076300
     17 C17        -0.8540   -1.6910    3.2390 ca        1 3QC     -0.072300
     18 C23        -1.3180   -2.8450    2.5950 ca        1 3QC     -0.159000
     19 C29        -2.1710    1.2920   -2.3930 c3        1 3QC     -0.064800
     20 C38         3.1080    0.1960    1.8410 c         1 3QC      0.621100
     21 N39         3.8500    1.1720    0.9050 nx        1 3QC     -0.574200
     22 C40         2.9330    2.1570    0.2890 c3        1 3QC      0.078600
     23 C44         4.7190    0.4900   -0.0790 c3        1 3QC      0.078600
     24 O48         3.4600    0.3700    3.0150 o         1 3QC     -0.501100
     25 H21A        1.5970   -1.9380   -0.2250 h1        1 3QC      0.079200
     26 H22A        2.3130   -0.3470   -0.7100 h1        1 3QC      0.079200
     27 H11        -2.3600    0.3010    2.1470 ha        1 3QC      0.159000
     28 H12        -3.3150    1.2100    0.0370 ha        1 3QC      0.154000
     29 H22        -2.5380   -4.6250    2.7470 ha        1 3QC      0.146000
     30 H28        -3.0500   -2.6560    6.8370 ho        1 3QC      0.431000
     31 H331        1.3270    0.9140   -2.4150 hc        1 3QC      0.048700
     32 H332       -0.1140    0.2800   -3.3060 hc        1 3QC      0.048700
     33 H333        1.0100   -0.8750   -2.4970 hc        1 3QC      0.048700
     34 H41         1.9750   -1.4600    3.3800 h1        1 3QC      0.103700
     35 H42         1.2940   -2.5140    2.0480 h1        1 3QC      0.103700
     36 H5          0.2330    0.1600    3.2010 hc        1 3QC      0.075700
     37 H23        -1.0180   -3.0540    1.5580 ha        1 3QC      0.134000
     38 H291       -1.4980    2.0450   -2.8750 hc        1 3QC      0.057367
     39 H292       -3.1500    1.7880   -2.1790 hc        1 3QC      0.057367
     40 H293       -2.3560    0.4630   -3.1230 hc        1 3QC      0.057367
     41 H401        3.5280    2.8640   -0.3500 hx        1 3QC      0.107033
     42 H402        2.1590    1.6450   -0.3450 hx        1 3QC      0.107033
     43 H403        2.4150    2.7320    1.1050 hx        1 3QC      0.107033
     44 H441        4.1340    0.1680   -0.9800 hx        1 3QC      0.107033
     45 H442        5.1920   -0.4080    0.4030 hx        1 3QC      0.107033
     46 H443        5.5240    1.2020   -0.4120 hx        1 3QC      0.107033
     47 H19        -0.8990   -0.5150    5.0800 ha        1 3QC      0.154000
     48 H391        4.4730    1.6950    1.5510 hn        1 3QC      0.470800
     49 H21        -3.2530   -4.1540    5.0920 ha        1 3QC      0.149000
@<TRIPOS>BOND
     1    1    2 1   
     2    1    6 ar  
     3    1   16 ar  
     4    2   13 1   
     5    2   25 1   
     6    2   26 1   
     7    3    4 ar  
     8    3   16 ar  
     9    3   27 1   
    10    4    5 ar  
    11    4   28 1   
    12    5    6 ar  
    13    5   19 1   
    14    6   12 1   
    15    7    8 ar  
    16    7   17 ar  
    17    7   47 1   
    18    8    9 ar  
    19    8   11 1   
    20    9   10 ar  
    21    9   49 1   
    22   10   18 ar  
    23   10   29 1   
    24   11   30 1   
    25   12   31 1   
    26   12   32 1   
    27   12   33 1   
    28   13   14 1   
    29   13   20 1   
    30   14   15 1   
    31   14   34 1   
    32   14   35 1   
    33   15   16 1   
    34   15   17 1   
    35   15   36 1   
    36   17   18 ar  
    37   18   37 1   
    38   19   38 1   
    39   19   39 1   
    40   19   40 1   
    41   20   21 1   
    42   20   24 2   
    43   21   22 1   
    44   21   23 1   
    45   21   48 1   
    46   22   41 1   
    47   22   42 1   
    48   22   43 1   
    49   23   44 1   
    50   23   45 1   
    51   23   46 1   
@<TRIPOS>SUBSTRUCTURE
     1 3QC         1 TEMP              0 ****  ****    0 ROOT
