@<TRIPOS>MOLECULE
3QC
   48    50     1     0     0
SMALL
bcc


@<TRIPOS>ATOM
      1 C1          1.0160   -1.3120    0.3150 ca        1 3QC     -0.108300
      2 C2          1.9380   -0.3390    0.9990 c3        1 3QC      0.107300
      3 C11        -1.0580   -1.8390   -0.8110 ca        1 3QC     -0.119000
      4 C12        -0.6450   -3.1580   -0.9560 ca        1 3QC     -0.125000
      5 C13         0.5950   -3.5770   -0.4610 ca        1 3QC     -0.075300
      6 C14         1.4290   -2.6510    0.1870 ca        1 3QC     -0.070300
      7 C19        -2.9410    1.4700   -0.5430 ca        1 3QC     -0.207000
      8 C20        -4.2960    1.6280   -0.2220 ca        1 3QC      0.122100
      9 C21        -4.8560    0.9900    0.8970 ca        1 3QC     -0.157000
     10 C22        -4.0370    0.1920    1.6900 ca        1 3QC     -0.099000
     11 O28        -5.1480    2.4050   -0.9740 oh        1 3QC     -0.499100
     12 C33         2.7470   -3.0640    0.7290 c3        1 3QC     -0.057800
     13 N3          1.5810    1.0650    0.8980 n         1 3QC     -0.415800
     14 C4          0.1480    1.2850    0.9880 c3        1 3QC      0.074000
     15 C5         -0.6790    0.5190   -0.0630 c3        1 3QC     -0.013100
     16 C6         -0.2360   -0.9060   -0.1700 ca        1 3QC     -0.065300
     17 C17        -2.1330    0.6640    0.2650 ca        1 3QC     -0.036300
     18 C23        -2.6860    0.0280    1.3820 ca        1 3QC     -0.158000
     19 C29         1.0010   -4.9920   -0.6360 c3        1 3QC     -0.052800
     20 C38         2.2400    1.8510   -0.1110 c         1 3QC      0.738100
     21 N39         3.6450    1.8770   -0.1820 n         1 3QC     -0.462800
     22 C40         4.2380    2.7200   -1.1890 c3        1 3QC      0.078800
     23 C44         4.4840    1.5610    0.9390 c3        1 3QC      0.078800
     24 O48         1.5720    2.5450   -0.9150 o         1 3QC     -0.632100
     25 H21A        2.9840   -0.5060    0.6130 h1        1 3QC      0.065700
     26 H22A        1.9390   -0.5820    2.1050 h1        1 3QC      0.065700
     27 H11        -2.0390   -1.5220   -1.1970 ha        1 3QC      0.142000
     28 H12        -1.3000   -3.8800   -1.4660 ha        1 3QC      0.133000
     29 H21        -5.9200    1.1290    1.1270 ha        1 3QC      0.150000
     30 H22        -4.4610   -0.3150    2.5700 ha        1 3QC      0.134000
     31 H28        -4.6340    2.7980   -1.6950 ho        1 3QC      0.420000
     32 H331        3.5670   -2.6960    0.0610 hc        1 3QC      0.044700
     33 H332        2.9070   -2.6360    1.7500 hc        1 3QC      0.044700
     34 H333        2.8350   -4.1750    0.8090 hc        1 3QC      0.044700
     35 H41        -0.1620    0.9520    2.0190 h1        1 3QC      0.071700
     36 H42        -0.0620    2.3850    0.8820 h1        1 3QC      0.071700
     37 H5         -0.4760    1.0030   -1.0680 hc        1 3QC      0.091700
     38 H23        -2.0510   -0.6110    2.0140 ha        1 3QC      0.139000
     39 H291        1.9970   -5.0550   -1.1430 hc        1 3QC      0.044033
     40 H292        1.0770   -5.5030    0.3560 hc        1 3QC      0.044033
     41 H293        0.2580   -5.5510   -1.2580 hc        1 3QC      0.044033
     42 H401        5.2480    2.3060   -1.4460 h1        1 3QC      0.043700
     43 H402        3.5930    2.7290   -2.1080 h1        1 3QC      0.043700
     44 H403        4.3560    3.7750   -0.8240 h1        1 3QC      0.043700
     45 H441        3.8960    1.3430    1.8680 h1        1 3QC      0.043700
     46 H442        5.1080    0.6600    0.6860 h1        1 3QC      0.043700
     47 H443        5.1770    2.4180    1.1610 h1        1 3QC      0.043700
     48 H19        -2.5180    1.9810   -1.4200 ha        1 3QC      0.141000
@<TRIPOS>BOND
     1    1    2 1   
     2    1    6 ar  
     3    1   16 ar  
     4    2   13 1   
     5    2   25 1   
     6    2   26 1   
     7    3    4 ar  
     8    3   16 ar  
     9    3   27 1   
    10    4    5 ar  
    11    4   28 1   
    12    5    6 ar  
    13    5   19 1   
    14    6   12 1   
    15    7    8 ar  
    16    7   17 ar  
    17    7   48 1   
    18    8    9 ar  
    19    8   11 1   
    20    9   10 ar  
    21    9   29 1   
    22   10   18 ar  
    23   10   30 1   
    24   11   31 1   
    25   12   32 1   
    26   12   33 1   
    27   12   34 1   
    28   13   14 1   
    29   13   20 1   
    30   14   15 1   
    31   14   35 1   
    32   14   36 1   
    33   15   16 1   
    34   15   17 1   
    35   15   37 1   
    36   17   18 ar  
    37   18   38 1   
    38   19   39 1   
    39   19   40 1   
    40   19   41 1   
    41   20   21 1   
    42   20   24 2   
    43   21   22 1   
    44   21   23 1   
    45   22   42 1   
    46   22   43 1   
    47   22   44 1   
    48   23   45 1   
    49   23   46 1   
    50   23   47 1   
@<TRIPOS>SUBSTRUCTURE
     1 3QC         1 TEMP              0 ****  ****    0 ROOT
