@<TRIPOS>MOLECULE
3QE
   46    47     1     0     0
SMALL
bcc


@<TRIPOS>ATOM
      1 OAE         0.0000    0.0000    0.0000 o         1 3QE     -0.664500
      2 PBA         1.4790    0.0000    0.0000 p5        1 3QE      0.502700
      3 OAF         2.0160    0.0000    1.5190 o         1 3QE     -0.664500
      4 OAC         2.0180   -1.3140   -0.7590 o         1 3QE     -0.664500
      5 CAL         2.0870    1.4880   -0.8590 c3        1 3QE     -0.056600
      6 CAJ         1.4790    1.5530   -2.2600 c3        1 3QE      0.236400
      7 OAS         1.9550    2.7190   -2.9340 os        1 3QE     -0.418600
      8 CAN         1.4440    2.8760   -4.2590 c3        1 3QE      0.210400
      9 CAY         2.0170    4.1510   -4.8800 c3        1 3QE      0.147100
     10 OAT         1.5440    5.2880   -4.1560 os        1 3QE     -0.411600
     11 CAK         2.4500    6.3930   -4.1540 c3        1 3QE      0.199400
     12 CAM         1.8430    7.5480   -3.3540 c3        1 3QE     -0.058600
     13 PBB         2.9980    8.9580   -3.3500 p5        1 3QE      0.520700
     14 OAG         4.3400    8.5510   -2.5590 o         1 3QE     -0.568500
     15 OAH         2.3080   10.2170   -2.6220 o         1 3QE     -0.568500
     16 OAD         3.3390    9.3210   -4.7440 o         1 3QE     -0.568500
     17 CAO         1.5690    4.2530   -6.3400 c3        1 3QE     -0.062700
     18 N9          2.2130    5.4090   -6.9690 na        1 3QE      0.247100
     19 C4          3.4560    5.4300   -7.5420 cc        1 3QE     -0.096200
     20 N3          4.4190    4.5160   -7.7160 nc        1 3QE     -0.553100
     21 C2          5.5460    4.8230   -8.3190 cd        1 3QE     -0.286200
     22 N2          6.5030    3.8540   -8.4750 nz        1 3QE      0.322400
     23 N1          5.7890    6.0770   -8.7940 ns        1 3QE     -0.019400
     24 C6          4.8650    7.0530   -8.6550 c         1 3QE      0.582000
     25 O6          5.0740    8.1770   -9.0760 o         1 3QE     -0.726500
     26 C5          3.6480    6.7350   -8.0070 cd        1 3QE      0.110800
     27 N7          2.5310    7.4390   -7.7010 nd        1 3QE     -0.488000
     28 C8          1.6830    6.6590   -7.0950 cc        1 3QE      0.217400
     29 H3          3.1670    1.4450   -0.9360 hc        1 3QE      0.013200
     30 H4          1.8010    2.3700   -0.2990 hc        1 3QE      0.013200
     31 H5          0.3990    1.5970   -2.1830 h1        1 3QE     -0.011800
     32 H6          1.7650    0.6710   -2.8190 h1        1 3QE     -0.011800
     33 H7          1.7300    2.0220   -4.8600 h1        1 3QE     -0.025300
     34 H8          0.3630    2.9460   -4.2230 h1        1 3QE     -0.025300
     35 H9          3.0990    4.1190   -4.8350 h1        1 3QE      0.031700
     36 H10         3.3860    6.0920   -3.6990 h1        1 3QE      0.010700
     37 H11         2.6300    6.7150   -5.1720 h1        1 3QE      0.010700
     38 H12         0.9070    7.8500   -3.8080 hc        1 3QE      0.018700
     39 H13         1.6630    7.2260   -2.3350 hc        1 3QE      0.018700
     40 H16         0.4930    4.3730   -6.3810 h1        1 3QE      0.022200
     41 H17         1.8520    3.3510   -6.8680 h1        1 3QE      0.022200
     42 H18         7.3070    4.0870   -7.9260 hn        1 3QE      0.114800
     43 H19         6.1380    2.9720   -8.1740 hn        1 3QE      0.114800
     44 H20         6.6590    6.2770   -9.2490 hn        1 3QE      0.123500
     45 H21         0.7010    6.9580   -6.7480 h5        1 3QE      0.021100
     46 H23         6.7640    3.7950   -9.4400 hn        1 3QE      0.114800
@<TRIPOS>BOND
     1    1    2 1   
     2    2    3 1   
     3    2    4 1   
     4    2    5 1   
     5    5    6 1   
     6    5   29 1   
     7    5   30 1   
     8    6    7 1   
     9    6   31 1   
    10    6   32 1   
    11    7    8 1   
    12    8    9 1   
    13    8   33 1   
    14    8   34 1   
    15    9   10 1   
    16    9   17 1   
    17    9   35 1   
    18   10   11 1   
    19   11   12 1   
    20   11   36 1   
    21   11   37 1   
    22   12   13 1   
    23   12   38 1   
    24   12   39 1   
    25   13   14 1   
    26   13   15 1   
    27   13   16 1   
    28   17   18 1   
    29   17   40 1   
    30   17   41 1   
    31   18   19 1   
    32   18   28 1   
    33   19   20 1   
    34   19   26 2   
    35   20   21 2   
    36   21   22 1   
    37   21   23 1   
    38   22   42 1   
    39   22   43 1   
    40   22   46 1   
    41   23   24 1   
    42   23   44 1   
    43   24   25 2   
    44   24   26 1   
    45   26   27 1   
    46   27   28 2   
    47   28   45 1   
@<TRIPOS>SUBSTRUCTURE
     1 3QE         1 TEMP              0 ****  ****    0 ROOT
