@<TRIPOS>MOLECULE
3QF
   58    59     1     0     0
SMALL
bcc


@<TRIPOS>ATOM
      1 OAF         0.0000    0.0000    0.0000 o         1 3QF     -0.599500
      2 PBE         1.6100    0.0000    0.0000 p5        1 3QF      0.472700
      3 OAG         2.1470    0.0000    1.5180 o         1 3QF     -0.599500
      4 OAC         2.1030    1.2080   -0.6980 o         1 3QF     -0.599500
      5 CAS         2.2170   -1.4890   -0.8600 c3        1 3QF     -0.041600
      6 CAP         3.7420   -1.4280   -0.9700 c3        1 3QF      0.007800
      7 NBB         4.2310   -2.6270   -1.6630 nx        1 3QF     -0.038400
      8 CAL         3.7800   -2.6490   -3.0600 c3        1 3QF     -0.149200
      9 CAK         3.8560   -4.0570   -3.5910 c         1 3QF      0.605900
     10 OAE         2.8580   -4.6060   -3.9920 o         1 3QF     -0.454100
     11 CAM         5.6950   -2.7230   -1.5800 c3        1 3QF     -0.033200
     12 CAN         6.0970   -3.1940   -0.1810 c3        1 3QF     -0.028200
     13 NBC         7.5610   -3.2640   -0.0900 nx        1 3QF     -0.032400
     14 CAQ         7.9790   -4.1390    1.0140 c3        1 3QF      0.004800
     15 CAT         7.7920   -5.6010    0.6040 c3        1 3QF     -0.055600
     16 PBF         8.2010   -6.6830    2.0130 p5        1 3QF      0.476700
     17 OAH         7.1450   -6.4370    3.2030 o         1 3QF     -0.593500
     18 OAI         8.1310   -8.2230    1.5450 o         1 3QF     -0.593500
     19 OAD         9.5670   -6.3750    2.4930 o         1 3QF     -0.593500
     20 CAO         8.1450   -1.9240    0.0510 c3        1 3QF     -0.046200
     21 CAR         9.6650   -2.0090   -0.1080 c3        1 3QF     -0.037700
     22 N9         10.2470   -0.6730    0.0320 na        1 3QF      0.249100
     23 C4         10.5890   -0.0590    1.2060 cc        1 3QF     -0.127200
     24 N3         10.5270   -0.4090    2.4960 nc        1 3QF     -0.486100
     25 C2         10.9390    0.4040    3.4420 cd        1 3QF     -0.188200
     26 N2         10.8560    0.0000    4.7520 nz        1 3QF      0.289400
     27 N1         11.4490    1.6370    3.1610 ns        1 3QF     -0.002400
     28 C6         11.5430    2.0610    1.8820 c         1 3QF      0.562000
     29 O6         11.9970    3.1620    1.6200 o         1 3QF     -0.667500
     30 C5         11.1020    1.1960    0.8530 cd        1 3QF      0.143800
     31 N7         11.0490    1.2860   -0.4980 nd        1 3QF     -0.479000
     32 C8         10.5510    0.1860   -0.9840 cc        1 3QF      0.182400
     33 H3          1.7850   -1.5340   -1.8520 hc        1 3QF      0.029700
     34 H4          1.9310   -2.3710   -0.3000 hc        1 3QF      0.029700
     35 H5          4.0280   -0.5460   -1.5300 hx        1 3QF      0.081200
     36 H6          4.1740   -1.3820    0.0220 hx        1 3QF      0.081200
     37 H8          4.4170   -2.0040   -3.6550 hx        1 3QF      0.106700
     38 H9          2.7580   -2.2960   -3.1150 hx        1 3QF      0.106700
     39 H10         4.8130   -4.5580   -3.6590 h4        1 3QF     -0.024800
     40 H11         6.1310   -1.7500   -1.7730 hx        1 3QF      0.065700
     41 H12         6.0520   -3.4320   -2.3170 hx        1 3QF      0.065700
     42 H13         5.6760   -4.1750    0.0050 hx        1 3QF      0.108200
     43 H14         5.7220   -2.4950    0.5570 hx        1 3QF      0.108200
     44 H16         9.0220   -3.9590    1.2420 hx        1 3QF      0.092700
     45 H17         7.3760   -3.9290    1.8890 hx        1 3QF      0.092700
     46 H18         8.4470   -5.8300   -0.2280 hc        1 3QF      0.019200
     47 H19         6.7630   -5.7650    0.3100 hc        1 3QF      0.019200
     48 H22         7.9060   -1.5270    1.0300 hx        1 3QF      0.074700
     49 H23         7.7390   -1.2710   -0.7120 hx        1 3QF      0.074700
     50 H24        10.0710   -2.6610    0.6550 h1        1 3QF      0.057700
     51 H25         9.9040   -2.4060   -1.0870 h1        1 3QF      0.057700
     52 H26        11.7350    0.1530    5.2050 hn        1 3QF      0.170800
     53 H27        10.6270   -0.9730    4.7870 hn        1 3QF      0.170800
     54 H28        11.7530    2.2310    3.9070 hn        1 3QF      0.157500
     55 H29        10.4020   -0.0180   -2.0380 h5        1 3QF      0.020100
     56 HBB1        3.8440   -3.4280   -1.2030 hn        1 3QF      0.265800
     57 HBC1        7.9040   -3.6550   -0.9460 hn        1 3QF      0.248800
     58 H231       10.1450    0.5280    5.2190 hn        1 3QF      0.170800
@<TRIPOS>BOND
     1    1    2 1   
     2    2    3 1   
     3    2    4 1   
     4    2    5 1   
     5    5    6 1   
     6    5   33 1   
     7    5   34 1   
     8    6    7 1   
     9    6   35 1   
    10    6   36 1   
    11    7    8 1   
    12    7   11 1   
    13    7   56 1   
    14    8    9 1   
    15    8   37 1   
    16    8   38 1   
    17    9   10 2   
    18    9   39 1   
    19   11   12 1   
    20   11   40 1   
    21   11   41 1   
    22   12   13 1   
    23   12   42 1   
    24   12   43 1   
    25   13   14 1   
    26   13   20 1   
    27   13   57 1   
    28   14   15 1   
    29   14   44 1   
    30   14   45 1   
    31   15   16 1   
    32   15   46 1   
    33   15   47 1   
    34   16   17 1   
    35   16   18 1   
    36   16   19 1   
    37   20   21 1   
    38   20   48 1   
    39   20   49 1   
    40   21   22 1   
    41   21   50 1   
    42   21   51 1   
    43   22   23 1   
    44   22   32 1   
    45   23   24 1   
    46   23   30 2   
    47   24   25 2   
    48   25   26 1   
    49   25   27 1   
    50   26   52 1   
    51   26   53 1   
    52   26   58 1   
    53   27   28 1   
    54   27   54 1   
    55   28   29 2   
    56   28   30 1   
    57   30   31 1   
    58   31   32 2   
    59   32   55 1   
@<TRIPOS>SUBSTRUCTURE
     1 3QF         1 TEMP              0 ****  ****    0 ROOT
