@<TRIPOS>MOLECULE
3QG
   59    60     1     0     0
SMALL
bcc


@<TRIPOS>ATOM
      1 OAG       148.7320  214.7280 -291.3500 oh        1 3QG     -0.843000
      2 PBG       149.6420  216.0370 -290.9080 p5        1 3QG      1.980000
      3 OAH       149.2910  216.1460 -289.4690 o         1 3QG     -0.867000
      4 OAC       149.4450  217.1440 -291.8680 o         1 3QG     -0.867000
      5 CAU       151.1880  215.3460 -291.0990 c3        1 3QG     -0.836000
      6 CAQ       151.3410  214.1530 -290.1850 c3        1 3QG     -0.097000
      7 NBD       151.2470  212.8240 -290.8620 nx        1 3QG     -0.027000
      8 CAR       152.6490  212.3420 -291.3410 c3        1 3QG     -0.053000
      9 CAV       152.6210  211.2710 -292.3100 c3        1 3QG     -0.796000
     10 PBH       154.6350  211.0660 -292.4210 p5        1 3QG      1.576500
     11 OAI       155.0060  212.4620 -292.8240 o         1 3QG     -0.908167
     12 OAJ       154.7830  209.9860 -293.4410 o         1 3QG     -0.908167
     13 OAD       154.9050  210.7140 -290.9870 o         1 3QG     -0.908167
     14 CAN       150.6360  211.8010 -289.9780 c3        1 3QG     -0.166000
     15 CAM       149.1150  211.9680 -289.7600 c3        1 3QG     -0.102000
     16 NBC       148.4820  210.9260 -288.9860 n7        1 3QG     -0.300000
     17 CAP      -732.4580-1065.9860    0.9980 c3        1 3QG     -0.109000
     18 CAT      -732.3010-1065.0550    0.0640 c2        1 3QG     -0.307000
     19 PBF      -733.8700-1063.0870    0.1930 p2        1 3QG      2.366000
     20 OAE      -733.8010-1063.7380    0.8700 os        1 3QG     -1.125000
     21 OAF      -735.0460-1063.2920    0.0560 os        1 3QG     -1.113500
     22 OAB      -732.7960-1062.1650    0.6130 os        1 3QG     -1.113500
     23 CAO       148.1730  209.7170 -289.7220 c3        1 3QG     -0.096000
     24 CAS       147.8400  208.4990 -288.8330 c3        1 3QG     -0.003000
     25 N9        146.5340  208.4780 -288.2580 na        1 3QG     -0.197000
     26 C4        145.7840  207.3150 -287.9860 c2        1 3QG      0.053000
     27 N3        146.0150  206.0150 -288.3570 n2        1 3QG     -0.331000
     28 C2        145.0290  205.1860 -287.9050 c2        1 3QG      0.015000
     29 N1        143.9270  205.4270 -287.1860 n2        1 3QG     -0.374000
     30 C6        143.6630  206.7510 -286.7870 c2        1 3QG      0.327000
     31 O6        142.6390  207.0230 -286.1090 o         1 3QG     -0.448000
     32 C5        144.6420  207.7550 -287.2050 c2        1 3QG     -0.301000
     33 N7        144.7160  209.1360 -286.9980 n2        1 3QG     -0.102000
     34 C8        145.8420  209.5350 -287.6100 c2        1 3QG     -0.132000
     35 H3        151.3700  215.0860 -292.1710 hc        1 3QG      0.128000
     36 H4        151.9730  216.0970 -290.8380 hc        1 3QG      0.128000
     37 H5        152.3440  214.1730 -289.6690 hx        1 3QG      0.117000
     38 H6        150.5420  214.2260 -289.3850 hx        1 3QG      0.117000
     39 H8        153.1510  213.2530 -291.7850 hx        1 3QG      0.147500
     40 H9        153.2040  212.0230 -290.4090 hx        1 3QG      0.147500
     41 H10       152.3160  211.5150 -293.3340 hc        1 3QG      0.090000
     42 H11       152.3030  210.2750 -291.9780 hc        1 3QG      0.090000
     43 H14       150.8450  210.7980 -290.4520 hx        1 3QG      0.123500
     44 H15       151.1700  211.8360 -288.9890 hx        1 3QG      0.123500
     45 H16       148.6020  212.0540 -290.7600 h1        1 3QG      0.114000
     46 H17       148.9260  212.9340 -289.2040 h1        1 3QG      0.114000
     47 H19      -732.9070-1066.9660    0.7890 hc        1 3QG      0.053000
     48 H20      -732.1780-1065.8270    0.0470 DU        1 3QG      0.076000
     49 H21      -732.5790-1065.2230    0.0090 hc        1 3QG      0.053000
     50 H22      -731.8430-1064.0730    0.2800 ha        1 3QG      0.221000
     51 H25       149.0310  209.3930 -290.3840 h1        1 3QG      0.084500
     52 H26       147.2990  209.9510 -290.3940 h1        1 3QG      0.084500
     53 H27       147.9440  207.5820 -289.4840 h1        1 3QG      0.090500
     54 H28       148.6120  208.4200 -288.0110 h1        1 3QG      0.090500
     55 H29       148.0670  214.5250 -290.7020 ho        1 3QG      0.225000
     56 H30       145.1840  204.1230 -288.1890 h5        1 3QG      0.123000
     57 H31       146.2100  210.5640 -287.6630 h5        1 3QG      0.194000
     58 HBD1      150.6540  212.9110 -291.6940 hn        1 3QG      0.224000
     59 HBC1      149.0230  210.7150 -288.1680 hn        1 3QG      0.153000
@<TRIPOS>BOND
     1    1    2 1   
     2    1   55 1   
     3    2    3 1   
     4    2    4 1   
     5    2    5 1   
     6    5    6 1   
     7    5   35 1   
     8    5   36 1   
     9    6    7 1   
    10    6   37 1   
    11    6   38 1   
    12    7    8 1   
    13    7   14 1   
    14    7   58 1   
    15    8    9 1   
    16    8   39 1   
    17    8   40 1   
    18    9   10 1   
    19    9   41 1   
    20    9   42 1   
    21   10   11 1   
    22   10   12 1   
    23   10   13 1   
    24   14   15 1   
    25   14   43 1   
    26   14   44 1   
    27   15   16 1   
    28   15   45 1   
    29   15   46 1   
    30   16   23 1   
    31   16   59 1   
    32   17   18 1   
    33   17   47 1   
    34   17   48 1   
    35   17   49 1   
    36   18   48 1   
    37   18   50 1   
    38   19   21 1   
    39   19   22 1   
    40   20   21 1   
    41   20   22 1   
    42   23   24 1   
    43   23   51 1   
    44   23   52 1   
    45   24   25 1   
    46   24   53 1   
    47   24   54 1   
    48   25   26 1   
    49   25   34 1   
    50   26   27 1   
    51   26   32 1   
    52   27   28 1   
    53   28   29 1   
    54   28   56 1   
    55   29   30 1   
    56   30   31 1   
    57   30   32 1   
    58   32   33 1   
    59   33   34 1   
    60   34   57 1   
@<TRIPOS>SUBSTRUCTURE
     1 3QG         1 TEMP              0 ****  ****    0 ROOT
