@<TRIPOS>MOLECULE
3QI
   33    35     1     0     0
SMALL
bcc


@<TRIPOS>ATOM
      1 CAA         4.7450    1.6910   -1.8420 c3        1 3QI     -0.062800
      2 CAC        -2.8180    2.7240   -0.3080 c3        1 3QI     -0.048800
      3 OAD         0.1390    1.9700   -0.2120 o         1 3QI     -0.612500
      4 SAE         1.3750   -2.8150    0.4420 sh        1 3QI     -0.182000
      5 CAF         3.9860   -0.0000    1.4550 ca        1 3QI      0.409200
      6 CAG         4.7140    0.6390    0.4350 ca        1 3QI     -0.242300
      7 CAH         2.6820    0.6920   -0.8560 ca        1 3QI     -0.201300
      8 NAI         2.6810   -0.2980    1.3790 nb        1 3QI     -0.663000
      9 NAJ        -1.1090   -1.9270    0.3440 nc        1 3QI     -0.627100
     10 SAK        -3.7060   -1.1190    0.2540 ss        1 3QI      0.091200
     11 CAL         4.0460    0.9950   -0.7390 ca        1 3QI     -0.033300
     12 CAM        -4.0130    0.5200    0.0250 cc        1 3QI     -0.146400
     13 CAN        -2.8540    1.2700   -0.0930 cd        1 3QI     -0.017300
     14 CAO         2.0330    0.0380    0.2210 ca        1 3QI      0.493200
     15 CAP         0.1730   -1.5730    0.3040 cd        1 3QI      0.535800
     16 CAQ        -0.2950    0.8200   -0.0370 c         1 3QI      0.750100
     17 CAR        -2.0430   -0.9230    0.2110 cc        1 3QI      0.169300
     18 CAS        -1.6990    0.4340    0.0140 cd        1 3QI     -0.239600
     19 NAT         0.6330   -0.2610    0.1070 n         1 3QI     -0.383800
     20 HAA         4.4780    1.2350   -2.8280 hc        1 3QI      0.053700
     21 HAAA        4.4430    2.7690   -1.8630 hc        1 3QI      0.053700
     22 HAAB        5.8540    1.6380   -1.7150 hc        1 3QI      0.053700
     23 HAB        -6.1350    0.2280    0.0830 hc        1 3QI      0.047700
     24 HABA       -5.5440    1.7980    0.7800 hc        1 3QI      0.047700
     25 HABB       -5.5600    1.5550   -1.0150 hc        1 3QI      0.047700
     26 HAC        -3.6050    3.2270    0.3080 hc        1 3QI      0.057700
     27 HACA       -1.8170    3.1460   -0.0380 hc        1 3QI      0.057700
     28 HACB       -3.0190    2.9540   -1.3850 hc        1 3QI      0.057700
     29 HSAE        0.5870   -3.8840    0.4190 hs        1 3QI      0.215800
     30 HAF         4.4760   -0.2890    2.4030 h4        1 3QI      0.028100
     31 HAG         5.7830    0.8530    0.5680 ha        1 3QI      0.148000
     32 HAH         2.1210    0.9840   -1.7550 ha        1 3QI      0.162000
     33 CAB        -5.3800    1.0450   -0.0340 c3        1 3QI     -0.017800
@<TRIPOS>BOND
     1    1   11 1   
     2    1   20 1   
     3    1   21 1   
     4    1   22 1   
     5    2   13 1   
     6    2   26 1   
     7    2   27 1   
     8    2   28 1   
     9    3   16 2   
    10    4   15 1   
    11    4   29 1   
    12    5    6 ar  
    13    5    8 ar  
    14    5   30 1   
    15    6   11 ar  
    16    6   31 1   
    17    7   11 ar  
    18    7   14 ar  
    19    7   32 1   
    20    8   14 ar  
    21    9   15 2   
    22    9   17 1   
    23   10   12 1   
    24   10   17 1   
    25   12   13 2   
    26   12   33 1   
    27   13   18 1   
    28   14   19 1   
    29   15   19 1   
    30   16   18 1   
    31   16   19 1   
    32   17   18 2   
    33   23   33 1   
    34   24   33 1   
    35   25   33 1   
@<TRIPOS>SUBSTRUCTURE
     1 3QI         1 TEMP              0 ****  ****    0 ROOT
