@<TRIPOS>MOLECULE
3QI
   33    34     1     0     0
SMALL
bcc


@<TRIPOS>ATOM
      1 CAA         0.7280   -1.0510   -0.0080 c3        1 3QI     -0.086100
      2 CAC         3.3570   -3.5550   -6.6600 c3        1 3QI     -0.049800
      3 OAD         2.5120   -2.1010   -4.1040 o         1 3QI     -0.584500
      4 SAE         3.4910    2.8580   -3.8160 sh        1 3QI     -0.173000
      5 CAF         3.8170    0.3170    0.6190 c1        1 3QI      0.294500
      6 CAG         2.5190    0.4640    0.7770 c2        1 3QI     -0.308300
      7 CAH         2.0550    0.2110   -1.6150 c1        1 3QI     -0.088100
      8 NAI         5.0140    0.0260    0.5380 n2        1 3QI     -0.639800
      9 NAJ         4.0390    1.3290   -5.8330 nc        1 3QI     -0.571100
     10 SAK         4.7460   -0.0880   -8.0420 ss        1 3QI      0.118200
     11 CAL         1.5000    0.2350   -0.2870 c3        1 3QI      0.093600
     12 CAM         4.4030   -1.7320   -8.0680 cc        1 3QI     -0.148400
     13 CAN         3.7800   -2.1700   -6.9080 cd        1 3QI     -0.019300
     14 CAO         2.4950    0.2270   -2.7310 c1        1 3QI     -0.091800
     15 CAP         3.5040    1.3180   -4.6190 cd        1 3QI      0.511800
     16 CAQ         2.9960   -1.1130   -4.6710 c         1 3QI      0.751100
     17 CAR         4.0970    0.1320   -6.5140 cc        1 3QI      0.151300
     18 CAS         3.5980   -1.0850   -5.9960 cd        1 3QI     -0.231600
     19 NAT         2.9830    0.1600   -3.9910 n         1 3QI     -0.248100
     20 HAA         1.4070   -1.9350   -0.0590 hc        1 3QI      0.049033
     21 HAAA        0.2790   -1.0000    1.0120 hc        1 3QI      0.049033
     22 HAAB       -0.0860   -1.1810   -0.7600 hc        1 3QI      0.049033
     23 HAB         5.4510   -3.3900   -8.9060 hc        1 3QI      0.049033
     24 HABA        3.8280   -3.0550   -9.6380 hc        1 3QI      0.049033
     25 HABB        5.2360   -1.9770  -10.0270 hc        1 3QI      0.049033
     26 HAC         2.4090   -3.7690   -7.2160 hc        1 3QI      0.059033
     27 HACA        3.1740   -3.7320   -5.5700 hc        1 3QI      0.059033
     28 HACB        4.1410   -4.2700   -7.0190 hc        1 3QI      0.059033
     29 HSAE        2.7600    2.5730   -2.7510 hs        1 3QI      0.204800
     30 HAF         5.6760    0.7220    0.2650 hn        1 3QI      0.434400
     31 HAG         2.1180    0.7420    1.7650 ha        1 3QI      0.161000
     32 HAH         0.7680    1.1020   -0.2400 hc        1 3QI      0.067700
     33 CAB         4.7480   -2.5750   -9.2170 c3        1 3QI     -0.019800
@<TRIPOS>BOND
     1    1   11 1   
     2    1   20 1   
     3    1   21 1   
     4    1   22 1   
     5    2   13 1   
     6    2   26 1   
     7    2   27 1   
     8    2   28 1   
     9    3   16 2   
    10    4   15 1   
    11    4   29 1   
    12    5    6 2   
    13    5    8 2   
    14    6   11 1   
    15    6   31 1   
    16    7   11 1   
    17    7   14 3   
    18    8   30 1   
    19    9   15 2   
    20    9   17 1   
    21   10   12 1   
    22   10   17 1   
    23   11   32 1   
    24   12   13 2   
    25   12   33 1   
    26   13   18 1   
    27   14   19 1   
    28   15   19 1   
    29   16   18 1   
    30   16   19 1   
    31   17   18 2   
    32   23   33 1   
    33   24   33 1   
    34   25   33 1   
@<TRIPOS>SUBSTRUCTURE
     1 3QI         1 TEMP              0 ****  ****    0 ROOT
