@<TRIPOS>MOLECULE
3QI
   33    34     1     0     0
SMALL
bcc


@<TRIPOS>ATOM
      1 CAA         0.6580   -0.9610   -0.0490 c3        1 3QI     -0.086100
      2 CAC         3.3490   -3.5910   -6.6250 c3        1 3QI     -0.049800
      3 OAD         2.4880   -2.0910   -4.1010 o         1 3QI     -0.584500
      4 SAE         3.5640    2.8500   -3.8510 sh        1 3QI     -0.173000
      5 CAF         3.7570    0.3640    0.6170 c1        1 3QI      0.294500
      6 CAG         2.4590    0.5350    0.7500 c2        1 3QI     -0.308300
      7 CAH         2.0340    0.2590   -1.6470 c1        1 3QI     -0.088100
      8 NAI         4.9500    0.0530    0.5620 n2        1 3QI     -0.639800
      9 NAJ         4.1170    1.2880   -5.8400 nc        1 3QI     -0.571100
     10 SAK         4.8350   -0.1700   -8.0190 ss        1 3QI      0.118200
     11 CAL         1.4550    0.3090   -0.3300 c3        1 3QI      0.093600
     12 CAM         4.4580   -1.8060   -8.0340 cc        1 3QI     -0.148400
     13 CAN         3.8050   -2.2170   -6.8810 cd        1 3QI     -0.019300
     14 CAO         2.4950    0.2530   -2.7550 c1        1 3QI     -0.091800
     15 CAP         3.5600    1.3010   -4.6360 cd        1 3QI      0.511800
     16 CAQ         3.0030   -1.1200   -4.6710 c         1 3QI      0.751100
     17 CAR         4.1630    0.0820   -6.5070 cc        1 3QI      0.151300
     18 CAS         3.6300   -1.1190   -5.9850 cd        1 3QI     -0.231600
     19 NAT         3.0040    0.1610   -4.0060 n         1 3QI     -0.248100
     20 HAA        -0.1440   -1.0880   -0.8140 hc        1 3QI      0.049033
     21 HAAA        1.3240   -1.8560   -0.0760 hc        1 3QI      0.049033
     22 HAAB        0.1910   -0.8890    0.9620 hc        1 3QI      0.049033
     23 HAB         5.4860   -3.4950   -8.8340 hc        1 3QI      0.049033
     24 HABA        3.8840   -3.1350   -9.5990 hc        1 3QI      0.049033
     25 HABB        5.3220   -2.0910   -9.9740 hc        1 3QI      0.049033
     26 HAC         2.4070   -3.7920   -7.1960 hc        1 3QI      0.059033
     27 HACA        3.1430   -3.7520   -5.5370 hc        1 3QI      0.059033
     28 HACB        4.1240   -4.3260   -6.9610 hc        1 3QI      0.059033
     29 HSAE        2.8070    2.5930   -2.7960 hs        1 3QI      0.204800
     30 HAF         5.6290    0.7340    0.2920 hn        1 3QI      0.434400
     31 HAG         2.0450    0.8330    1.7260 ha        1 3QI      0.161000
     32 HAH         0.7370    1.1880   -0.3070 hc        1 3QI      0.067700
     33 CAB         4.8060   -2.6690   -9.1670 c3        1 3QI     -0.019800
@<TRIPOS>BOND
     1    1   11 1   
     2    1   20 1   
     3    1   21 1   
     4    1   22 1   
     5    2   13 1   
     6    2   26 1   
     7    2   27 1   
     8    2   28 1   
     9    3   16 2   
    10    4   15 1   
    11    4   29 1   
    12    5    6 2   
    13    5    8 2   
    14    6   11 1   
    15    6   31 1   
    16    7   11 1   
    17    7   14 3   
    18    8   30 1   
    19    9   15 2   
    20    9   17 1   
    21   10   12 1   
    22   10   17 1   
    23   11   32 1   
    24   12   13 2   
    25   12   33 1   
    26   13   18 1   
    27   14   19 1   
    28   15   19 1   
    29   16   18 1   
    30   16   19 1   
    31   17   18 2   
    32   23   33 1   
    33   24   33 1   
    34   25   33 1   
@<TRIPOS>SUBSTRUCTURE
     1 3QI         1 TEMP              0 ****  ****    0 ROOT
