@<TRIPOS>MOLECULE
3QI
   33    35     1     0     0
SMALL
bcc


@<TRIPOS>ATOM
      1 CAA         0.4420    1.5280    1.7650 c3        1 3QI     -0.013000
      2 CAC         5.1160   -3.5110   -6.4640 c3        1 3QI     -0.047800
      3 OAD         3.9240   -2.4760   -3.8710 o         1 3QI     -0.669500
      4 SAE         1.7840    1.9520   -3.7690 ss        1 3QI     -0.085300
      5 CAF         2.3690   -1.2590   -0.3860 ce        1 3QI      0.001100
      6 CAG         1.6980   -0.2490    0.2950 cg        1 3QI     -0.148200
      7 CAH         1.8240    0.9910   -2.2700 c3        1 3QI     -0.037600
      8 NAI         2.7320   -1.2650   -1.6770 nh        1 3QI     -0.051200
      9 NAJ         2.8850    0.9430   -5.9940 nc        1 3QI     -0.567100
     10 SAK         4.0140   -0.1150   -8.2300 ss        1 3QI      0.102200
     11 CAL         1.1230    0.5630    0.9690 c1        1 3QI     -0.146100
     12 CAM         4.7070   -1.6430   -8.1190 cc        1 3QI     -0.145400
     13 CAN         4.6080   -2.1870   -6.8480 cd        1 3QI     -0.019300
     14 CAO         2.5240   -0.2920   -2.5890 c2        1 3QI     -0.085900
     15 CAP         2.6120    0.7620   -4.7090 cd        1 3QI      0.480800
     16 CAQ         3.6310   -1.4700   -4.5530 c         1 3QI      0.749100
     17 CAR         3.5500   -0.0890   -6.6210 cc        1 3QI      0.159300
     18 CAS         3.9340   -1.2860   -5.9650 cd        1 3QI     -0.235600
     19 NAT         2.9470   -0.3850   -3.9530 n         1 3QI     -0.276900
     20 HAA        -0.5720    1.7480    1.3390 hc        1 3QI      0.054033
     21 HAAA        1.0220    2.4860    1.8110 hc        1 3QI      0.054033
     22 HAAB        0.3100    1.1450    2.8110 hc        1 3QI      0.054033
     23 HAB         6.4200   -2.4930   -9.0650 hc        1 3QI      0.048367
     24 HABA        4.8380   -3.2620   -9.5020 hc        1 3QI      0.048367
     25 HABB        5.2750   -1.6370  -10.1850 hc        1 3QI      0.048367
     26 HAC         4.3750   -4.3000   -6.7530 hc        1 3QI      0.057367
     27 HACA        5.2790   -3.5730   -5.3580 hc        1 3QI      0.057367
     28 HACB        6.0800   -3.7270   -6.9900 hc        1 3QI      0.057367
     29 HSAE        0.7800    0.8020   -1.9130 h1        1 3QI      0.098700
     30 HAF         3.2180   -2.1000   -1.9940 hn        1 3QI      0.335700
     31 HAG         2.6410   -2.1650    0.1880 h4        1 3QI      0.043800
     32 HAH         2.3680    1.5570   -1.4710 h1        1 3QI      0.098700
     33 CAB         5.3390   -2.2850   -9.2760 c3        1 3QI     -0.019800
@<TRIPOS>BOND
     1    1   11 1   
     2    1   20 1   
     3    1   21 1   
     4    1   22 1   
     5    2   13 1   
     6    2   26 1   
     7    2   27 1   
     8    2   28 1   
     9    3   16 2   
    10    4    7 1   
    11    4   15 1   
    12    5    6 1   
    13    5    8 2   
    14    5   31 1   
    15    6   11 3   
    16    7   14 1   
    17    7   29 1   
    18    7   32 1   
    19    8   14 1   
    20    8   30 1   
    21    9   15 2   
    22    9   17 1   
    23   10   12 1   
    24   10   17 1   
    25   12   13 2   
    26   12   33 1   
    27   13   18 1   
    28   14   19 2   
    29   15   19 1   
    30   16   18 1   
    31   16   19 1   
    32   17   18 2   
    33   23   33 1   
    34   24   33 1   
    35   25   33 1   
@<TRIPOS>SUBSTRUCTURE
     1 3QI         1 TEMP              0 ****  ****    0 ROOT
