@<TRIPOS>MOLECULE
3QI
   33    30     1     0     0
SMALL
bcc


@<TRIPOS>ATOM
      1 CAA        -0.7280    1.0780    5.3810 c3        1 3QI     -0.188000
      2 CAB         2.2260   -1.5260   -5.2160 c3        1 3QI     -0.143000
      3 CAC         0.9360   -3.2850   -2.5500 c3        1 3QI     -0.174000
      4 OAD        -0.3250   -1.5630    0.1900 o         1 3QI     -0.337000
      5 SAE        -0.1870    3.5010    0.4150 sh        1 3QI      0.214000
      6 CAF        -2.9880    0.9780    2.4150 c1        1 3QI     -0.116500
      7 CAG        -2.4960    1.0380    3.7100 c1        1 3QI     -0.116500
      8 CAH        -0.2950    0.8010    2.8830 c1        1 3QI     -0.136000
      9 NAI        -2.1310    0.8300    1.3670 n1        1 3QI     -0.137000
     10 NAJ         0.6980    1.9190   -1.7180 n1        1 3QI     -0.200000
     11 SAK         1.5960    0.3020   -3.7460 ss        1 3QI      0.631000
     12 CAL        -1.1530    0.9490    3.9340 c1        1 3QI     -0.026000
     13 CAM         1.6240   -1.2370   -3.8600 c2        1 3QI     -0.409000
     14 CAN         1.0430   -1.7810   -2.6550 c2        1 3QI     -0.010000
     15 CAO        -0.7890    0.7410    1.5890 c1        1 3QI      0.085000
     16 CAP         0.1060    1.9490   -0.3890 c2        1 3QI      0.017000
     17 CAQ         0.0090   -0.5280   -0.3510 c1        1 3QI      0.387000
     18 CAR         0.9470    0.6620   -2.3670 c1        1 3QI     -0.240000
     19 CAS         0.6130   -0.5600   -1.7070 c1        1 3QI     -0.219000
     20 NAT        -0.2340    0.7100    0.2840 n3        1 3QI     -0.230000
     21 HAA         0.2370    0.9240    5.4540 hc        1 3QI      0.093000
     22 HAAA       -0.9410    1.9780    5.7050 hc        1 3QI      0.093000
     23 HAAB       -1.2060    0.4150    5.9220 hc        1 3QI      0.093000
     24 HAB         3.1540   -1.2090   -5.2360 hc        1 3QI      0.087000
     25 HABA        2.2080   -2.4920   -5.3830 hc        1 3QI      0.087000
     26 HABB        1.7090   -1.0650   -5.9090 hc        1 3QI      0.087000
     27 HAC         1.6860   -3.7000   -3.0260 hc        1 3QI      0.097000
     28 HACA        0.9620   -3.5500   -1.6060 hc        1 3QI      0.097000
     29 HACB        0.0920   -3.5820   -2.9490 hc        1 3QI      0.097000
     30 HSAE        0.0210    4.3800   -0.3420 hs        1 3QI      0.044000
     31 HAF        -3.9490    1.0420    2.2550 ha        1 3QI      0.156500
     32 HAG        -3.1110    1.1440    4.4620 ha        1 3QI      0.156500
     33 HAH         0.6660    0.7370    3.0420 ha        1 3QI      0.162000
@<TRIPOS>BOND
     1    1   12 1   
     2    1   21 1   
     3    1   22 1   
     4    1   23 1   
     5    2   13 1   
     6    2   24 1   
     7    2   25 1   
     8    2   26 1   
     9    3   14 1   
    10    3   27 1   
    11    3   28 1   
    12    3   29 1   
    13    4   17 1   
    14    5   16 1   
    15    5   30 1   
    16    6    7 1   
    17    6   31 1   
    18    7   32 1   
    19    8   12 1   
    20    8   33 1   
    21    9   15 1   
    22   10   16 1   
    23   11   13 1   
    24   11   18 1   
    25   13   14 1   
    26   14   19 1   
    27   15   20 1   
    28   16   20 1   
    29   17   20 1   
    30   18   19 1   
@<TRIPOS>SUBSTRUCTURE
     1 3QI         1 TEMP              0 ****  ****    0 ROOT
