@<TRIPOS>MOLECULE
3QL
   56    58     1     0     0
SMALL
bcc


@<TRIPOS>ATOM
      1 O7A         3.1080   -0.7170    0.5570 o         1 3QL     -0.396100
      2 C7A         3.8580   -0.4420   -0.3590 c         1 3QL      0.585100
      3 C8A         5.1630   -1.0330   -0.7490 c3        1 3QL     -0.187100
      4 N2A         3.3660    0.7080   -1.2650 ny        1 3QL     -0.680800
      5 C2A         2.0920    0.3630   -1.9590 c3        1 3QL      0.082500
      6 C3A         2.3060   -0.3560   -3.3100 c3        1 3QL      0.134100
      7 O3A         3.1450   -1.4660   -3.0690 oh        1 3QL     -0.622800
      8 C4A         0.9250   -0.7970   -3.8420 c3        1 3QL      0.090100
      9 O4A         1.1930   -1.3130   -5.1300 oh        1 3QL     -0.579800
     10 C5A        -0.0270    0.4070   -3.9400 c3        1 3QL      0.070100
     11 C6A        -1.4730   -0.0570   -4.1660 c3        1 3QL      0.132400
     12 O6A        -2.3520    1.0440   -4.0870 oh        1 3QL     -0.633800
     13 O5A        -0.0620    1.1430   -2.7080 os        1 3QL     -0.455600
     14 C1A         1.2080    1.6070   -2.2760 c3        1 3QL      0.321900
     15 O1A         0.8830    2.2290   -1.0550 os        1 3QL     -0.423600
     16 C4B         0.6420    3.6430   -1.1120 c3        1 3QL      0.107100
     17 C3B        -0.5830    3.9840   -1.9970 c3        1 3QL      0.118100
     18 O3B        -0.3970    5.3320   -2.3700 oh        1 3QL     -0.566800
     19 C5B         0.4190    4.0650    0.3550 c3        1 3QL      0.115100
     20 O5B        -0.7980    3.4410    0.8100 os        1 3QL     -0.417600
     21 C1B        -1.8370    4.2260    0.2340 c3        1 3QL      0.320900
     22 O1B        -1.3870    5.5590    0.3290 os        1 3QL     -0.384600
     23 C6B         0.0600    5.5630    0.4200 c3        1 3QL      0.104400
     24 C2B        -1.9460    3.7970   -1.2700 c3        1 3QL      0.027500
     25 N2B        -2.3910    2.3700   -1.3540 ny        1 3QL     -0.682800
     26 C7B        -3.8840    2.2180   -1.1060 c         1 3QL      0.557100
     27 O7B        -4.6090    2.8260   -1.8760 o         1 3QL     -0.394100
     28 C8B        -4.2610    1.3390    0.0350 c3        1 3QL     -0.188100
     29 H1          5.4550   -1.7920    0.0280 hc        1 3QL      0.127033
     30 H2          5.0640   -1.5520   -1.7410 hc        1 3QL      0.127033
     31 H3          5.9680   -0.2570   -0.8120 hc        1 3QL      0.127033
     32 H4          4.0910    0.9210   -1.9570 hn        1 3QL      0.460800
     33 H5          1.5070   -0.3110   -1.2580 hx        1 3QL      0.149700
     34 H6          2.7960    0.3300   -4.0600 h1        1 3QL      0.082700
     35 H7          3.1240   -2.0250   -3.8650 ho        1 3QL      0.473000
     36 H8          0.4930   -1.5860   -3.1660 h1        1 3QL      0.081700
     37 H9          0.4790   -1.9230   -5.3640 ho        1 3QL      0.443000
     38 H10         0.3050    1.0950   -4.7670 h1        1 3QL      0.086700
     39 H11        -1.5360   -0.5790   -5.1570 h1        1 3QL      0.081200
     40 H12        -1.7930   -0.7520   -3.3430 h1        1 3QL      0.081200
     41 H13        -2.4750    1.4030   -4.9760 ho        1 3QL      0.444000
     42 H14         1.6800    2.2930   -3.0300 h2        1 3QL      0.084700
     43 H15         1.5440    4.1680   -1.5350 h1        1 3QL      0.095700
     44 H16        -0.5630    3.3400   -2.9260 h1        1 3QL      0.061700
     45 H17        -1.1470    5.6090   -2.9170 ho        1 3QL      0.443000
     46 H18         1.2300    3.7280    1.0410 h1        1 3QL      0.130700
     47 H19        -2.7840    4.1080    0.8180 h2        1 3QL      0.139700
     48 H20         0.4470    6.1700   -0.4350 h1        1 3QL      0.109700
     49 H21         0.3220    6.0200    1.4070 h1        1 3QL      0.109700
     50 H22        -2.7240    4.4460   -1.7740 hx        1 3QL      0.140700
     51 H23        -1.8500    1.8240   -0.6710 hn        1 3QL      0.477800
     52 H24        -3.8130    1.7080    0.9930 hc        1 3QL      0.117700
     53 H25        -3.9250    0.2860   -0.1490 hc        1 3QL      0.117700
     54 H26        -5.3810    1.3440    0.1340 hc        1 3QL      0.117700
     55 H2A2        3.1950    1.5340   -0.6780 hn        1 3QL      0.460800
     56 H2B2       -2.1710    2.0060   -2.2990 hn        1 3QL      0.477800
@<TRIPOS>BOND
     1    1    2 2   
     2    2    3 1   
     3    2    4 1   
     4    3   29 1   
     5    3   30 1   
     6    3   31 1   
     7    4    5 1   
     8    4   32 1   
     9    4   55 1   
    10    5    6 1   
    11    5   14 1   
    12    5   33 1   
    13    6    7 1   
    14    6    8 1   
    15    6   34 1   
    16    7   35 1   
    17    8    9 1   
    18    8   10 1   
    19    8   36 1   
    20    9   37 1   
    21   10   11 1   
    22   10   13 1   
    23   10   38 1   
    24   11   12 1   
    25   11   39 1   
    26   11   40 1   
    27   12   41 1   
    28   13   14 1   
    29   14   15 1   
    30   14   42 1   
    31   15   16 1   
    32   16   17 1   
    33   16   19 1   
    34   16   43 1   
    35   17   18 1   
    36   17   24 1   
    37   17   44 1   
    38   18   45 1   
    39   19   20 1   
    40   19   23 1   
    41   19   46 1   
    42   20   21 1   
    43   21   22 1   
    44   21   24 1   
    45   21   47 1   
    46   22   23 1   
    47   23   48 1   
    48   23   49 1   
    49   24   25 1   
    50   24   50 1   
    51   25   26 1   
    52   25   51 1   
    53   25   56 1   
    54   26   27 2   
    55   26   28 1   
    56   28   52 1   
    57   28   53 1   
    58   28   54 1   
@<TRIPOS>SUBSTRUCTURE
     1 3QL         1 TEMP              0 ****  ****    0 ROOT
