@<TRIPOS>MOLECULE
3QL
   56    58     1     0     0
SMALL
bcc


@<TRIPOS>ATOM
      1 O7A         3.4000   -0.3890    0.5840 o         1 3QL     -0.395100
      2 C7A         4.0600   -0.1620   -0.4110 c         1 3QL      0.584100
      3 C8A         5.3530   -0.7340   -0.8640 c3        1 3QL     -0.187100
      4 N2A         3.4470    0.8950   -1.3580 n4        1 3QL     -0.680800
      5 C2A         2.1370    0.4490   -1.9140 c3        1 3QL      0.082500
      6 C3A         2.2740   -0.3610   -3.2230 c3        1 3QL      0.134100
      7 O3A         3.1770   -1.4170   -2.9750 oh        1 3QL     -0.621800
      8 C4A         0.8750   -0.8930   -3.6050 c3        1 3QL      0.090100
      9 O4A         1.0600   -1.4930   -4.8720 oh        1 3QL     -0.579800
     10 C5A        -0.1330    0.2650   -3.7110 c3        1 3QL      0.068100
     11 C6A        -1.5700   -0.2680   -3.7930 c3        1 3QL      0.131400
     12 O6A        -2.4950    0.7980   -3.7430 oh        1 3QL     -0.639800
     13 O5A        -0.1030    1.0840   -2.5320 os        1 3QL     -0.457600
     14 C1A         1.1760    1.6300   -2.2450 c3        1 3QL      0.322900
     15 O1A         0.9250    2.3320   -1.0500 os        1 3QL     -0.421600
     16 C4B         0.6050    3.7260   -1.1900 c3        1 3QL      0.071100
     17 C3B        -0.6800    3.9450   -2.0270 c3        1 3QL      0.116100
     18 O3B        -0.6380    5.1900   -2.6770 oh        1 3QL     -0.563800
     19 C5B         0.4690    4.2290    0.2630 c3        1 3QL      0.110100
     20 O5B        -0.7280    3.6550    0.8260 os        1 3QL     -0.410600
     21 C1B        -1.7930    4.3870    0.2290 c3        1 3QL      0.316900
     22 O1B        -1.3210    5.7210    0.1220 os        1 3QL     -0.408600
     23 C6B         0.1210    5.7280    0.2620 c3        1 3QL      0.094400
     24 C2B        -1.9920    3.7980   -1.2090 c3        1 3QL      0.032500
     25 N2B        -2.4030    2.3630   -1.1320 n4        1 3QL     -0.679800
     26 C7B        -3.8640    2.1560   -0.7610 c         1 3QL      0.561100
     27 O7B        -4.4350    3.0990   -0.2420 o         1 3QL     -0.400100
     28 C8B        -4.4060    0.8050   -1.0790 c3        1 3QL     -0.192100
     29 H1          5.7370   -1.4210   -0.0610 hc        1 3QL      0.127033
     30 H2          5.1950   -1.3320   -1.8040 hc        1 3QL      0.127033
     31 H3          6.1160    0.0620   -1.0530 hc        1 3QL      0.127033
     32 H4          4.1040    1.0790   -2.1220 hn        1 3QL      0.460300
     33 H5          1.6420   -0.1920   -1.1190 hx        1 3QL      0.149700
     34 H6          2.6700    0.2840   -4.0590 h1        1 3QL      0.082700
     35 H7          3.1220   -2.0310   -3.7270 ho        1 3QL      0.473000
     36 H8          0.5330   -1.6440   -2.8400 h1        1 3QL      0.081700
     37 H9          0.3700   -2.1610   -4.9920 ho        1 3QL      0.442000
     38 H10         0.1060    0.9030   -4.6070 h1        1 3QL      0.088700
     39 H11        -1.6790   -0.8730   -4.7310 h1        1 3QL      0.082200
     40 H12        -1.8060   -0.9010   -2.8940 h1        1 3QL      0.082200
     41 H13        -2.6010    1.1510   -4.6360 ho        1 3QL      0.444000
     42 H14         1.5520    2.2740   -3.0850 h2        1 3QL      0.086700
     43 H15         1.4530    4.2570   -1.7060 h1        1 3QL      0.090700
     44 H16        -0.6740    3.2100   -2.8910 h1        1 3QL      0.094700
     45 H17        -0.9140    5.8900   -2.0630 ho        1 3QL      0.445000
     46 H18         1.3130    3.9210    0.9220 h1        1 3QL      0.135700
     47 H19        -2.7080    4.3570    0.8740 h2        1 3QL      0.164700
     48 H20         0.3620    6.2190    1.2380 h1        1 3QL      0.104200
     49 H21         0.5400    6.3070   -0.5960 h1        1 3QL      0.104200
     50 H22        -2.8110    4.3830   -1.7250 hx        1 3QL      0.148700
     51 H23        -1.8060    1.9010   -0.4300 hn        1 3QL      0.478300
     52 H24        -4.0350    0.0600   -0.3290 hc        1 3QL      0.119700
     53 H25        -5.5270    0.8490   -1.0110 hc        1 3QL      0.119700
     54 H26        -4.1190    0.4720   -2.1100 hc        1 3QL      0.119700
     55 H2A2        3.2880    1.7580   -0.8230 hn        1 3QL      0.460300
     56 H2B2       -2.2210    1.9080   -2.0440 hn        1 3QL      0.478300
@<TRIPOS>BOND
     1    1    2 2   
     2    2    3 1   
     3    2    4 1   
     4    3   29 1   
     5    3   30 1   
     6    3   31 1   
     7    4    5 1   
     8    4   32 1   
     9    4   55 1   
    10    5    6 1   
    11    5   14 1   
    12    5   33 1   
    13    6    7 1   
    14    6    8 1   
    15    6   34 1   
    16    7   35 1   
    17    8    9 1   
    18    8   10 1   
    19    8   36 1   
    20    9   37 1   
    21   10   11 1   
    22   10   13 1   
    23   10   38 1   
    24   11   12 1   
    25   11   39 1   
    26   11   40 1   
    27   12   41 1   
    28   13   14 1   
    29   14   15 1   
    30   14   42 1   
    31   15   16 1   
    32   16   17 1   
    33   16   19 1   
    34   16   43 1   
    35   17   18 1   
    36   17   24 1   
    37   17   44 1   
    38   18   45 1   
    39   19   20 1   
    40   19   23 1   
    41   19   46 1   
    42   20   21 1   
    43   21   22 1   
    44   21   24 1   
    45   21   47 1   
    46   22   23 1   
    47   23   48 1   
    48   23   49 1   
    49   24   25 1   
    50   24   50 1   
    51   25   26 1   
    52   25   51 1   
    53   25   56 1   
    54   26   27 2   
    55   26   28 1   
    56   28   52 1   
    57   28   53 1   
    58   28   54 1   
@<TRIPOS>SUBSTRUCTURE
     1 3QL         1 TEMP              0 ****  ****    0 ROOT
