@<TRIPOS>MOLECULE
3QN
   45    40     1     0     0
SMALL
bcc


@<TRIPOS>ATOM
      1 C1         -4.0430    1.8910   -3.3500 c1        1 3QN      0.306000
      2 N1         -4.5620   -0.2230   -4.3970 n3        1 3QN     -0.325000
      3 O1         -3.7620    2.6450   -4.3370 o         1 3QN     -0.606000
      4 P1          5.5180    1.7100    3.0790 p3        1 3QN      2.508000
      5 C2          1.1230   -2.1890    3.2940 c1        1 3QN     -0.130000
      6 C3         -0.0680   -1.7060    2.7810 c1        1 3QN     -0.163000
      7 C4         -0.0650   -0.5830    1.9480 c1        1 3QN      0.067000
      8 O2         -1.2890    0.0050    1.5570 o         1 3QN     -0.286000
      9 C5          1.1410    0.0560    1.6300 c2        1 3QN     -0.216000
     10 C6          2.3270   -0.4160    2.1350 c1        1 3QN     -0.005000
     11 C7          2.3310   -1.5500    2.9760 c1        1 3QN     -0.130000
     12 C8         -3.7090    0.4310   -3.4060 c3        1 3QN     -0.120000
     13 C9         -2.2720    0.2660   -3.7920 c3        1 3QN     -0.144000
     14 C10        -0.0640    0.2530   -2.5490 c3        1 3QN     -0.151000
     15 C11         0.5510    0.0250   -1.1420 c3        1 3QN     -0.106000
     16 C12        -1.4800   -0.3660   -2.6050 c3        1 3QN     -0.156000
     17 N2          0.8260    1.2780   -0.5230 n2        1 3QN     -0.241000
     18 O3          5.2220    3.0250    2.3670 os        1 3QN     -0.914000
     19 C13        -1.4040   -2.3960    3.1390 c3        1 3QN     -0.138000
     20 O4          5.9660    1.9960    4.5010 o         1 3QN     -1.240000
     21 O5          6.6220    0.9690    2.3390 o         1 3QN     -1.240000
     22 C14         1.1170    1.3270    0.8210 c2        1 3QN      0.009000
     23 O6          4.1960    0.8090    3.1090 os        1 3QN     -0.721000
     24 C15         3.6420    0.3640    1.8660 c3        1 3QN      0.077000
     25 OXT        -4.6700    2.3640   -2.3460 os        1 3QN     -0.914000
     26 H1         -5.1340    0.3770   -4.7420 hn        1 3QN      0.122500
     27 H2         -5.0290   -0.8920   -4.0000 hn        1 3QN      0.122500
     28 H3          1.1220   -2.9890    3.8880 ha        1 3QN      0.186500
     29 H4          3.1720   -1.8840    3.3390 ha        1 3QN      0.186500
     30 H5         -3.8660    0.0100   -2.4900 h1        1 3QN      0.083000
     31 H6         -1.8810    1.1590   -4.0150 hc        1 3QN      0.080500
     32 H7         -2.2080   -0.3390   -4.5990 hc        1 3QN      0.080500
     33 H8          0.4930   -0.1670   -3.2120 hc        1 3QN      0.073000
     34 H9         -0.0800   -0.4790   -0.5900 h1        1 3QN      0.084000
     35 H10         1.3790   -0.4780   -1.2290 h1        1 3QN      0.084000
     36 H11        -1.4100   -1.3250   -2.7380 hc        1 3QN      0.076000
     37 H12        -1.9400   -0.1910   -1.7850 hc        1 3QN      0.076000
     38 H14        -1.9920   -1.7540    3.5940 hc        1 3QN      0.057333
     39 H15        -1.2360   -3.1450    3.7200 hc        1 3QN      0.057333
     40 H16        -1.8340   -2.7080    2.3290 hc        1 3QN      0.057333
     41 H18         1.2930    2.1280    1.2230 h4        1 3QN      0.146000
     42 H19         4.2440   -0.1850    1.4410 h1        1 3QN      0.061500
     43 H20         3.4460    1.1540    1.2870 h1        1 3QN      0.061500
     44 H22        -0.1240    1.2420   -2.7380 hc        1 3QN      0.073000
     45 H23        -1.6130    0.4820    2.2250 ho        1 3QN      0.209000
@<TRIPOS>BOND
     1    1    3 1   
     2    1   12 1   
     3    2   12 1   
     4    2   26 1   
     5    2   27 1   
     6    4   20 1   
     7    4   21 1   
     8    4   23 1   
     9    5   11 1   
    10    5   28 1   
    11    6    7 1   
    12    6   19 1   
    13    7    9 1   
    14    8   45 1   
    15    9   10 1   
    16    9   22 1   
    17   10   24 1   
    18   11   29 1   
    19   12   13 1   
    20   12   30 1   
    21   13   16 1   
    22   13   31 1   
    23   13   32 1   
    24   14   15 1   
    25   14   16 1   
    26   14   33 1   
    27   14   44 1   
    28   15   17 1   
    29   15   34 1   
    30   15   35 1   
    31   16   36 1   
    32   16   37 1   
    33   17   22 1   
    34   19   38 1   
    35   19   39 1   
    36   19   40 1   
    37   22   41 1   
    38   23   24 1   
    39   24   42 1   
    40   24   43 1   
@<TRIPOS>SUBSTRUCTURE
     1 3QN         1 TEMP              0 ****  ****    0 ROOT
