@<TRIPOS>MOLECULE
3QN
   45    45     1     0     0
SMALL
bcc


@<TRIPOS>ATOM
      1 C1         -8.1330    0.1480   -0.3400 c         1 3QN      0.886600
      2 N1         -6.7920   -1.5840   -1.6180 n3        1 3QN     -0.893800
      3 O1         -8.9960    0.0640   -1.2650 o         1 3QN     -0.855300
      4 P1          5.5590   -1.5480   -1.1770 p5        1 3QN      1.314900
      5 C2          3.9600    2.7650    0.5060 ca        1 3QN     -0.104000
      6 C3          2.7140    3.3520    0.7670 ca        1 3QN     -0.189300
      7 C4          1.5560    2.5740    0.5950 ca        1 3QN      0.145100
      8 O2          0.3770    3.2440    0.8560 oh        1 3QN     -0.548100
      9 C5          1.6300    1.2280    0.1620 ca        1 3QN     -0.265900
     10 C6          2.9010    0.6560   -0.0500 ca        1 3QN     -0.010300
     11 C7          4.0560    1.4440    0.1090 ca        1 3QN     -0.159000
     12 C8         -6.8200   -0.6920   -0.4650 c3        1 3QN      0.027500
     13 C9         -5.6230    0.2590   -0.3900 c3        1 3QN     -0.066400
     14 C10        -3.1490    0.5030   -0.0790 c3        1 3QN     -0.075400
     15 C11        -1.8300   -0.2530    0.1060 c3        1 3QN      0.123800
     16 C12        -4.3030   -0.4670   -0.2330 c3        1 3QN     -0.078400
     17 N2         -0.7230    0.6120    0.4190 n2        1 3QN     -0.692900
     18 O3          4.7790   -1.7320   -2.4520 o         1 3QN     -0.922833
     19 O4          6.2730   -2.7560   -0.6450 o         1 3QN     -0.922833
     20 O5          6.2870   -0.2300   -1.0520 o         1 3QN     -0.922833
     21 C14         0.4380    0.4170   -0.1140 ce        1 3QN      0.522800
     22 C15         3.1120   -0.7860   -0.4720 c3        1 3QN      0.235700
     23 OXT        -8.2890    0.8520    0.6970 o         1 3QN     -0.855300
     24 H1         -7.7450   -1.8140   -1.8480 hn        1 3QN      0.328300
     25 H2         -6.4210   -1.0850   -2.4070 hn        1 3QN      0.328300
     26 H3          4.8720    3.3690    0.6230 ha        1 3QN      0.106000
     27 H4          5.0420    0.9420   -0.1310 ha        1 3QN      0.266000
     28 H5         -6.7900   -1.3620    0.4450 h1        1 3QN      0.041700
     29 H6         -5.5900    0.9050   -1.3060 hc        1 3QN      0.043200
     30 H7         -5.7950    0.9350    0.4900 hc        1 3QN      0.043200
     31 H8         -3.3350    1.1700    0.8030 hc        1 3QN      0.038700
     32 H9         -1.9510   -0.9630    0.9760 h1        1 3QN      0.028200
     33 H10        -1.6550   -0.8880   -0.8130 h1        1 3QN      0.028200
     34 H11        -4.3520   -1.1370    0.6660 hc        1 3QN      0.033700
     35 H12        -4.1200   -1.1250   -1.1230 hc        1 3QN      0.033700
     36 H14         2.1130    5.3770    0.4110 hc        1 3QN      0.014033
     37 H15         1.9780    4.8340    2.1280 hc        1 3QN      0.014033
     38 H16         3.6120    5.1960    1.4190 hc        1 3QN      0.014033
     39 H18         0.6320   -0.4070   -0.8430 h4        1 3QN     -0.011200
     40 H19         2.2570   -1.3980   -0.0500 h1        1 3QN      0.020200
     41 H20         3.0730   -0.8240   -1.6050 h1        1 3QN      0.020200
     42 H22        -3.0850    1.1600   -0.9850 hc        1 3QN      0.038700
     43 H23        -0.3540    2.6090    0.8450 ho        1 3QN      0.442000
     44 C13         2.6060    4.7600    1.2040 c3        1 3QN     -0.007800
     45 O6          4.2880   -1.3080   -0.0100 os        1 3QN     -0.559200
@<TRIPOS>BOND
     1    1    3 1   
     2    1   12 1   
     3    1   23 1   
     4    2   12 1   
     5    2   24 1   
     6    2   25 1   
     7    4   18 1   
     8    4   19 1   
     9    4   20 1   
    10    4   45 1   
    11    5    6 ar  
    12    5   11 ar  
    13    5   26 1   
    14    6    7 ar  
    15    6   44 1   
    16    7    8 1   
    17    7    9 ar  
    18    8   43 1   
    19    9   10 ar  
    20    9   21 1   
    21   10   11 ar  
    22   10   22 1   
    23   11   27 1   
    24   12   13 1   
    25   12   28 1   
    26   13   16 1   
    27   13   29 1   
    28   13   30 1   
    29   14   15 1   
    30   14   16 1   
    31   14   31 1   
    32   14   42 1   
    33   15   17 1   
    34   15   32 1   
    35   15   33 1   
    36   16   34 1   
    37   16   35 1   
    38   17   21 2   
    39   21   39 1   
    40   22   40 1   
    41   22   41 1   
    42   22   45 1   
    43   36   44 1   
    44   37   44 1   
    45   38   44 1   
@<TRIPOS>SUBSTRUCTURE
     1 3QN         1 TEMP              0 ****  ****    0 ROOT
