@<TRIPOS>MOLECULE
3QO
   24    22     1     0     0
SMALL
bcc


@<TRIPOS>ATOM
      1 CAA        -2.0340   -0.5030    0.1820 c2        1 3QO     -0.143000
      2 CAB         3.0670    1.1320   -0.0310 c1        1 3QO     -0.220500
      3 CAC        -1.2580   -0.3870    1.2210 c1        1 3QO     -0.111000
      4 CAD         1.9530    3.0650    5.6430 c2        1 3QO     -0.045000
      5 CAE         3.8090    3.8520    4.4230 c2        1 3QO     -0.431000
      6 CAF         4.2620    1.1600   -0.0010 c1        1 3QO     -0.220500
      7 CAG        -0.5090   -0.2760    2.2330 c1        1 3QO     -0.133000
      8 CAH         1.4400    2.0250    4.7520 c2        1 3QO     -0.195000
      9 CAI         4.9760    4.4690    4.2780 c1        1 3QO      0.238000
     10 NAK         2.9620    3.8590    5.5360 n2        1 3QO     -0.097000
     11 CAL         0.2490   -0.1670    3.2920 c2        1 3QO     -0.080000
     12 CAM         2.2100    1.1210    4.1360 c2        1 3QO     -0.127000
     13 HAA        -1.6520   -0.4210   -0.8460 ha        1 3QO      0.134000
     14 HAB         2.0060    1.1100   -0.0650 ha        1 3QO      0.221000
     15 HAC        -3.1140   -0.6900    0.2770 ha        1 3QO      0.134000
     16 HAE         3.4890    3.2970    3.5000 h4        1 3QO      0.177000
     17 HAF         5.3220    1.1840    0.0220 ha        1 3QO      0.221000
     18 HAG        -0.1900   -0.2580    4.3020 ha        1 3QO      0.142000
     19 HAH         0.3420    2.0230    4.6380 ha        1 3QO      0.143000
     20 HAI         3.3070    1.1240    4.2710 ha        1 3QO      0.129000
     21 CAJ         1.7170    0.0470    3.2400 c3        1 3QO     -0.111000
     22 HAD         1.3570    3.2070    6.5730 h4        1 3QO      0.156000
     23 HAJ         2.2190   -0.9220    3.5260 hc        1 3QO      0.110000
     24 HAJA        2.0490    0.2880    2.1890 hc        1 3QO      0.110000
@<TRIPOS>BOND
     1    1    3 1   
     2    1   13 1   
     3    1   15 1   
     4    2    6 1   
     5    2   14 1   
     6    3    7 1   
     7    4    8 1   
     8    4   10 1   
     9    4   22 1   
    10    5    9 1   
    11    5   10 1   
    12    5   16 1   
    13    6   17 1   
    14    7   11 1   
    15    8   12 1   
    16    8   19 1   
    17   11   18 1   
    18   11   21 1   
    19   12   20 1   
    20   12   21 1   
    21   21   23 1   
    22   21   24 1   
@<TRIPOS>SUBSTRUCTURE
     1 3QO         1 TEMP              0 ****  ****    0 ROOT
