@<TRIPOS>MOLECULE
3QO
   24    21     1     0     0
SMALL
bcc


@<TRIPOS>ATOM
      1 CAA        -2.9360   -2.3970    2.6970 c1        1 3QO      0.259000
      2 CAB         3.2180    0.6930   -0.1160 c1        1 3QO     -0.221500
      3 CAC        -1.8040   -1.8160    2.8350 c1        1 3QO     -0.528000
      4 CAD         1.7810    3.4610    5.2100 c2        1 3QO     -0.049000
      5 CAE         4.0440    3.1860    4.6120 c2        1 3QO     -0.435000
      6 CAF         4.2830    0.2990    0.2570 c1        1 3QO     -0.221500
      7 CAG        -0.6710   -1.2350    2.9740 c1        1 3QO      0.215000
      8 CAH         1.1090    2.6980    4.1580 c2        1 3QO     -0.181000
      9 CAI         5.3550    3.1960    4.8340 c1        1 3QO      0.247000
     10 NAK         3.0300    3.6850    5.4350 n2        1 3QO     -0.091000
     11 CAL         0.4920   -0.6620    3.1190 c2        1 3QO     -0.221000
     12 CAM         1.4960    1.4850    3.7480 c2        1 3QO     -0.136000
     13 HAA         0.0390    1.8280   -0.5640 ha        1 3QO      0.000500
     14 HAB         2.2750    1.0430   -0.4590 ha        1 3QO      0.221000
     15 HAC         0.1390    1.6460    0.0810 ha        1 3QO      0.000500
     16 HAE         3.7700    2.7410    3.6180 h4        1 3QO      0.174000
     17 HAF         5.2300   -0.0520    0.5840 ha        1 3QO      0.221000
     18 HAG         1.3240   -1.2220    3.5860 ha        1 3QO      0.179000
     19 HAH         0.2180    3.1930    3.7340 ha        1 3QO      0.140000
     20 HAI         2.3670    0.9760    4.1950 ha        1 3QO      0.133000
     21 CAJ         0.7960    0.7250    2.6810 c3        1 3QO     -0.083000
     22 HAD         1.0900    3.9450    5.9370 h4        1 3QO      0.160000
     23 HAJ         1.4740    0.6690    1.7780 hc        1 3QO      0.107500
     24 HAJA       -0.1400    1.2570    2.3580 hc        1 3QO      0.107500
@<TRIPOS>BOND
     1    1    3 1   
     2    2    6 1   
     3    2   14 1   
     4    3    7 1   
     5    4    8 1   
     6    4   10 1   
     7    4   22 1   
     8    5    9 1   
     9    5   10 1   
    10    5   16 1   
    11    6   17 1   
    12    7   11 1   
    13    8   12 1   
    14    8   19 1   
    15   11   18 1   
    16   11   21 1   
    17   12   20 1   
    18   12   21 1   
    19   13   15 1   
    20   21   23 1   
    21   21   24 1   
@<TRIPOS>SUBSTRUCTURE
     1 3QO         1 TEMP              0 ****  ****    0 ROOT
