@<TRIPOS>MOLECULE
3QO
   24    25     1     0     0
SMALL
bcc


@<TRIPOS>ATOM
      1 CAA         3.5960    0.0020   -0.8970 ca        1 3QO     -0.128000
      2 CAB         3.0110    1.2080   -0.5120 ca        1 3QO     -0.127000
      3 CAC         3.0130   -1.2060   -0.5130 ca        1 3QO     -0.127000
      4 CAD        -3.0000   -1.1490   -0.5050 ca        1 3QO      0.395200
      5 CAE        -3.0010    1.1490   -0.5010 ca        1 3QO      0.395200
      6 CAF         1.8470    1.2080    0.2550 ca        1 3QO     -0.123000
      7 CAG         1.8490   -1.2080    0.2540 ca        1 3QO     -0.123000
      8 CAH        -1.8220   -1.2030    0.2600 ca        1 3QO     -0.242300
      9 CAI        -1.8230    1.2020    0.2650 ca        1 3QO     -0.242300
     10 NAK        -3.5900    0.0000   -0.8850 nb        1 3QO     -0.666000
     11 CAL         1.2580   -0.0000    0.6430 ca        1 3QO     -0.078300
     12 CAM        -1.2200   -0.0010    0.6530 ca        1 3QO     -0.034300
     13 HAA         4.5140    0.0020   -1.5020 ha        1 3QO      0.132000
     14 HAB         3.4680    2.1620   -0.8140 ha        1 3QO      0.132000
     15 HAC         3.4710   -2.1590   -0.8150 ha        1 3QO      0.132000
     16 HAE        -3.5040    2.0780   -0.8260 h4        1 3QO      0.021100
     17 HAF         1.3870    2.1610    0.5560 ha        1 3QO      0.130000
     18 HAG         1.3900   -2.1620    0.5540 ha        1 3QO      0.130000
     19 HAH        -1.3830   -2.1700    0.5400 ha        1 3QO      0.142000
     20 HAI        -1.3860    2.1680    0.5480 ha        1 3QO      0.142000
     21 CAJ         0.0220   -0.0020    1.4790 c3        1 3QO      0.001200
     22 HAD        -3.5010   -2.0770   -0.8330 h4        1 3QO      0.021100
     23 HAJ         0.0230   -0.9070    2.1460 hc        1 3QO      0.059700
     24 HAJA        0.0230    0.9030    2.1470 hc        1 3QO      0.059700
@<TRIPOS>BOND
     1    1    2 ar  
     2    1    3 ar  
     3    1   13 1   
     4    2    6 ar  
     5    2   14 1   
     6    3    7 ar  
     7    3   15 1   
     8    4    8 ar  
     9    4   10 ar  
    10    4   22 1   
    11    5    9 ar  
    12    5   10 ar  
    13    5   16 1   
    14    6   11 ar  
    15    6   17 1   
    16    7   11 ar  
    17    7   18 1   
    18    8   12 ar  
    19    8   19 1   
    20    9   12 ar  
    21    9   20 1   
    22   11   21 1   
    23   12   21 1   
    24   21   23 1   
    25   21   24 1   
@<TRIPOS>SUBSTRUCTURE
     1 3QO         1 TEMP              0 ****  ****    0 ROOT
