@<TRIPOS>MOLECULE
3QO
   24    19     1     0     0
SMALL
bcc


@<TRIPOS>ATOM
      1 CAA        -1.8780   -0.5910   -3.1410 c1        1 3QO     -0.067667
      2 CAB        -0.4920   -0.5910   -3.1410 c1        1 3QO     -0.067667
      3 CAC        -2.5710   -0.5910   -1.9400 c1        1 3QO     -0.067667
      4 CAD         0.6050    1.6610    3.1250 c1        1 3QO     -0.067667
      5 CAE         2.6900    1.3130    2.0730 c1        1 3QO      0.313300
      6 CAF         0.2010   -0.5910   -1.9400 c1        1 3QO     -0.067667
      7 CAG        -1.8780   -0.5910   -0.7400 c1        1 3QO     -0.092500
      8 CAH         0.0020    0.8080    2.2150 c1        1 3QO     -0.067667
      9 CAI         2.0890    0.4600    1.1610 c1        1 3QO     -0.092500
     10 CAJ         0.2150   -1.0120    0.5300 c3        1 3QO     -0.067200
     11 NAK         1.9430    1.9060    3.0470 n1        1 3QO     -0.465800
     12 CAL        -0.4920   -0.5910   -0.7400 c1        1 3QO     -0.022100
     13 CAM         0.7480    0.2130    1.2390 c1        1 3QO     -0.022100
     14 HAA        -2.3660   -0.5910   -3.9860 ha        1 3QO      0.080167
     15 HAB        -0.0040   -0.5910   -3.9860 ha        1 3QO      0.080167
     16 HAC        -3.5480   -0.5910   -1.9400 ha        1 3QO      0.080167
     17 HAD         0.0720    2.0860    3.8230 ha        1 3QO      0.080167
     18 HAE         3.6480    1.4900    2.0180 ha        1 3QO      0.100500
     19 HAF         1.1770   -0.5910   -1.9400 ha        1 3QO      0.080167
     20 HAG        -2.3670   -0.5910    0.1060 ha        1 3QO      0.078500
     21 HAH        -0.9570    0.6320    2.2710 ha        1 3QO      0.080167
     22 HAI         2.6240    0.0350    0.4640 ha        1 3QO      0.078500
     23 HAJ         0.9560   -1.6080    0.3080 hc        1 3QO      0.059200
     24 HAJA       -0.4140   -1.4780    1.1130 hc        1 3QO      0.059200
@<TRIPOS>BOND
     1    1    3 3   
     2    1   14 1   
     3    2    6 3   
     4    2   15 1   
     5    3   16 1   
     6    4    8 3   
     7    4   17 1   
     8    5   11 3   
     9    5   18 1   
    10    6   19 1   
    11    7   12 3   
    12    7   20 1   
    13    8   21 1   
    14    9   13 3   
    15    9   22 1   
    16   10   12 1   
    17   10   13 1   
    18   10   23 1   
    19   10   24 1   
@<TRIPOS>SUBSTRUCTURE
     1 3QO         1 TEMP              0 ****  ****    0 ROOT
