@<TRIPOS>MOLECULE
3QP
   36    33     1     0     0
SMALL
bcc


@<TRIPOS>ATOM
      1 C01        -4.1680    0.7260   -1.0340 c3        1 3QP     -0.122000
      2 C02        -2.6290    0.6920   -1.0580 c2        1 3QP     -0.199000
      3 C03        -1.9230    0.6700    0.1310 c2        1 3QP      0.103000
      4 O04        -2.6140    0.6870    1.3460 oh        1 3QP     -0.307000
      5 C05        -0.5430    0.7710    0.1190 c1        1 3QP     -0.170000
      6 C06         0.1310    0.8940   -1.0910 c1        1 3QP     -0.021000
      7 C07         1.6300    1.0990   -1.1080 c3        1 3QP      0.078000
      8 O08         2.0610    1.3560   -2.4470 os        1 3QP     -0.738000
      9 P09         3.6200    1.6950   -2.6990 p5        1 3QP      1.554500
     10 O10         3.8860    1.7500   -4.1570 o         1 3QP     -0.938500
     11 O11         3.9540    3.0350   -2.0800 o         1 3QP     -0.938500
     12 O12         4.4820    0.6110   -2.0620 o         1 3QP     -0.938500
     13 C13        -0.5800    0.9160   -2.2790 c1        1 3QP     -0.169000
     14 C14        -1.9540    0.8150   -2.2640 c1        1 3QP     -0.127000
     15 C15         0.2450    0.8740    1.4640 c2        1 3QP     -0.066000
     16 N16         0.5820   -0.2320    2.1260 n1        1 3QP     -0.122000
     17 C17         0.2260   -1.4970    1.6200 c2        1 3QP     -0.086000
     18 C18         1.4920   -2.3910    1.5150 c3        1 3QP     -0.166000
     19 C19         1.9780   -2.7570    2.9250 c2        1 3QP      0.341000
     20 O20         1.5100   -3.7930    3.5160 o         1 3QP     -0.625500
     21 O21         2.8150   -2.0140    3.5180 o         1 3QP     -0.625500
     22 C22        -0.7540   -2.1250    2.5440 c2        1 3QP      0.359000
     23 O23        -1.4530   -3.1050    2.1570 o         1 3QP     -0.606000
     24 O24        -0.8240   -1.7300    3.7620 o         1 3QP     -0.606000
     25 H01        -4.4800    1.6310   -0.7060 hc        1 3QP      0.044000
     26 H01A       -4.5070    0.0170   -0.4250 hc        1 3QP      0.044000
     27 H01B       -4.5150    0.5700   -1.9470 hc        1 3QP      0.044000
     28 HO04       -2.8570    1.5170    1.5380 ho        1 3QP      0.275000
     29 H07         1.8690    1.8800   -0.5260 h1        1 3QP      0.065000
     30 H07A        2.0570    0.3190   -0.7830 h1        1 3QP      0.065000
     31 H13        -0.0860    1.0060   -3.1670 ha        1 3QP      0.235000
     32 H14        -2.4440    0.8350   -3.0850 ha        1 3QP      0.083000
     33 H15         0.4950    1.7650    1.8240 h4        1 3QP      0.119000
     34 H17        -0.1770   -1.3930    0.7320 ha        1 3QP      0.034000
     35 H18         1.2810   -3.1860    1.0340 hc        1 3QP      0.062500
     36 H18A        2.1930   -1.9070    1.0470 hc        1 3QP      0.062500
@<TRIPOS>BOND
     1    1    2 1   
     2    1   25 1   
     3    1   26 1   
     4    1   27 1   
     5    2    3 1   
     6    2   14 1   
     7    3    4 1   
     8    3    5 1   
     9    4   28 1   
    10    5   15 1   
    11    6    7 1   
    12    6   13 1   
    13    7    8 1   
    14    7   29 1   
    15    7   30 1   
    16    8    9 1   
    17    9   10 1   
    18    9   11 1   
    19    9   12 1   
    20   13   31 1   
    21   14   32 1   
    22   15   16 1   
    23   15   33 1   
    24   17   18 1   
    25   17   22 1   
    26   17   34 1   
    27   18   19 1   
    28   18   35 1   
    29   18   36 1   
    30   19   20 1   
    31   19   21 1   
    32   22   23 1   
    33   22   24 1   
@<TRIPOS>SUBSTRUCTURE
     1 3QP         1 TEMP              0 ****  ****    0 ROOT
