@<TRIPOS>MOLECULE
3QP
   36    36     1     0     0
SMALL
bcc


@<TRIPOS>ATOM
      1 C01         0.2950    4.8430   -0.1080 c3        1 3QP      0.005200
      2 C02        -0.2840    3.4850   -0.0470 ca        1 3QP     -0.211300
      3 C03         0.5620    2.3590    0.0200 ca        1 3QP      0.155100
      4 O04         1.9000    2.6830    0.0240 oh        1 3QP     -0.565100
      5 C05         0.0440    1.0370    0.0850 ca        1 3QP     -0.215900
      6 C06        -1.3550    0.8750    0.0630 ca        1 3QP     -0.027300
      7 C07        -2.0850   -0.4570    0.1360 c3        1 3QP      0.237700
      8 O08        -3.2560   -0.4590   -0.5860 os        1 3QP     -0.576200
      9 P09        -4.7610   -0.4720    0.2630 p5        1 3QP      1.320900
     10 O10        -5.6550   -1.2780   -0.6430 o         1 3QP     -0.935833
     11 O11        -4.4240   -1.1100    1.5850 o         1 3QP     -0.935833
     12 O12        -5.0930    1.0020    0.3330 o         1 3QP     -0.935833
     13 C13        -2.1920    2.0070   -0.0010 ca        1 3QP     -0.170000
     14 C14        -1.6690    3.2840   -0.0560 ca        1 3QP     -0.128000
     15 C15         0.9510   -0.1300    0.2120 ce        1 3QP      0.463800
     16 N16         2.1930   -0.0750   -0.1200 n2        1 3QP     -0.638900
     17 C17         3.1510   -1.1460    0.0590 c3        1 3QP      0.025500
     18 C18         4.2180   -1.1160   -1.0500 c3        1 3QP     -0.153400
     19 C19         4.5560   -2.4430   -1.7300 c         1 3QP      0.904600
     20 O20         3.7950   -3.4530   -1.6740 o         1 3QP     -0.894300
     21 O21         5.6380   -2.4820   -2.4130 o         1 3QP     -0.894300
     22 C22         3.8560   -1.0000    1.4600 c         1 3QP      0.921600
     23 O23         4.7090   -0.0830    1.6440 o         1 3QP     -0.867300
     24 O24         3.5380   -1.8220    2.3680 o         1 3QP     -0.867300
     25 H01         0.9240    4.9580   -1.0260 hc        1 3QP      0.003033
     26 H01A       -0.5020    5.6270   -0.1230 hc        1 3QP      0.003033
     27 H01B        0.9580    5.0240    0.7760 hc        1 3QP      0.003033
     28 HO04        2.4320    1.8640    0.0860 ho        1 3QP      0.476000
     29 H07        -1.4050   -1.2560   -0.2810 h1        1 3QP      0.026700
     30 H07A       -2.2960   -0.6770    1.2260 h1        1 3QP      0.026700
     31 H13        -3.3010    1.8150    0.0040 ha        1 3QP      0.243000
     32 H14        -2.3400    4.1530   -0.1040 ha        1 3QP      0.086000
     33 H15         0.4580   -1.0340    0.6320 h4        1 3QP     -0.014200
     34 H17         2.6560   -2.1630    0.0450 h1        1 3QP      0.068700
     35 H18         3.9120   -0.4240   -1.8800 hc        1 3QP      0.032200
     36 H18A        5.1660   -0.7030   -0.6160 hc        1 3QP      0.032200
@<TRIPOS>BOND
     1    1    2 1   
     2    1   25 1   
     3    1   26 1   
     4    1   27 1   
     5    2    3 ar  
     6    2   14 ar  
     7    3    4 1   
     8    3    5 ar  
     9    4   28 1   
    10    5    6 ar  
    11    5   15 1   
    12    6    7 1   
    13    6   13 ar  
    14    7    8 1   
    15    7   29 1   
    16    7   30 1   
    17    8    9 1   
    18    9   10 1   
    19    9   11 1   
    20    9   12 1   
    21   13   14 ar  
    22   13   31 1   
    23   14   32 1   
    24   15   16 2   
    25   15   33 1   
    26   16   17 1   
    27   17   18 1   
    28   17   22 1   
    29   17   34 1   
    30   18   19 1   
    31   18   35 1   
    32   18   36 1   
    33   19   20 1   
    34   19   21 1   
    35   22   23 1   
    36   22   24 1   
@<TRIPOS>SUBSTRUCTURE
     1 3QP         1 TEMP              0 ****  ****    0 ROOT
