@<TRIPOS>MOLECULE
3QQ
   65    66     1     0     0
SMALL
bcc


@<TRIPOS>ATOM
      1 C4          0.6240    0.0320   -0.2580 c3        1 3QQ      0.131800
      2 C6         -0.9380   -0.8620    1.4790 c3        1 3QQ      0.194100
      3 C11         1.5310   -3.4390    2.7320 ca        1 3QQ     -0.164500
      4 C7          0.1260   -1.5090    2.3020 ca        1 3QQ     -0.152300
      5 C8          0.5850   -0.9110    3.4820 ca        1 3QQ     -0.086000
      6 C9          1.5130   -1.5590    4.2890 ca        1 3QQ     -0.164500
      7 C10         1.9900   -2.8310    3.9170 ca        1 3QQ      0.160900
      8 C12         0.6050   -2.7740    1.9370 ca        1 3QQ     -0.086000
      9 C3          3.0210   -0.4050   -0.6230 c3        1 3QQ     -0.100600
     10 C1          2.3790    1.5050    0.8240 c3        1 3QQ     -0.100600
     11 C2          2.0120    0.1040    0.3910 c3        1 3QQ     -0.076700
     12 N5         -0.5580    0.2470    0.5880 n3        1 3QQ     -0.901200
     13 F13         2.8890   -3.4690    4.6970 f         1 3QQ     -0.118900
     14 S14        -0.8310    2.3310    1.5560 s4        1 3QQ      1.690300
     15 O15        -0.3280    2.0520    2.7920 o         1 3QQ     -0.452400
     16 O16        -0.1470    3.0190    0.5970 o         1 3QQ     -0.452400
     17 C17        -2.3660    2.3000    1.4070 ca        1 3QQ     -0.831800
     18 C18        -3.2350    1.8210    2.4410 ca        1 3QQ      0.077000
     19 C19        -4.5910    1.8580    2.3120 ca        1 3QQ     -0.329300
     20 C20        -5.1810    2.3930    1.0940 ca        1 3QQ      0.772200
     21 N21        -4.3420    2.8660    0.0690 nb        1 3QQ     -0.735000
     22 C22        -3.0450    2.8110    0.2450 ca        1 3QQ      0.604200
     23 N23        -6.5130    2.4490    0.8920 nh        1 3QQ     -0.777900
     24 C24        -7.5110    2.0050    1.8590 c3        1 3QQ      0.204500
     25 C25        -7.7430    3.0220    2.9880 c3        1 3QQ     -0.111900
     26 C26        -8.7800    2.4650    3.9690 c3        1 3QQ      0.226300
     27 N27       -10.0080    2.0610    3.3430 n3        1 3QQ     -0.817500
     28 C28        -9.8520    1.1910    2.2100 c3        1 3QQ      0.226300
     29 C29        -8.8540    1.7090    1.1690 c3        1 3QQ     -0.111900
     30 S30       -11.4820    2.4760    3.9420 s6        1 3QQ      1.465900
     31 O31       -12.4160    1.4880    3.5840 o         1 3QQ     -0.636800
     32 O32       -11.3440    2.8080    5.3010 o         1 3QQ     -0.636800
     33 C33       -11.8590    3.8930    3.0860 c3        1 3QQ     -0.372300
     34 H1          0.5340   -0.9800   -0.7530 h1        1 3QQ      0.066700
     35 H2          0.5860    0.8210   -1.0660 h1        1 3QQ      0.066700
     36 H3         -1.4420   -1.6690    0.8660 h1        1 3QQ      0.056700
     37 H4         -1.7170   -0.4320    2.1800 h1        1 3QQ      0.056700
     38 H6          0.2180    0.0850    3.7800 ha        1 3QQ      0.147500
     39 H7          1.8760   -1.0910    5.2170 ha        1 3QQ      0.165500
     40 H8          0.2450   -3.2560    1.0140 ha        1 3QQ      0.147500
     41 H9          2.7880   -1.4550   -0.9230 hc        1 3QQ      0.046700
     42 H10         3.0210    0.2370   -1.5370 hc        1 3QQ      0.046700
     43 H11         4.0450   -0.3850   -0.1780 hc        1 3QQ      0.046700
     44 H12         2.1710    2.2470    0.0150 hc        1 3QQ      0.046700
     45 H13         3.4670    1.5540    1.0750 hc        1 3QQ      0.046700
     46 H14         1.8060    1.8010    1.7370 hc        1 3QQ      0.046700
     47 H15         2.0440   -0.5740    1.2910 hc        1 3QQ      0.076700
     48 H16        -2.7770    1.4250    3.3690 ha        1 3QQ      0.171000
     49 H17        -5.2420    1.5010    3.1260 ha        1 3QQ      0.178000
     50 H18        -2.4380    3.2170   -0.5980 h4        1 3QQ      0.061100
     51 H19        -6.8650    2.8520    0.0430 hn        1 3QQ      0.474800
     52 H20        -7.1390    1.0380    2.3190 h1        1 3QQ      0.076700
     53 H21        -8.0950    3.9970    2.5630 hc        1 3QQ      0.065950
     54 H22        -6.7920    3.2110    3.5490 hc        1 3QQ      0.065950
     55 H23        -8.3220    1.5790    4.5020 h1        1 3QQ      0.069450
     56 H24        -9.0040    3.2520    4.7480 h1        1 3QQ      0.069450
     57 H25       -10.8560    1.0510    1.7110 h1        1 3QQ      0.069450
     58 H26        -9.5020    0.1760    2.5610 h1        1 3QQ      0.069450
     59 H27        -8.7280    0.9210    0.3820 hc        1 3QQ      0.065950
     60 H28        -9.2510    2.6350    0.6790 hc        1 3QQ      0.065950
     61 H29       -12.8650    4.2770    3.4010 h1        1 3QQ      0.119367
     62 H30       -11.1450    4.7320    3.2660 h1        1 3QQ      0.119367
     63 H31       -11.9220    3.7500    1.9800 h1        1 3QQ      0.119367
     64 H51        -1.3330    0.3380   -0.0630 hn        1 3QQ      0.374800
     65 H5          1.9060   -4.4340    2.4490 ha        1 3QQ      0.165500
@<TRIPOS>BOND
     1    1   11 1   
     2    1   12 1   
     3    1   34 1   
     4    1   35 1   
     5    2    4 1   
     6    2   12 1   
     7    2   36 1   
     8    2   37 1   
     9    3    7 ar  
    10    3    8 ar  
    11    3   65 1   
    12    4    5 ar  
    13    4    8 ar  
    14    5    6 ar  
    15    5   38 1   
    16    6    7 ar  
    17    6   39 1   
    18    7   13 1   
    19    8   40 1   
    20    9   11 1   
    21    9   41 1   
    22    9   42 1   
    23    9   43 1   
    24   10   11 1   
    25   10   44 1   
    26   10   45 1   
    27   10   46 1   
    28   11   47 1   
    29   12   64 1   
    30   14   15 1   
    31   14   16 1   
    32   14   17 1   
    33   17   18 ar  
    34   17   22 ar  
    35   18   19 ar  
    36   18   48 1   
    37   19   20 ar  
    38   19   49 1   
    39   20   21 ar  
    40   20   23 1   
    41   21   22 ar  
    42   22   50 1   
    43   23   24 1   
    44   23   51 1   
    45   24   25 1   
    46   24   29 1   
    47   24   52 1   
    48   25   26 1   
    49   25   53 1   
    50   25   54 1   
    51   26   27 1   
    52   26   55 1   
    53   26   56 1   
    54   27   28 1   
    55   27   30 1   
    56   28   29 1   
    57   28   57 1   
    58   28   58 1   
    59   29   59 1   
    60   29   60 1   
    61   30   31 2   
    62   30   32 2   
    63   30   33 1   
    64   33   61 1   
    65   33   62 1   
    66   33   63 1   
@<TRIPOS>SUBSTRUCTURE
     1 3QQ         1 TEMP              0 ****  ****    0 ROOT
