@<TRIPOS>MOLECULE
3QQ
   65    66     1     0     0
SMALL
bcc


@<TRIPOS>ATOM
      1 C4          0.6380    0.0570   -0.2460 c3        1 3QQ      0.131800
      2 C6         -0.9370   -0.8550    1.4690 c3        1 3QQ      0.194100
      3 C11         1.5240   -3.4470    2.7090 ca        1 3QQ     -0.164500
      4 C7          0.1220   -1.5120    2.2920 ca        1 3QQ     -0.152300
      5 C8          0.5730   -0.9280    3.4820 ca        1 3QQ     -0.086000
      6 C9          1.4950   -1.5850    4.2880 ca        1 3QQ     -0.164500
      7 C10         1.9750   -2.8530    3.9040 ca        1 3QQ      0.160900
      8 C12         0.6030   -2.7730    1.9150 ca        1 3QQ     -0.086000
      9 C3          3.0370   -0.3780   -0.5990 c3        1 3QQ     -0.100600
     10 C1          2.3860    1.5200    0.8590 c3        1 3QQ     -0.100600
     11 C2          2.0210    0.1230    0.4130 c3        1 3QQ     -0.076700
     12 N5         -0.5500    0.2640    0.5940 n7        1 3QQ     -0.901200
     13 F13         2.8680   -3.5000    4.6830 f         1 3QQ     -0.118900
     14 S14        -0.8290    2.3360    1.5830 s4        1 3QQ      1.690300
     15 O15        -0.3330    2.0430    2.8190 o         1 3QQ     -0.452400
     16 O16        -0.1400    3.0350    0.6360 o         1 3QQ     -0.452400
     17 C17        -2.3640    2.3070    1.4270 ca        1 3QQ     -0.831800
     18 C18        -3.2370    1.8150    2.4500 ca        1 3QQ      0.077000
     19 C19        -4.5930    1.8540    2.3150 ca        1 3QQ     -0.329300
     20 C20        -5.1770    2.4020    1.1000 ca        1 3QQ      0.772200
     21 N21        -4.3330    2.8870    0.0850 nb        1 3QQ     -0.735000
     22 C22        -3.0370    2.8310    0.2660 ca        1 3QQ      0.604200
     23 N23        -6.5080    2.4600    0.8910 nu        1 3QQ     -0.777900
     24 C24        -7.5100    2.0040    1.8490 c3        1 3QQ      0.204500
     25 C25        -7.7490    3.0080    2.9880 c3        1 3QQ     -0.111900
     26 C26        -8.7900    2.4400    3.9570 c3        1 3QQ      0.226300
     27 N27       -10.0150    2.0420    3.3200 n3        1 3QQ     -0.817500
     28 C28        -9.8530    1.1860    2.1780 c3        1 3QQ      0.226300
     29 C29        -8.8490    1.7160    1.1480 c3        1 3QQ     -0.111900
     30 S30       -11.4920    2.4490    3.9160 s6        1 3QQ      1.465900
     31 O31       -12.4240    1.4660    3.5410 o         1 3QQ     -0.636800
     32 O32       -11.3620    2.7640    5.2800 o         1 3QQ     -0.636800
     33 C33       -11.8650    3.8770    3.0760 c3        1 3QQ     -0.372300
     34 H1          0.5520   -0.9510   -0.7520 h1        1 3QQ      0.066700
     35 H2          0.6050    0.8540   -1.0480 h1        1 3QQ      0.066700
     36 H3         -1.7200   -0.4330    2.1700 h1        1 3QQ      0.056700
     37 H4         -1.4370   -1.6560    0.8450 h1        1 3QQ      0.056700
     38 H6          0.2040    0.0650    3.7890 ha        1 3QQ      0.147500
     39 H7          1.8520   -1.1280    5.2240 ha        1 3QQ      0.165500
     40 H8          0.2490   -3.2440    0.9840 ha        1 3QQ      0.147500
     41 H9          2.8060   -1.4260   -0.9080 hc        1 3QQ      0.046700
     42 H10         4.0580   -0.3620   -0.1460 hc        1 3QQ      0.046700
     43 H11         3.0430    0.2710   -1.5070 hc        1 3QQ      0.046700
     44 H12         1.8080    1.8090    1.7710 hc        1 3QQ      0.046700
     45 H13         3.4720    1.5670    1.1170 hc        1 3QQ      0.046700
     46 H14         2.1820    2.2700    0.0550 hc        1 3QQ      0.046700
     47 H15         2.0470   -0.5610    1.3070 hc        1 3QQ      0.076700
     48 H16        -2.7840    1.4090    3.3760 ha        1 3QQ      0.171000
     49 H17        -5.2470    1.4880    3.1210 ha        1 3QQ      0.178000
     50 H18        -2.4250    3.2460   -0.5690 h4        1 3QQ      0.061100
     51 H19        -6.8560    2.8730    0.0450 hn        1 3QQ      0.474800
     52 H20        -7.1400    1.0320    2.2990 h1        1 3QQ      0.076700
     53 H21        -6.8010    3.1920    3.5560 hc        1 3QQ      0.065950
     54 H22        -8.1000    3.9880    2.5720 hc        1 3QQ      0.065950
     55 H23        -8.3350    1.5480    4.4820 h1        1 3QQ      0.069450
     56 H24        -9.0190    3.2180    4.7440 h1        1 3QQ      0.069450
     57 H25       -10.8540    1.0510    1.6730 h1        1 3QQ      0.069450
     58 H26        -9.5030    0.1670    2.5190 h1        1 3QQ      0.069450
     59 H27        -8.7190    0.9370    0.3520 hc        1 3QQ      0.065950
     60 H28        -9.2440    2.6470    0.6660 hc        1 3QQ      0.065950
     61 H29       -11.9240    3.7480    1.9690 h1        1 3QQ      0.119367
     62 H30       -12.8720    4.2580    3.3930 h1        1 3QQ      0.119367
     63 H31       -11.1500    4.7130    3.2690 h1        1 3QQ      0.119367
     64 H51        -1.3210    0.3620   -0.0610 hn        1 3QQ      0.374800
     65 H5          1.9010   -4.4390    2.4170 ha        1 3QQ      0.165500
@<TRIPOS>BOND
     1    1   11 1   
     2    1   12 1   
     3    1   34 1   
     4    1   35 1   
     5    2    4 1   
     6    2   12 1   
     7    2   36 1   
     8    2   37 1   
     9    3    7 ar  
    10    3    8 ar  
    11    3   65 1   
    12    4    5 ar  
    13    4    8 ar  
    14    5    6 ar  
    15    5   38 1   
    16    6    7 ar  
    17    6   39 1   
    18    7   13 1   
    19    8   40 1   
    20    9   11 1   
    21    9   41 1   
    22    9   42 1   
    23    9   43 1   
    24   10   11 1   
    25   10   44 1   
    26   10   45 1   
    27   10   46 1   
    28   11   47 1   
    29   12   64 1   
    30   14   15 1   
    31   14   16 1   
    32   14   17 1   
    33   17   18 ar  
    34   17   22 ar  
    35   18   19 ar  
    36   18   48 1   
    37   19   20 ar  
    38   19   49 1   
    39   20   21 ar  
    40   20   23 1   
    41   21   22 ar  
    42   22   50 1   
    43   23   24 1   
    44   23   51 1   
    45   24   25 1   
    46   24   29 1   
    47   24   52 1   
    48   25   26 1   
    49   25   53 1   
    50   25   54 1   
    51   26   27 1   
    52   26   55 1   
    53   26   56 1   
    54   27   28 1   
    55   27   30 1   
    56   28   29 1   
    57   28   57 1   
    58   28   58 1   
    59   29   59 1   
    60   29   60 1   
    61   30   31 2   
    62   30   32 2   
    63   30   33 1   
    64   33   61 1   
    65   33   62 1   
    66   33   63 1   
@<TRIPOS>SUBSTRUCTURE
     1 3QQ         1 TEMP              0 ****  ****    0 ROOT
