@<TRIPOS>MOLECULE
3QQ
   64    66     1     0     0
SMALL
bcc


@<TRIPOS>ATOM
      1 C4          0.0180    0.3330    0.1770 c3        1 3QQ      0.231800
      2 C6         -0.4750   -1.0450    2.1530 c3        1 3QQ      0.281100
      3 C11         2.6570   -3.1180    2.7230 ca        1 3QQ     -0.169500
      4 C7          0.8030   -1.5580    2.7590 ca        1 3QQ     -0.130300
      5 C8          1.2700   -1.0260    3.9660 ca        1 3QQ     -0.093000
      6 C9          2.4250   -1.5280    4.5590 ca        1 3QQ     -0.169500
      7 C10         3.1220   -2.5790    3.9360 ca        1 3QQ      0.129900
      8 C12         1.5020   -2.6000    2.1440 ca        1 3QQ     -0.093000
      9 C3          1.7650   -0.1480   -1.5230 c3        1 3QQ     -0.090600
     10 C1          2.2530    1.4860    0.2840 c3        1 3QQ     -0.090600
     11 C2          1.5320    0.2050   -0.0690 c3        1 3QQ     -0.088700
     12 N5         -0.4120    0.2610    1.5500 n3        1 3QQ     -0.804500
     13 F13         4.2460   -3.0760    4.5070 f         1 3QQ     -0.140900
     14 S14        -0.8970    1.5960    2.3610 sy        1 3QQ      1.522200
     15 O15        -0.7890    1.3640    3.7540 o         1 3QQ     -0.658300
     16 O16        -0.2400    2.7400    1.8560 o         1 3QQ     -0.658300
     17 C17        -2.5190    1.7140    1.9770 ca        1 3QQ     -0.573800
     18 C18        -3.5160    1.1130    2.7620 ca        1 3QQ      0.060000
     19 C19        -4.8540    1.2550    2.4390 ca        1 3QQ     -0.340300
     20 C20        -5.2110    2.0190    1.2800 ca        1 3QQ      0.716200
     21 N21        -4.2370    2.6390    0.5130 nb        1 3QQ     -0.751000
     22 C22        -2.9660    2.4720    0.8700 ca        1 3QQ      0.556200
     23 N23        -6.5220    2.1180    0.8420 nh        1 3QQ     -0.847900
     24 C24        -7.6440    1.8280    1.7110 c3        1 3QQ      0.219500
     25 C25        -7.8020    2.8140    2.8820 c3        1 3QQ     -0.115900
     26 C26        -8.9960    2.4120    3.7490 c3        1 3QQ      0.224800
     27 N27       -10.2220    2.2590    3.0080 n3        1 3QQ     -0.819500
     28 C28       -10.1160    1.4150    1.8460 c3        1 3QQ      0.224800
     29 C29        -8.9600    1.7890    0.9160 c3        1 3QQ     -0.115900
     30 S30       -11.5990    3.0210    3.4240 s6        1 3QQ      1.461900
     31 O31       -12.7060    2.3530    2.8600 o         1 3QQ     -0.647800
     32 O32       -11.6230    3.2520    4.8130 o         1 3QQ     -0.647800
     33 C33       -11.4600    4.5330    2.6520 c3        1 3QQ     -0.366300
     34 H1         -0.5030   -0.4790   -0.4100 h1        1 3QQ      0.045700
     35 H2         -0.3200    1.3290   -0.2390 h1        1 3QQ      0.045700
     36 H3         -0.8350   -1.7900    1.3840 h1        1 3QQ      0.052700
     37 H4         -1.2510   -1.0050    2.9780 h1        1 3QQ      0.052700
     38 H6          0.7170   -0.2030    4.4540 ha        1 3QQ      0.154000
     39 H7          2.7960   -1.1120    5.5060 ha        1 3QQ      0.150000
     40 H8          1.1400   -3.0210    1.1930 ha        1 3QQ      0.154000
     41 H9          1.3190    0.6260   -2.1930 hc        1 3QQ      0.038200
     42 H10         1.3070   -1.1370   -1.7690 hc        1 3QQ      0.038200
     43 H11         2.8610   -0.2040   -1.7300 hc        1 3QQ      0.038200
     44 H12         2.0250    1.7950    1.3330 hc        1 3QQ      0.038200
     45 H13         1.9380    2.3160   -0.3950 hc        1 3QQ      0.038200
     46 H14         3.3570    1.3460    0.1840 hc        1 3QQ      0.038200
     47 H15         1.9350   -0.6300    0.5730 hc        1 3QQ      0.062700
     48 H16        -3.2220    0.5350    3.6570 ha        1 3QQ      0.156000
     49 H17        -5.6230    0.7880    3.0660 ha        1 3QQ      0.149000
     50 H18        -2.2250    3.0050    0.2340 h4        1 3QQ      0.043100
     51 H19        -6.7070    2.7650    0.1040 hn        1 3QQ      0.438800
     52 H20        -7.4790    0.7940    2.1460 h1        1 3QQ      0.067700
     53 H21        -6.8810    2.8030    3.5220 hc        1 3QQ      0.060700
     54 H22        -7.9380    3.8550    2.4920 hc        1 3QQ      0.060700
     55 H23        -9.1490    3.1890    4.5530 h1        1 3QQ      0.062950
     56 H24        -8.7530    1.4340    4.2600 h1        1 3QQ      0.062950
     57 H25       -11.0850    1.4630    1.2680 h1        1 3QQ      0.062950
     58 H26        -9.9700    0.3460    2.1830 h1        1 3QQ      0.062950
     59 H27        -9.1540    2.7840    0.4390 hc        1 3QQ      0.060700
     60 H28        -8.9010    1.0200    0.1030 hc        1 3QQ      0.060700
     61 H29       -12.3380    5.1790    2.9090 h1        1 3QQ      0.113367
     62 H30       -11.4410    4.4630    1.5380 h1        1 3QQ      0.113367
     63 H31       -10.5530    5.1100    2.9570 h1        1 3QQ      0.113367
     64 H5          3.2080   -3.9400    2.2440 ha        1 3QQ      0.150000
@<TRIPOS>BOND
     1    1   11 1   
     2    1   12 1   
     3    1   34 1   
     4    1   35 1   
     5    2    4 1   
     6    2   12 1   
     7    2   36 1   
     8    2   37 1   
     9    3    7 ar  
    10    3    8 ar  
    11    3   64 1   
    12    4    5 ar  
    13    4    8 ar  
    14    5    6 ar  
    15    5   38 1   
    16    6    7 ar  
    17    6   39 1   
    18    7   13 1   
    19    8   40 1   
    20    9   11 1   
    21    9   41 1   
    22    9   42 1   
    23    9   43 1   
    24   10   11 1   
    25   10   44 1   
    26   10   45 1   
    27   10   46 1   
    28   11   47 1   
    29   12   14 1   
    30   14   15 2   
    31   14   16 2   
    32   14   17 1   
    33   17   18 ar  
    34   17   22 ar  
    35   18   19 ar  
    36   18   48 1   
    37   19   20 ar  
    38   19   49 1   
    39   20   21 ar  
    40   20   23 1   
    41   21   22 ar  
    42   22   50 1   
    43   23   24 1   
    44   23   51 1   
    45   24   25 1   
    46   24   29 1   
    47   24   52 1   
    48   25   26 1   
    49   25   53 1   
    50   25   54 1   
    51   26   27 1   
    52   26   55 1   
    53   26   56 1   
    54   27   28 1   
    55   27   30 1   
    56   28   29 1   
    57   28   57 1   
    58   28   58 1   
    59   29   59 1   
    60   29   60 1   
    61   30   31 2   
    62   30   32 2   
    63   30   33 1   
    64   33   61 1   
    65   33   62 1   
    66   33   63 1   
@<TRIPOS>SUBSTRUCTURE
     1 3QQ         1 TEMP              0 ****  ****    0 ROOT
