@<TRIPOS>MOLECULE
3QR
   48    46     1     0     0
SMALL
bcc


@<TRIPOS>ATOM
      1 C4         -1.5290   -0.0630    0.2540 c3        1 3QR     -0.065000
      2 C5          2.9790   -1.3600    0.0900 c2        1 3QR     -0.277000
      3 C6          4.1140   -1.8620   -0.4300 c2        1 3QR      0.024000
      4 C3         -0.1070   -0.2940    0.3800 c1        1 3QR     -0.145000
      5 CAX         3.8770    8.4880   -1.1960 c2        1 3QR     -0.022000
      6 CAW         3.6310    9.8970   -1.3520 c2        1 3QR     -1.138000
      7 SBA         4.4380   10.7340   -2.2960 s4        1 3QR      2.108800
      8 OBB         4.2050   12.0780   -2.3810 o         1 3QR     -0.468900
      9 OBC         5.5230   10.2060   -2.9380 o         1 3QR     -0.468900
     10 NAZ         3.1040   10.2260   -4.4060 n2        1 3QR     -0.490000
     11 CAY         1.9330   10.5080   -4.7380 c1        1 3QR      0.374000
     12 OBD         0.8050   10.8650   -4.8730 o         1 3QR     -0.126000
     13 CAU         1.8330    9.6880    0.2980 c2        1 3QR     -0.180000
     14 CAT         2.0550    8.3020    0.4510 c1        1 3QR     -0.142000
     15 CAB         3.1120    7.7320   -0.3340 c2        1 3QR      0.002000
     16 NAA         3.3280    6.3360   -0.1740 na        1 3QR     -0.109000
     17 CAC         2.6010    5.5330    0.7190 c2        1 3QR     -0.052000
     18 NAF         4.2310    5.5730   -0.8510 n2        1 3QR     -0.017000
     19 NAE         4.1470    4.3700   -0.4640 n2        1 3QR     -0.087000
     20 CAD         3.1410    4.2480    0.5310 c2        1 3QR     -0.250000
     21 CAG         2.7920    2.9820    1.2100 c3        1 3QR      0.069000
     22 O1          2.2970    1.9960    0.3220 oh        1 3QR     -0.364000
     23 C1          1.3080   -1.7520    1.7560 c1        1 3QR      0.050000
     24 O5          2.3330   -2.1280    1.0890 os        1 3QR     -0.059000
     25 O6          4.7090   -3.0340   -0.0660 oh        1 3QR     -0.252000
     26 O4         -2.3410   -0.1160    1.4130 oh        1 3QR     -0.348000
     27 O3          1.5880    1.0270   -1.9100 oh        1 3QR     -0.422000
     28 C2          0.6270   -0.4110    1.6280 c3        1 3QR     -0.119000
     29 O2         -0.1130   -0.1390    2.8150 oh        1 3QR     -0.342000
     30 H1          1.0360    0.4450   -1.3670 ho        1 3QR      0.208000
     31 H2         -1.6600    0.9290   -0.2750 h1        1 3QR      0.143000
     32 H3          2.4900   -0.4260   -0.2140 h4        1 3QR      0.195000
     33 H4          4.6950   -1.3600   -1.2230 h4        1 3QR      0.182000
     34 H5         -1.9490   -0.8710   -0.4200 h1        1 3QR      0.143000
     35 H7          3.7120    9.7240   -5.0150 hn        1 3QR      0.272000
     36 H12         2.3730   11.5390   -0.6660 ha        1 3QR      0.136000
     37 H13         1.0290   10.1420    0.9010 ha        1 3QR      0.152000
     38 H14         1.8190    5.9500    1.3570 h4        1 3QR      0.227000
     39 H15         2.9520    1.8620   -0.3800 ho        1 3QR      0.235000
     40 H16         1.9530    3.1520    1.9400 h1        1 3QR      0.094500
     41 H17         3.6900    2.5780    1.7560 h1        1 3QR      0.094500
     42 H18         4.1700   -3.4680    0.6150 ho        1 3QR      0.232000
     43 H19        -2.0080    0.5390    2.0410 ho        1 3QR      0.217000
     44 H20         1.2170    1.8990   -1.7480 ho        1 3QR      0.208000
     45 H21         1.4010    0.4370    1.5870 h1        1 3QR      0.202000
     46 H22        -0.5190   -0.9660    3.1080 ho        1 3QR      0.224000
     47 CAV         2.5670   10.4560   -0.5570 c2        1 3QR     -0.007000
     48 H6          4.6990    8.0530   -1.7950 ha        1 3QR      0.159000
@<TRIPOS>BOND
     1    1    4 1   
     2    1   26 1   
     3    1   31 1   
     4    1   34 1   
     5    2    3 1   
     6    2   24 1   
     7    2   32 1   
     8    3   25 1   
     9    3   33 1   
    10    4   28 1   
    11    5    6 1   
    12    5   15 1   
    13    5   48 1   
    14    6    7 1   
    15    6   47 1   
    16    7    8 1   
    17    7    9 1   
    18   10   11 1   
    19   10   35 1   
    20   11   12 1   
    21   13   14 1   
    22   13   37 1   
    23   13   47 1   
    24   14   15 1   
    25   15   16 1   
    26   16   17 1   
    27   16   18 1   
    28   17   20 1   
    29   17   38 1   
    30   18   19 1   
    31   19   20 1   
    32   20   21 1   
    33   21   22 1   
    34   21   40 1   
    35   21   41 1   
    36   22   39 1   
    37   23   24 1   
    38   23   28 1   
    39   25   42 1   
    40   26   43 1   
    41   27   30 1   
    42   27   44 1   
    43   28   29 1   
    44   28   45 1   
    45   29   46 1   
    46   36   47 1   
@<TRIPOS>SUBSTRUCTURE
     1 3QR         1 TEMP              0 ****  ****    0 ROOT
