@<TRIPOS>MOLECULE
3QR
   48    46     1     0     0
SMALL
bcc


@<TRIPOS>ATOM
      1 C4          0.3780   -1.1970   -1.4620 c3        1 3QR     -0.055000
      2 C5          1.6480   -1.1160   -0.6330 c3        1 3QR     -0.156000
      3 C6          1.3250   -2.9800    3.5390 c1        1 3QR     -0.037000
      4 C3         -0.6700    1.2020    0.5320 c1        1 3QR     -0.026000
      5 CAX         4.0290    8.4730   -1.3560 c2        1 3QR     -0.029000
      6 CAW         3.6420    9.8580   -1.2980 c2        1 3QR     -1.140000
      7 SBA         4.2110   10.8710   -2.2480 s4        1 3QR      2.112800
      8 OBB         3.8650   12.1870   -2.1270 o         1 3QR     -0.467400
      9 OBC         5.2070   10.5310   -3.1160 o         1 3QR     -0.467400
     10 NAZ         2.4000   10.3730   -3.9290 n2        1 3QR     -0.493000
     11 CAY         2.1570   10.9120   -5.0300 c1        1 3QR      0.376000
     12 OBD         2.0740   11.5470   -6.0340 o         1 3QR     -0.122000
     13 CAU         2.1680    9.2910    0.5730 c2        1 3QR     -0.182000
     14 CAT         2.5270    7.9280    0.5180 c1        1 3QR     -0.143000
     15 CAB         3.4830    7.5560   -0.4850 c2        1 3QR      0.002000
     16 NAA         3.8400    6.1800   -0.5290 na        1 3QR     -0.111000
     17 CAC         3.3720    5.2230    0.3850 c2        1 3QR     -0.049000
     18 NAF         4.6630    5.5870   -1.4380 n2        1 3QR     -0.019000
     19 NAE         4.7630    4.3510   -1.1790 n2        1 3QR     -0.094000
     20 CAD         3.9810    4.0280   -0.0390 c2        1 3QR     -0.248000
     21 CAG         3.8890    2.6770    0.5580 c3        1 3QR      0.062000
     22 O1          3.5150    1.6810   -0.3800 oh        1 3QR     -0.357000
     23 C1          0.9450   -0.3450    1.5560 c1        1 3QR     -0.027000
     24 O5          1.3550   -1.2720    0.7830 os        1 3QR     -0.069000
     25 O6          0.9160   -1.8730    4.0390 oh        1 3QR     -0.172000
     26 O4         -0.2870   -2.4330   -1.3240 oh        1 3QR     -0.312000
     27 O3         -1.4990    1.9420    1.2340 oh        1 3QR     -0.205000
     28 C2          0.6900    1.0790    1.1640 c3        1 3QR     -0.148000
     29 O2          0.9270    1.9340    2.2710 oh        1 3QR     -0.309000
     30 H1          2.1830   -0.1460   -0.8030 h1        1 3QR      0.121500
     31 H2          0.6430   -1.0150   -2.5390 h1        1 3QR      0.113000
     32 H3          2.3330   -1.9810   -0.8410 h1        1 3QR      0.121500
     33 H4          1.5390   -2.9930    2.4390 ha        1 3QR     -0.005000
     34 H5         -0.3730   -0.4290   -1.1180 h1        1 3QR      0.113000
     35 H7          1.8610    9.6020   -3.6020 hn        1 3QR      0.272000
     36 H12         2.3900   11.2820   -0.2290 ha        1 3QR      0.136000
     37 H13         1.4430    9.5950    1.3460 ha        1 3QR      0.152000
     38 H14         2.6870    5.4870    1.1950 h4        1 3QR      0.230000
     39 H15         4.1350    1.7200   -1.1170 ho        1 3QR      0.218000
     40 H16         3.0790    2.6500    1.3410 h1        1 3QR      0.106000
     41 H17         4.8760    2.3980    1.0230 h1        1 3QR      0.106000
     42 H18         0.8220   -1.1100    3.4080 ho        1 3QR      0.191000
     43 H19         0.3440   -3.1310   -1.5360 ho        1 3QR      0.197000
     44 H20        -2.3460    1.9800    0.7500 ho        1 3QR      0.261000
     45 H21         1.4300    1.4470    0.3780 h1        1 3QR      0.186000
     46 H22         0.3860    1.6150    3.0050 ho        1 3QR      0.214000
     47 CAV         2.6860   10.2190   -0.2850 c2        1 3QR     -0.007000
     48 H6          4.7750    8.1920   -2.1230 ha        1 3QR      0.160000
@<TRIPOS>BOND
     1    1    2 1   
     2    1   26 1   
     3    1   31 1   
     4    1   34 1   
     5    2   24 1   
     6    2   30 1   
     7    2   32 1   
     8    3   25 1   
     9    3   33 1   
    10    4   27 1   
    11    4   28 1   
    12    5    6 1   
    13    5   15 1   
    14    5   48 1   
    15    6    7 1   
    16    6   47 1   
    17    7    8 1   
    18    7    9 1   
    19   10   11 1   
    20   10   35 1   
    21   11   12 1   
    22   13   14 1   
    23   13   37 1   
    24   13   47 1   
    25   14   15 1   
    26   15   16 1   
    27   16   17 1   
    28   16   18 1   
    29   17   20 1   
    30   17   38 1   
    31   18   19 1   
    32   19   20 1   
    33   20   21 1   
    34   21   22 1   
    35   21   40 1   
    36   21   41 1   
    37   22   39 1   
    38   23   24 1   
    39   23   28 1   
    40   25   42 1   
    41   26   43 1   
    42   27   44 1   
    43   28   29 1   
    44   28   45 1   
    45   29   46 1   
    46   36   47 1   
@<TRIPOS>SUBSTRUCTURE
     1 3QR         1 TEMP              0 ****  ****    0 ROOT
