@<TRIPOS>MOLECULE
3QS
   57    57     1     0     0
SMALL
bcc


@<TRIPOS>ATOM
      1 C4          0.3210   -1.4200   -0.6500 c3        1 3QS     -0.064600
      2 C5          1.7440   -1.2010   -0.2000 c2        1 3QS      0.518200
      3 C11         6.3810   -1.5200   -1.1630 cg        1 3QS     -0.124300
      4 C7         -0.3690    2.4710    6.6430 c3        1 3QS     -0.117800
      5 C8         -1.3780   -1.2030    1.3430 c1        1 3QS     -0.118500
      6 C9          4.0840   -1.5130   -0.4420 ce        1 3QS      0.772200
      7 C12         6.7520   -1.3130    0.1930 ce        1 3QS     -0.278700
      8 C13         5.7530   -1.1810    1.1760 cf        1 3QS      0.291500
      9 C3         -0.5960   -1.2970    0.4440 c1        1 3QS     -0.164100
     10 O2          1.3980    3.3410    3.6890 oh        1 3QS     -0.617800
     11 N6          2.7260   -1.7260   -0.8520 ne        1 3QS     -0.694000
     12 N10         5.0680   -1.6040   -1.4510 nu        1 3QS     -0.502000
     13 N14         4.4050   -1.3060    0.8540 nf        1 3QS     -0.641300
     14 N15         6.1210   -0.9700    2.5140 nu        1 3QS     -0.333300
     15 C16         5.3610   -0.3880    3.5240 ce        1 3QS      0.567600
     16 C17         5.7950   -0.5130    4.8470 ce        1 3QS     -0.418600
     17 C18         5.0020    0.1020    5.8580 c2        1 3QS      0.020700
     18 C19         3.5360    0.4070    5.5400 c3        1 3QS     -0.151600
     19 C20         3.1680    1.3510    6.6560 c2        1 3QS     -0.447300
     20 C21         4.1880    1.4170    7.5770 c1        1 3QS     -0.126900
     21 N22         5.2990    0.6450    7.0540 nh        1 3QS      0.070200
     22 C23         6.5310    0.5020    7.7110 c2        1 3QS     -0.148100
     23 C24         6.7620    0.9960   12.0440 c3        1 3QS     -0.093100
     24 C25         6.5600    2.1650   11.1160 c3        1 3QS     -0.082400
     25 C26         5.9230    1.7610    9.8020 c3        1 3QS     -0.061200
     26 C27         6.8330    0.9910    8.9310 c2        1 3QS     -0.082200
     27 C28         3.4150    0.7810    4.1060 c2        1 3QS      0.515200
     28 N29         4.2180    0.3900    3.1660 ne        1 3QS     -0.675000
     29 H1          0.9650    3.9070    3.0400 ho        1 3QS      0.399000
     30 H2          0.0850   -0.6410   -1.4340 hc        1 3QS      0.091200
     31 H3          0.1960   -2.4300   -1.1360 hc        1 3QS      0.091200
     32 H4          1.8450   -0.5520    0.6990 h4        1 3QS      0.020800
     33 H5          4.7860   -1.7490   -2.3980 hn        1 3QS      0.475800
     34 H6         -1.4070    2.8640    6.5950 hc        1 3QS      0.029700
     35 H7          0.1220    2.8310    7.5730 hc        1 3QS      0.029700
     36 H8          0.2070    2.8260    5.7580 hc        1 3QS      0.029700
     37 H9         -2.0730   -1.1190    2.1410 ha        1 3QS      0.171500
     38 H10         7.8220   -1.2490    0.4240 ha        1 3QS      0.162000
     39 H11        -0.3930    1.3600    6.6460 hc        1 3QS      0.029700
     40 H12         2.9230    4.7420    3.9730 h1        1 3QS      0.039700
     41 H13         2.5530    1.4220    3.8120 h4        1 3QS      0.075800
     42 H14         1.4750    4.8970    5.0820 h1        1 3QS      0.039700
     43 H15         7.0480   -1.2480    2.7550 hn        1 3QS      0.304700
     44 H16         6.7330   -1.0140    5.1140 ha        1 3QS      0.152000
     45 H17         2.1870    1.8120    6.7190 ha        1 3QS      0.158000
     46 H18         2.6310    3.4840    5.2810 h1        1 3QS      0.039700
     47 H19         7.2830   -0.0650    7.1290 h4        1 3QS      0.133000
     48 H20         7.4240    0.2280   11.5750 hc        1 3QS      0.031033
     49 H21         7.2330    1.3330   12.9990 hc        1 3QS      0.031033
     50 H22         5.7840    0.5120   12.2850 hc        1 3QS      0.031033
     51 H23         7.5450    2.6670   10.9220 hc        1 3QS      0.038200
     52 H24         5.8960    2.9220   11.6130 hc        1 3QS      0.038200
     53 H25         5.5750    2.6780    9.2450 hc        1 3QS      0.091700
     54 H26         4.9890    1.1600    9.9900 hc        1 3QS      0.091700
     55 H27         7.8510    0.8050    9.3180 ha        1 3QS      0.129000
     56 H28         2.9330   -0.5420    5.6930 hc        1 3QS      0.130700
     57 C1          2.1450    4.1790    4.5470 c3        1 3QS      0.101700
@<TRIPOS>BOND
     1    1    2 1   
     2    1    9 1   
     3    1   30 1   
     4    1   31 1   
     5    2   11 2   
     6    2   32 1   
     7    3    7 1   
     8    3   12 3   
     9    4   34 1   
    10    4   35 1   
    11    4   36 1   
    12    4   39 1   
    13    5    9 3   
    14    5   37 1   
    15    6   11 1   
    16    6   12 1   
    17    6   13 2   
    18    7    8 2   
    19    7   38 1   
    20    8   13 1   
    21    8   14 1   
    22   10   29 1   
    23   10   57 1   
    24   12   33 1   
    25   14   15 2   
    26   14   43 1   
    27   15   16 1   
    28   15   28 1   
    29   16   17 2   
    30   16   44 1   
    31   17   18 1   
    32   17   21 1   
    33   18   19 1   
    34   18   27 1   
    35   18   56 1   
    36   19   20 2   
    37   19   45 1   
    38   20   21 2   
    39   21   22 1   
    40   22   26 2   
    41   22   47 1   
    42   23   24 1   
    43   23   48 1   
    44   23   49 1   
    45   23   50 1   
    46   24   25 1   
    47   24   51 1   
    48   24   52 1   
    49   25   26 1   
    50   25   53 1   
    51   25   54 1   
    52   26   55 1   
    53   27   28 2   
    54   27   41 1   
    55   40   57 1   
    56   42   57 1   
    57   46   57 1   
@<TRIPOS>SUBSTRUCTURE
     1 3QS         1 TEMP              0 ****  ****    0 ROOT
