@<TRIPOS>MOLECULE
3QS
   57    57     1     0     0
SMALL
bcc


@<TRIPOS>ATOM
      1 C4          0.9950    0.0160    0.5840 c3        1 3QS     -0.174000
      2 C5          1.4540    0.9360   -0.5440 c3        1 3QS     -0.059000
      3 C11         5.5610   -0.6950   -0.1830 c1        1 3QS     -0.093000
      4 C7          2.6100    2.9990    0.1120 c3        1 3QS     -0.108000
      5 C8          0.4060   -0.0760    3.0430 c1        1 3QS     -0.098000
      6 C9          3.7570    0.8510    0.2130 c2        1 3QS      0.135000
      7 C12         5.8750   -0.6020    1.1970 c2        1 3QS     -0.326000
      8 C13         5.0670    0.1820    2.0450 c2        1 3QS      0.177000
      9 C3          0.6700    0.7350    1.8770 c3        1 3QS     -0.190000
     10 O2         -0.4930    1.6220    1.5910 os        1 3QS     -0.069000
     11 N6          2.7140    1.6480   -0.3970 n3        1 3QS     -0.236000
     12 N10         4.5080    0.0140   -0.6410 n3        1 3QS     -0.155000
     13 N14         4.0160    0.9380    1.5340 n2        1 3QS     -0.222000
     14 N15         5.3350    0.2320    3.4180 n3        1 3QS     -0.267000
     15 C16         4.4410    0.5520    4.4440 c2        1 3QS      0.170000
     16 C17         5.0660    0.8060    5.7780 c2        1 3QS     -0.211000
     17 C18         4.8570   -0.0410    6.8050 c2        1 3QS     -0.071000
     18 C19         2.6620    1.5220    6.5000 c1        1 3QS     -0.179000
     19 C20         3.1220    2.0400    7.6100 c2        1 3QS     -0.150000
     20 C21         3.9400    1.3010    8.5840 c1        1 3QS     -0.035000
     21 N22         4.8190    0.3870    8.1700 n3        1 3QS     -0.095000
     22 C23         5.6710   -0.2930    9.0790 c2        1 3QS     -0.075000
     23 C24         8.1800    1.0670   11.8540 c3        1 3QS     -0.213000
     24 C25         7.2060    0.0530   12.3960 c3        1 3QS     -0.154000
     25 C26         6.6140   -0.8170   11.3040 c3        1 3QS     -0.131000
     26 C27         5.7190   -0.0540   10.4020 c2        1 3QS     -0.140000
     27 C28         2.3130    0.8980    5.3910 c2        1 3QS     -0.056000
     28 N29         3.1330    0.6340    4.2830 n2        1 3QS     -0.201000
     29 H1          0.0710   -0.5150    0.2260 hc        1 3QS      0.098000
     30 H2          1.7780   -0.7590    0.7960 hc        1 3QS      0.098000
     31 H3          1.5610    0.3050   -1.4740 h1        1 3QS      0.107500
     32 H4          0.6440    1.7000   -0.7280 h1        1 3QS      0.107500
     33 H5          4.2670   -0.0410   -1.6080 hn        1 3QS      0.268000
     34 H6          3.6360    3.4460    0.1920 h1        1 3QS      0.089000
     35 H7          2.0130    3.5880   -0.6350 h1        1 3QS      0.089000
     36 H8          2.1060    3.0730    1.1120 h1        1 3QS      0.089000
     37 H9          1.0030   -0.9830    3.1880 ha        1 3QS      0.078000
     38 H10         6.7400   -1.1690    1.5620 ha        1 3QS      0.160000
     39 H11         1.5060    1.4380    2.1860 h1        1 3QS      0.190000
     40 H12        -1.2370    1.6510    3.5340 ha        1 3QS      0.076000
     41 H13        -1.2060   -1.3320    2.0820 ha        1 3QS      0.013500
     42 H14        -1.5470   -0.8070    2.3540 ha        1 3QS      0.013500
     43 H15         6.2260   -0.1120    3.7030 hn        1 3QS      0.255000
     44 H16         5.4840    1.8190    5.9010 ha        1 3QS      0.165000
     45 H17         4.5500   -1.0940    6.6540 h4        1 3QS      0.151000
     46 H18         2.9470    3.0940    7.8920 ha        1 3QS      0.171000
     47 H19         6.3110   -1.0520    8.5910 h4        1 3QS      0.140000
     48 H20         7.6780    1.7330   11.1120 hc        1 3QS      0.074667
     49 H21         9.0370    0.5600   11.3480 hc        1 3QS      0.074667
     50 H22         8.5830    1.6980   12.6820 hc        1 3QS      0.074667
     51 H23         6.3800    0.5800   12.9430 hc        1 3QS      0.082500
     52 H24         7.7270   -0.6080   13.1380 hc        1 3QS      0.082500
     53 H25         7.4430   -1.3060   10.7260 hc        1 3QS      0.088500
     54 H26         6.0110   -1.6390   11.7810 hc        1 3QS      0.088500
     55 H27         5.0780    0.7120   10.8730 ha        1 3QS      0.163000
     56 H28         1.2820    0.5120    5.2320 h4        1 3QS      0.188000
     57 C1         -1.3180    1.9800    2.4780 c1        1 3QS     -0.049000
@<TRIPOS>BOND
     1    1    2 1   
     2    1    9 1   
     3    1   29 1   
     4    1   30 1   
     5    2   11 1   
     6    2   31 1   
     7    2   32 1   
     8    3    7 1   
     9    3   12 1   
    10    4   11 1   
    11    4   34 1   
    12    4   35 1   
    13    4   36 1   
    14    5    9 1   
    15    5   37 1   
    16    6   11 1   
    17    6   12 1   
    18    6   13 1   
    19    7    8 1   
    20    7   38 1   
    21    8   13 1   
    22    8   14 1   
    23    9   10 1   
    24    9   39 1   
    25   10   57 1   
    26   12   33 1   
    27   14   15 1   
    28   14   43 1   
    29   15   16 1   
    30   15   28 1   
    31   16   17 1   
    32   16   44 1   
    33   17   21 1   
    34   17   45 1   
    35   18   19 1   
    36   18   27 1   
    37   19   20 1   
    38   19   46 1   
    39   20   21 1   
    40   21   22 1   
    41   22   26 1   
    42   22   47 1   
    43   23   24 1   
    44   23   48 1   
    45   23   49 1   
    46   23   50 1   
    47   24   25 1   
    48   24   51 1   
    49   24   52 1   
    50   25   26 1   
    51   25   53 1   
    52   25   54 1   
    53   26   55 1   
    54   27   28 1   
    55   27   56 1   
    56   40   57 1   
    57   41   42 1   
@<TRIPOS>SUBSTRUCTURE
     1 3QS         1 TEMP              0 ****  ****    0 ROOT
