@<TRIPOS>MOLECULE
3QT
   42    46     1     0     0
SMALL
bcc


@<TRIPOS>ATOM
      1 C1         -3.2630   -1.7410   -0.0260 ca        1 3QT      0.395600
      2 N1         -3.9380   -2.7690   -0.6600 nb        1 3QT     -0.658000
      3 C2         -1.9430   -1.9580    0.4830 ca        1 3QT     -0.170300
      4 N2          0.8420    1.9720    0.4060 na        1 3QT      0.187200
      5 C3         -1.2670   -0.9460    1.1150 ca        1 3QT     -0.109000
      6 N3          1.5440    0.8490    0.4350 nc        1 3QT     -0.492800
      7 C4         -1.8500    0.3370    1.2810 ca        1 3QT     -0.076300
      8 N4          5.1690   -1.8910   -0.6490 nc        1 3QT     -0.506800
      9 C5         -1.0890    1.4030    1.9970 c3        1 3QT      0.043100
     10 N5          4.1570   -2.5230   -0.0220 na        1 3QT      0.089400
     11 C6         -0.3500    2.2950    1.0810 cc        1 3QT     -0.128300
     12 N6          0.2860    4.1430   -0.1730 nd        1 3QT     -0.260600
     13 C7          2.6630    0.8040   -0.3110 cd        1 3QT      0.489800
     14 C8          3.4420   -0.4100   -0.3080 cd        1 3QT     -0.341800
     15 C9          4.7770   -0.6100   -0.8410 cd        1 3QT      0.326200
     16 C10         3.0790   -1.6700    0.2130 cc        1 3QT     -0.087300
     17 C12         3.1170    1.9190   -1.1240 cd        1 3QT     -0.235300
     18 C13         2.3970    3.0780   -1.1490 cc        1 3QT     -0.042000
     19 C14         1.2000    3.1500   -0.3610 cc        1 3QT     -0.083300
     20 C15        -0.6510    3.6280    0.6980 cd        1 3QT      0.001600
     21 C16        -3.1190    0.5750    0.7990 ca        1 3QT     -0.102000
     22 C17        -3.8460   -0.4470    0.1410 ca        1 3QT     -0.147300
     23 C18        -5.1590   -0.2300   -0.3710 ca        1 3QT     -0.078000
     24 C19        -5.8160   -1.2570   -0.9990 ca        1 3QT     -0.250300
     25 C20        -5.1520   -2.5200   -1.1170 ca        1 3QT      0.412200
     26 H2         -1.4820   -2.9500    0.3590 ha        1 3QT      0.146000
     27 H3         -0.2470   -1.1150    1.4970 ha        1 3QT      0.140000
     28 H5         -1.8040    2.0410    2.5890 hc        1 3QT      0.067200
     29 H5A        -0.3760    0.9290    2.7270 hc        1 3QT      0.067200
     30 H9          5.4220    0.1220   -1.3270 h4        1 3QT      0.047100
     31 H10         2.1620   -1.9910    0.7090 h4        1 3QT      0.189000
     32 H11         5.0600   -4.1120    1.0330 h1        1 3QT      0.062367
     33 H11A        3.2350   -4.1770    0.8690 h1        1 3QT      0.062367
     34 H11B        4.3050   -4.5560   -0.5720 h1        1 3QT      0.062367
     35 H12         4.0380    1.7980   -1.7100 ha        1 3QT      0.154000
     36 H13         2.6870    3.9570   -1.7430 ha        1 3QT      0.168000
     37 H15        -1.5060    4.2200    1.0260 h4        1 3QT      0.182000
     38 H16        -3.5890    1.5640    0.9160 ha        1 3QT      0.135000
     39 H18        -5.6200    0.7620   -0.2530 ha        1 3QT      0.139000
     40 H19        -6.8260   -1.1390   -1.4100 ha        1 3QT      0.144000
     41 H20        -5.6660   -3.3600   -1.6190 h4        1 3QT      0.021100
     42 C11         4.1930   -3.9180    0.3460 c3        1 3QT      0.037600
@<TRIPOS>BOND
     1    1    2 ar  
     2    1    3 ar  
     3    1   22 ar  
     4    2   25 ar  
     5    3    5 ar  
     6    3   26 1   
     7    4    6 1   
     8    4   11 1   
     9    4   19 1   
    10    5    7 ar  
    11    5   27 1   
    12    6   13 2   
    13    7    9 1   
    14    7   21 ar  
    15    8   10 1   
    16    8   15 2   
    17    9   11 1   
    18    9   28 1   
    19    9   29 1   
    20   10   16 1   
    21   10   42 1   
    22   11   20 2   
    23   12   19 2   
    24   12   20 1   
    25   13   14 1   
    26   13   17 1   
    27   14   15 1   
    28   14   16 2   
    29   15   30 1   
    30   16   31 1   
    31   17   18 2   
    32   17   35 1   
    33   18   19 1   
    34   18   36 1   
    35   20   37 1   
    36   21   22 ar  
    37   21   38 1   
    38   22   23 ar  
    39   23   24 ar  
    40   23   39 1   
    41   24   25 ar  
    42   24   40 1   
    43   25   41 1   
    44   32   42 1   
    45   33   42 1   
    46   34   42 1   
@<TRIPOS>SUBSTRUCTURE
     1 3QT         1 TEMP              0 ****  ****    0 ROOT
