@<TRIPOS>MOLECULE
3QT
   42    44     1     0     0
SMALL
bcc


@<TRIPOS>ATOM
      1 C1         -0.2990   -0.6220   -0.0390 ca        1 3QT      0.004000
      2 N1          0.9930   -1.0030    0.2800 n2        1 3QT     -0.131000
      3 C2         -0.7200   -0.5940   -1.4070 ca        1 3QT     -0.100000
      4 N2         -5.2810   -1.7590   -1.5140 na        1 3QT     -0.160000
      5 C3         -1.9980   -0.2200   -1.7340 ca        1 3QT     -0.111000
      6 N3         -4.8720   -1.7630   -2.7800 n2        1 3QT     -0.008000
      7 C4         -2.9340    0.1490   -0.7320 ca        1 3QT     -0.080000
      8 N4         -6.9090   -1.5980   -5.0210 n2        1 3QT     -0.322000
      9 C5         -4.3030    0.5740   -1.1340 c3        1 3QT     -0.067000
     10 N5         -5.8160   -1.2620   -5.7440 n3        1 3QT      0.013000
     11 C6         -5.3400   -0.4960   -0.8480 c2        1 3QT     -0.253000
     12 N6         -5.7570   -3.0090    0.5470 n2        1 3QT     -0.282000
     13 C7         -4.5880   -2.9080   -3.3820 c2        1 3QT     -0.119000
     14 C8         -4.1680   -2.9200   -4.8200 c3        1 3QT     -0.126000
     15 C9         -7.8640   -1.8990   -4.3840 c1        1 3QT      0.142000
     16 C10        -4.6210   -1.8040   -5.6750 c1        1 3QT     -0.102000
     17 C12        -4.6120   -4.1840   -2.6800 c2        1 3QT     -0.120000
     18 C13        -4.9660   -4.2060   -1.3800 c2        1 3QT     -0.111000
     19 C14        -5.3500   -2.9560   -0.6770 c2        1 3QT      0.126000
     20 C15        -6.2850   -0.1270    0.0300 c1        1 3QT      0.201000
     21 C16        -2.5550    0.1350    0.5930 ca        1 3QT     -0.101000
     22 C17        -1.2440   -0.2490    0.9660 ca        1 3QT     -0.082000
     23 C18        -0.8250   -0.2780    2.3290 c2        1 3QT     -0.078000
     24 C19         0.4580   -0.6580    2.6300 c2        1 3QT     -0.184000
     25 C20         1.3350   -1.0140    1.5550 c2        1 3QT     -0.051000
     26 H2         -2.3170   -0.2040   -2.7880 ha        1 3QT      0.146000
     27 H3         -0.0000   -0.8770   -2.1920 ha        1 3QT      0.153000
     28 H5         -4.3350    0.8250   -2.2290 hc        1 3QT      0.115000
     29 H5A        -4.5820    1.5090   -0.5710 hc        1 3QT      0.115000
     30 H9         -4.5040   -3.8870   -5.2930 hc        1 3QT      0.128000
     31 H10        -3.0410   -2.9050   -4.8510 hc        1 3QT      0.128000
     32 H11        -5.0320    0.0110   -7.2320 h1        1 3QT      0.107000
     33 H11A       -6.2870    0.7820   -6.1380 h1        1 3QT      0.107000
     34 H11B       -6.8070   -0.4100   -7.4310 h1        1 3QT      0.107000
     35 H12        -4.3250   -5.0910   -3.2300 ha        1 3QT      0.152000
     36 H13        -4.9820   -5.1290   -0.7790 ha        1 3QT      0.170000
     37 H15        -5.9940   -2.1600    1.0170 hn        1 3QT      0.164000
     38 H16        -3.2650    0.4210    1.3850 ha        1 3QT      0.136000
     39 H18        -1.5420    0.0050    3.1140 ha        1 3QT      0.140000
     40 H19         0.8270   -0.6970    3.6630 ha        1 3QT      0.145000
     41 H20         2.3730   -1.3230    1.7790 h4        1 3QT      0.160000
     42 C11        -6.0030   -0.1490   -6.6940 c3        1 3QT     -0.070000
@<TRIPOS>BOND
     1    1    2 1   
     2    1    3 1   
     3    1   22 1   
     4    2   25 1   
     5    3    5 1   
     6    3   27 1   
     7    4    6 1   
     8    4   11 1   
     9    4   19 1   
    10    5    7 1   
    11    5   26 1   
    12    6   13 1   
    13    7    9 1   
    14    7   21 1   
    15    8   10 1   
    16    8   15 1   
    17    9   11 1   
    18    9   28 1   
    19    9   29 1   
    20   10   16 1   
    21   10   42 1   
    22   11   20 1   
    23   12   19 1   
    24   12   37 1   
    25   13   14 1   
    26   13   17 1   
    27   14   16 1   
    28   14   30 1   
    29   14   31 1   
    30   17   18 1   
    31   17   35 1   
    32   18   19 1   
    33   18   36 1   
    34   21   22 1   
    35   21   38 1   
    36   22   23 1   
    37   23   24 1   
    38   23   39 1   
    39   24   25 1   
    40   24   40 1   
    41   25   41 1   
    42   32   42 1   
    43   33   42 1   
    44   34   42 1   
@<TRIPOS>SUBSTRUCTURE
     1 3QT         1 TEMP              0 ****  ****    0 ROOT
