@<TRIPOS>MOLECULE
3QT
   42    33     1     0     0
SMALL
bcc


@<TRIPOS>ATOM
      1 C1          3.7670    2.2520    1.9270 c1        1 3QT      0.002000
      2 N1          5.0980    2.3790    2.2870 n2        1 3QT     -0.132000
      3 C2          3.4240    1.9400    0.5960 c1        1 3QT     -0.105000
      4 N2         -1.4950   -0.4130    0.3510 n1        1 3QT     -0.034000
      5 C3          2.0900    1.7780    0.2430 c1        1 3QT     -0.109000
      6 N3         -1.3710   -0.8380   -0.9670 n1        1 3QT     -0.060000
      7 C4          1.0920    1.9240    1.2020 c1        1 3QT     -0.069000
      8 N4         -1.4240   -3.4630   -4.5390 n2        1 3QT     -0.099000
      9 C5         -0.2940    1.9480    0.5950 c2        1 3QT     -0.047000
     10 N5         -2.5490   -2.7170   -4.7870 n2        1 3QT     -0.099000
     11 C6         -1.0420    0.6920    0.9940 c1        1 3QT     -0.097000
     12 N6         -2.2170   -0.4770    2.4370 n2        1 3QT     -0.120000
     13 C7         -1.9780   -1.9840   -1.3720 c1        1 3QT      0.054000
     14 C8         -2.0010   -2.4530   -2.6760 c1        1 3QT     -0.169000
     15 C9         -1.0910   -3.2980   -3.2410 c1        1 3QT     -0.101000
     16 C10        -2.9010   -2.0990   -3.6410 c1        1 3QT     -0.101000
     17 C11        -3.0090   -2.7560   -6.1350 c2        1 3QT     -0.061000
     18 C12        -2.7190   -2.7290   -0.4750 c1        1 3QT     -0.106000
     19 C13        -2.8420   -2.3130    0.8180 c1        1 3QT     -0.106000
     20 C14        -2.2210   -1.1400    1.2320 c1        1 3QT     -0.059000
     21 C15        -1.4960    0.6450    2.2910 c1        1 3QT     -0.139000
     22 C16         1.4290    2.2320    2.5140 c2        1 3QT     -0.102000
     23 C17         2.7820    2.3960    2.8740 c1        1 3QT     -0.082000
     24 C18         3.1230    2.6690    4.1910 c2        1 3QT     -0.078000
     25 C19         4.4380    2.7930    4.5440 c1        1 3QT     -0.185000
     26 C20         5.4340    2.6470    3.5830 c1        1 3QT     -0.053000
     27 H2          4.1240    1.8370   -0.0780 ha        1 3QT      0.146000
     28 H3          1.8510    1.5760   -0.6820 ha        1 3QT      0.140000
     29 H5         -0.2220    1.9890   -0.3800 ha        1 3QT      0.106500
     30 H5A        -0.7790    2.7340    0.9190 ha        1 3QT      0.106500
     31 H9         -0.3310   -3.7100   -2.7870 DU        1 3QT      0.185000
     32 H10        -3.6650   -1.5030   -3.5220 DU        1 3QT      0.185000
     33 H11        -2.3880   -3.2920   -6.6770 ha        1 3QT      0.101667
     34 H11A       -3.0510   -1.8430   -6.4930 ha        1 3QT      0.101667
     35 H11B       -3.9020   -3.1610   -6.1650 ha        1 3QT      0.101667
     36 H12        -3.1550   -3.5530   -0.7670 ha        1 3QT      0.161000
     37 H13        -3.3650   -2.8390    1.4520 ha        1 3QT      0.161000
     38 H15        -1.3480    1.3250    2.9750 DU        1 3QT      0.185000
     39 H16         0.7290    2.3340    3.1870 ha        1 3QT      0.135000
     40 H18         2.4240    2.7710    4.8650 ha        1 3QT      0.139000
     41 H19         4.6790    2.9850    5.4710 ha        1 3QT      0.144000
     42 H20         6.3710    2.7360    3.8350 ha        1 3QT      0.158000
@<TRIPOS>BOND
     1    1    2 1   
     2    1    3 1   
     3    2   26 1   
     4    3   27 1   
     5    4   20 1   
     6    5    7 1   
     7    5   28 1   
     8    6   13 1   
     9    7   22 1   
    10    8   10 1   
    11    8   15 1   
    12    9   11 1   
    13    9   29 1   
    14    9   30 1   
    15   10   16 1   
    16   11   21 1   
    17   12   20 1   
    18   12   21 1   
    19   14   15 1   
    20   14   16 1   
    21   17   33 1   
    22   17   34 1   
    23   17   35 1   
    24   18   19 1   
    25   18   36 1   
    26   19   37 1   
    27   22   23 1   
    28   22   39 1   
    29   23   24 1   
    30   24   25 1   
    31   24   40 1   
    32   25   41 1   
    33   26   42 1   
@<TRIPOS>SUBSTRUCTURE
     1 3QT         1 TEMP              0 ****  ****    0 ROOT
