@<TRIPOS>MOLECULE
3QT
   42    44     1     0     0
SMALL
bcc


@<TRIPOS>ATOM
      1 C1         -0.2900   -0.6120   -0.0550 ca        1 3QT      0.004000
      2 N1          1.0000   -0.9940    0.2670 n2        1 3QT     -0.131000
      3 C2         -0.7130   -0.6040   -1.4230 ca        1 3QT     -0.100000
      4 N2         -5.2800   -1.7460   -1.5030 na        1 3QT     -0.160000
      5 C3         -1.9900   -0.2290   -1.7530 ca        1 3QT     -0.111000
      6 N3         -4.8760   -1.7710   -2.7710 n2        1 3QT     -0.008000
      7 C4         -2.9220    0.1620   -0.7560 ca        1 3QT     -0.080000
      8 N4         -6.9220   -1.6350   -5.0050 n2        1 3QT     -0.322000
      9 C5         -4.2900    0.5870   -1.1620 c3        1 3QT     -0.067000
     10 N5         -5.8310   -1.3150   -5.7390 n3        1 3QT      0.013000
     11 C6         -5.3320   -0.4720   -0.8580 c2        1 3QT     -0.253000
     12 N6         -5.7550   -2.9610    0.5790 n2        1 3QT     -0.282000
     13 C7         -4.5990   -2.9270   -3.3550 c2        1 3QT     -0.119000
     14 C8         -4.1850   -2.9630   -4.7950 c3        1 3QT     -0.126000
     15 C9         -7.8750   -1.9220   -4.3590 c1        1 3QT      0.142000
     16 C10        -4.6380   -1.8600   -5.6660 c1        1 3QT     -0.102000
     17 C12        -4.6260   -4.1920   -2.6340 c2        1 3QT     -0.120000
     18 C13        -4.9760   -4.1920   -1.3320 c2        1 3QT     -0.111000
     19 C14        -5.3520   -2.9290   -0.6470 c2        1 3QT      0.126000
     20 C15        -6.2720   -0.0850    0.0170 c1        1 3QT      0.201000
     21 C16        -2.5400    0.1680    0.5690 ca        1 3QT     -0.101000
     22 C17        -1.2310   -0.2170    0.9460 ca        1 3QT     -0.082000
     23 C18        -0.8090   -0.2260    2.3070 c2        1 3QT     -0.078000
     24 C19         0.4720   -0.6080    2.6120 c2        1 3QT     -0.184000
     25 C20         1.3450   -0.9860    1.5420 c2        1 3QT     -0.051000
     26 H2         -2.3120   -0.2280   -2.8070 ha        1 3QT      0.146000
     27 H3          0.0030   -0.9040   -2.2040 ha        1 3QT      0.153000
     28 H5         -4.3220    0.8210   -2.2610 hc        1 3QT      0.115000
     29 H5A        -4.5630    1.5330   -0.6140 hc        1 3QT      0.115000
     30 H9         -4.5250   -3.9370   -5.2510 hc        1 3QT      0.128000
     31 H10        -3.0580   -2.9530   -4.8300 hc        1 3QT      0.128000
     32 H11        -5.0500   -0.0700   -7.2510 h1        1 3QT      0.107000
     33 H11A       -6.2970    0.7240   -6.1640 h1        1 3QT      0.107000
     34 H11B       -6.8270   -0.4880   -7.4350 h1        1 3QT      0.107000
     35 H12        -4.3460   -5.1090   -3.1700 ha        1 3QT      0.152000
     36 H13        -4.9940   -5.1050   -0.7170 ha        1 3QT      0.170000
     37 H15        -5.9870   -2.1040    1.0360 hn        1 3QT      0.164000
     38 H16        -3.2470    0.4710    1.3570 ha        1 3QT      0.136000
     39 H18        -1.5230    0.0740    3.0890 ha        1 3QT      0.140000
     40 H19         0.8430   -0.6320    3.6450 ha        1 3QT      0.145000
     41 H20         2.3810   -1.2970    1.7690 h4        1 3QT      0.160000
     42 C11        -6.0190   -0.2180   -6.7060 c3        1 3QT     -0.070000
@<TRIPOS>BOND
     1    1    2 1   
     2    1    3 1   
     3    1   22 1   
     4    2   25 1   
     5    3    5 1   
     6    3   27 1   
     7    4    6 1   
     8    4   11 1   
     9    4   19 1   
    10    5    7 1   
    11    5   26 1   
    12    6   13 1   
    13    7    9 1   
    14    7   21 1   
    15    8   10 1   
    16    8   15 1   
    17    9   11 1   
    18    9   28 1   
    19    9   29 1   
    20   10   16 1   
    21   10   42 1   
    22   11   20 1   
    23   12   19 1   
    24   12   37 1   
    25   13   14 1   
    26   13   17 1   
    27   14   16 1   
    28   14   30 1   
    29   14   31 1   
    30   17   18 1   
    31   17   35 1   
    32   18   19 1   
    33   18   36 1   
    34   21   22 1   
    35   21   38 1   
    36   22   23 1   
    37   23   24 1   
    38   23   39 1   
    39   24   25 1   
    40   24   40 1   
    41   25   41 1   
    42   32   42 1   
    43   33   42 1   
    44   34   42 1   
@<TRIPOS>SUBSTRUCTURE
     1 3QT         1 TEMP              0 ****  ****    0 ROOT
