@<TRIPOS>MOLECULE
3QU
   26    21     1     0     0
SMALL
bcc


@<TRIPOS>ATOM
      1 OAA        -2.6390    0.0650    4.5340 o         1 3QU     -0.208500
      2 OAB        -3.8800    1.5800    3.4400 o         1 3QU     -0.208500
      3 CAC         3.5030   -0.8190   -1.8930 c1        1 3QU     -0.055000
      4 CAD         2.7770    1.3960   -2.2660 c1        1 3QU      0.316300
      5 CAE         2.2520   -1.1460   -1.3950 c1        1 3QU     -0.055000
      6 CAF         1.5250    1.0720   -1.7670 c1        1 3QU     -0.099500
      7 CAG        -1.8880    0.4860   -0.0740 c1        1 3QU     -0.099500
      8 CAH        -0.4120   -0.9030    1.2130 c1        1 3QU     -0.055000
      9 CAI        -2.5780    0.8220    1.0800 c1        1 3QU     -0.006500
     10 CAJ        -1.1030   -0.5670    2.3680 c1        1 3QU     -0.055000
     11 CAK        -0.1090   -0.8150   -1.2780 c3        1 3QU     -0.075200
     12 NAL         3.7540    0.4490   -2.3240 n1        1 3QU     -0.459800
     13 CAM         1.2720   -0.1980   -1.3350 c1        1 3QU     -0.005100
     14 CAN        -0.8050   -0.3770   -0.0080 c1        1 3QU     -0.005100
     15 CAO        -2.1850    0.2950    2.3010 c1        1 3QU     -0.188300
     16 NAP        -2.9010    0.6280    3.4810 no        1 3QU      0.322300
     17 HAC         4.2030   -1.4960   -1.9360 ha        1 3QU      0.099750
     18 HAD         2.9590    2.3040   -2.5750 ha        1 3QU      0.105500
     19 HAE         2.0710   -2.0540   -1.0860 ha        1 3QU      0.099750
     20 HAF         0.8250    1.7500   -1.7260 ha        1 3QU      0.089000
     21 HAG        -2.1650    0.8570   -0.9330 ha        1 3QU      0.089000
     22 HAH         0.3500   -1.5110    1.2600 ha        1 3QU      0.099750
     23 HAI        -3.3410    1.4300    1.0330 ha        1 3QU      0.113500
     24 HAJ        -0.8260   -0.9380    3.2270 ha        1 3QU      0.099750
     25 HAK        -0.0300   -1.7900   -1.2880 hc        1 3QU      0.069200
     26 HAKA       -0.6290   -0.5220   -2.0530 hc        1 3QU      0.069200
@<TRIPOS>BOND
     1    1   16 1   
     2    2   16 1   
     3    3    5 3   
     4    3   17 1   
     5    4   12 3   
     6    4   18 1   
     7    5   19 1   
     8    6   13 3   
     9    6   20 1   
    10    7   14 3   
    11    7   21 1   
    12    8   10 3   
    13    8   22 1   
    14    9   15 3   
    15    9   23 1   
    16   10   24 1   
    17   11   13 1   
    18   11   14 1   
    19   11   25 1   
    20   11   26 1   
    21   15   16 1   
@<TRIPOS>SUBSTRUCTURE
     1 3QU         1 TEMP              0 ****  ****    0 ROOT
