@<TRIPOS>MOLECULE
3QU
   26    25     1     0     0
SMALL
bcc


@<TRIPOS>ATOM
      1 OAA         1.1900    1.8980   -1.1560 o         1 3QU     -0.470700
      2 OAB        -0.1410    0.3500   -0.6280 o         1 3QU     -0.470700
      3 CAC         4.1820    5.3140   -7.4960 c2        1 3QU     -0.095000
      4 CAD         5.0910    3.1860   -7.9510 c2        1 3QU     -0.015000
      5 CAE         4.3640    1.8050   -5.8960 c1        1 3QU     -0.095000
      6 CAF         4.7050    2.4920   -6.8950 c1        1 3QU     -0.159000
      7 CAG         0.3980   -1.7650    0.3920 c1        1 3QU      0.296000
      8 CAH         3.8550   -0.4820   -2.2780 c1        1 3QU     -0.055000
      9 CAI         1.6560   -1.3760    0.2720 c2        1 3QU     -0.541000
     10 CAJ         3.0790   -0.3070   -1.3830 c1        1 3QU     -0.227000
     11 NAL         4.9260    4.5500   -8.2080 n2        1 3QU     -0.156000
     12 CAM         3.9990    1.1060   -4.8510 c2        1 3QU     -0.096000
     13 CAN         4.8010   -0.6990   -3.3320 c3        1 3QU     -0.067000
     14 CAO         2.1630   -0.0960   -0.2980 c3        1 3QU      0.152000
     15 NAP         0.9690    0.7970   -0.7480 no        1 3QU      0.761400
     16 HAD         5.6410    2.6810   -8.7730 h4        1 3QU      0.165000
     17 HAE         3.5800    5.0200   -6.6160 h4        1 3QU      0.120500
     18 HAF         3.4580    1.5900   -4.0170 ha        1 3QU      0.153000
     19 HAG         5.7250   -0.0860   -3.1320 hc        1 3QU      0.114000
     20 HAH         5.1070   -1.7840   -3.3300 hc        1 3QU      0.114000
     21 HAI         2.4620   -2.0540    0.6200 ha        1 3QU      0.208000
     22 HAJ         2.6640    0.5200    0.5140 h1        1 3QU      0.154000
     23 CAK         4.2480   -0.3490   -4.7070 c3        1 3QU     -0.120000
     24 HAC         4.1250    6.3790   -7.7890 h4        1 3QU      0.120500
     25 HAK         3.2800   -0.8960   -4.8750 hc        1 3QU      0.104000
     26 HAKA        4.9770   -0.7080   -5.4810 hc        1 3QU      0.104000
@<TRIPOS>BOND
     1    1   15 2   
     2    2   15 2   
     3    3   11 1   
     4    3   17 1   
     5    3   24 1   
     6    4    6 1   
     7    4   11 1   
     8    4   16 1   
     9    5    6 1   
    10    5   12 1   
    11    7    9 1   
    12    8   10 1   
    13    8   13 1   
    14    9   14 1   
    15    9   21 1   
    16   10   14 1   
    17   12   18 1   
    18   12   23 1   
    19   13   19 1   
    20   13   20 1   
    21   13   23 1   
    22   14   15 1   
    23   14   22 1   
    24   23   25 1   
    25   23   26 1   
@<TRIPOS>SUBSTRUCTURE
     1 3QU         1 TEMP              0 ****  ****    0 ROOT
