@<TRIPOS>MOLECULE
3QU
   26    27     1     0     0
SMALL
bcc


@<TRIPOS>ATOM
      1 OAA        -4.4770   -1.0450   -0.7380 o         1 3QU     -0.208000
      2 OAB        -4.4760    1.0580   -0.7240 o         1 3QU     -0.208000
      3 CAC         3.9710    1.1570   -0.8950 ca        1 3QU      0.398200
      4 CAD         3.9740   -1.1420   -0.9110 ca        1 3QU      0.398200
      5 CAE         2.9710    1.2020    0.0930 ca        1 3QU     -0.241300
      6 CAF         2.9740   -1.2030    0.0750 ca        1 3QU     -0.241300
      7 CAG        -0.6200    1.2030    0.8210 ca        1 3QU     -0.136000
      8 CAH        -0.6210   -1.2160    0.8040 ca        1 3QU     -0.136000
      9 CAI        -1.9110    1.2190    0.3020 ca        1 3QU     -0.064000
     10 CAJ        -1.9130   -1.2230    0.2850 ca        1 3QU     -0.064000
     11 NAL         4.4730    0.0120   -1.3960 nb        1 3QU     -0.660000
     12 CAM         2.4610   -0.0050    0.5870 ca        1 3QU     -0.044300
     13 CAN         0.0340   -0.0090    1.0750 ca        1 3QU     -0.031300
     14 CAO        -2.5560   -0.0000    0.0360 ca        1 3QU     -0.178200
     15 NAP        -3.9360    0.0050   -0.5150 no        1 3QU      0.313200
     16 HAD         4.4010   -2.0670   -1.3390 h4        1 3QU      0.025100
     17 HAE         2.6010    2.1660    0.4650 ha        1 3QU      0.142000
     18 HAF         2.6050   -2.1730    0.4330 ha        1 3QU      0.142000
     19 HAG        -0.1080    2.1560    1.0290 ha        1 3QU      0.147000
     20 HAH        -0.1110   -2.1720    1.0000 ha        1 3QU      0.147000
     21 HAI        -2.4230    2.1750    0.1020 ha        1 3QU      0.172000
     22 HAJ        -2.4260   -2.1760    0.0720 ha        1 3QU      0.172000
     23 CAK         1.4130   -0.0140    1.6470 c3        1 3QU     -0.006800
     24 HAC         4.3970    2.0890   -1.3080 h4        1 3QU      0.025100
     25 HAK         1.5450   -0.9240    2.2940 hc        1 3QU      0.066700
     26 HAKA        1.5440    0.8860    2.3090 hc        1 3QU      0.066700
@<TRIPOS>BOND
     1    1   15 1   
     2    2   15 1   
     3    3    5 ar  
     4    3   11 ar  
     5    3   24 1   
     6    4    6 ar  
     7    4   11 ar  
     8    4   16 1   
     9    5   12 ar  
    10    5   17 1   
    11    6   12 ar  
    12    6   18 1   
    13    7    9 ar  
    14    7   13 ar  
    15    7   19 1   
    16    8   10 ar  
    17    8   13 ar  
    18    8   20 1   
    19    9   14 ar  
    20    9   21 1   
    21   10   14 ar  
    22   10   22 1   
    23   12   23 1   
    24   13   23 1   
    25   14   15 1   
    26   23   25 1   
    27   23   26 1   
@<TRIPOS>SUBSTRUCTURE
     1 3QU         1 TEMP              0 ****  ****    0 ROOT
