@<TRIPOS>MOLECULE
3QU
   26    23     1     0     0
SMALL
bcc


@<TRIPOS>ATOM
      1 OAA         3.4650    1.5210   -3.1170 o         1 3QU     -0.510200
      2 OAB         3.8640    2.9070   -1.5940 o         1 3QU     -0.510200
      3 CAC         4.2770    4.6430   -4.5480 c2        1 3QU     -0.128000
      4 CAD         4.2950    4.2180   -6.8470 c2        1 3QU     -0.437000
      5 CAE         3.4290    0.9620   -6.5620 c1        1 3QU      0.181000
      6 CAF         4.4350    4.4920   -8.1350 c1        1 3QU      0.210000
      7 CAG         3.6840    1.0090    1.6070 c2        1 3QU     -0.121000
      8 CAH         2.7370   -2.2490   -4.0020 c1        1 3QU     -0.558000
      9 CAI         3.5740    0.8720    0.3230 c1        1 3QU     -0.083000
     10 CAJ         2.8440   -2.0110   -2.7580 c1        1 3QU      0.154000
     11 NAL         4.4470    5.0700   -5.7450 n2        1 3QU     -0.109000
     12 CAM         3.0910   -0.1120   -5.8950 c2        1 3QU     -0.488000
     13 CAN         2.6290   -2.4880   -5.2980 c2        1 3QU      0.196000
     14 CAO         3.4540    0.6940   -0.9670 c2        1 3QU     -0.160000
     15 NAP         3.6060    1.7880   -1.9480 no        1 3QU      0.824400
     16 HAD         4.0130    3.1340   -6.6830 h4        1 3QU      0.201000
     17 HAE         4.0070    3.6190   -4.2240 h4        1 3QU      0.127000
     18 HAF         3.0550    0.0420   -4.7810 ha        1 3QU      0.242000
     19 HAG         4.6480    0.8870    2.1280 ha        1 3QU      0.158000
     20 HAH         2.4250   -3.5160   -5.6650 ha        1 3QU      0.131000
     21 HAI         2.8200    1.2480    2.2480 ha        1 3QU      0.158000
     22 HAJ         3.2300   -0.2840   -1.4560 h4        1 3QU      0.237000
     23 CAK         2.7530   -1.4680   -6.3660 c3        1 3QU     -0.094000
     24 HAC         4.4160    5.3780   -3.7340 h4        1 3QU      0.127000
     25 HAK         3.5350   -1.8260   -7.0970 hc        1 3QU      0.126000
     26 HAKA        1.7700   -1.4400   -6.9230 hc        1 3QU      0.126000
@<TRIPOS>BOND
     1    1   15 2   
     2    2   15 2   
     3    3   11 1   
     4    3   17 1   
     5    3   24 1   
     6    4    6 1   
     7    4   11 1   
     8    4   16 1   
     9    5   12 1   
    10    7    9 1   
    11    7   19 1   
    12    7   21 1   
    13    8   10 1   
    14    8   13 1   
    15    9   14 1   
    16   12   18 1   
    17   12   23 1   
    18   13   20 1   
    19   13   23 1   
    20   14   15 1   
    21   14   22 1   
    22   23   25 1   
    23   23   26 1   
@<TRIPOS>SUBSTRUCTURE
     1 3QU         1 TEMP              0 ****  ****    0 ROOT
