@<TRIPOS>MOLECULE
3QU
   26    23     1     0     0
SMALL
bcc


@<TRIPOS>ATOM
      1 OAA         2.1840    0.9020    0.4960 o         1 3QU     -0.507200
      2 OAB         1.7580   -1.1570    0.6370 o         1 3QU     -0.507200
      3 CAC         7.0070    4.1920   -7.8360 c2        1 3QU     -0.137000
      4 CAD         4.7580    4.7390   -8.1470 c2        1 3QU     -0.452000
      5 CAE         3.7430    2.1760   -6.2660 c1        1 3QU      0.132000
      6 CAF         3.7190    5.4190   -8.6040 c1        1 3QU      0.221000
      7 CAG         3.0970   -0.1530    3.8850 c1        1 3QU      0.445000
      8 CAH         2.9850   -1.1870   -3.7600 c1        1 3QU     -0.210000
      9 CAI         1.8200    0.1030    3.6080 c2        1 3QU     -0.613000
     10 CAJ         2.6650   -1.1430   -2.6070 c1        1 3QU     -0.183000
     11 NAL         6.1240    4.9560   -8.3660 n2        1 3QU     -0.093000
     12 CAM         3.2780    1.2040   -5.5270 c2        1 3QU     -0.454000
     13 CAN         3.3760   -1.2530   -5.1360 c3        1 3QU     -0.049000
     14 CAO         1.0840    0.1810    2.4020 c1        1 3QU      0.225000
     15 NAP         1.7680   -0.0460    1.1130 no        1 3QU      0.707400
     16 HAD         4.4320    3.8710   -7.4920 h4        1 3QU      0.216000
     17 HAE         6.8270    3.3200   -7.1810 h4        1 3QU      0.117000
     18 HAF         3.2160    1.3570   -4.4250 ha        1 3QU      0.210000
     19 HAG         4.5000   -1.2270   -5.2070 hc        1 3QU      0.100500
     20 HAH         3.0350   -2.2340   -5.5740 hc        1 3QU      0.100500
     21 HAI         1.1600    0.3030    4.4980 ha        1 3QU      0.252000
     22 HAJ         2.3810   -1.0980   -1.5810 ha        1 3QU      0.244000
     23 CAK         2.7910   -0.1240   -5.9730 c3        1 3QU     -0.072000
     24 HAC         8.0650    4.4260   -8.0540 h4        1 3QU      0.117000
     25 HAK         1.6700   -0.1380   -5.8950 hc        1 3QU      0.095000
     26 HAKA        3.0600   -0.2990   -7.0490 hc        1 3QU      0.095000
@<TRIPOS>BOND
     1    1   15 2   
     2    2   15 2   
     3    3   11 1   
     4    3   17 1   
     5    3   24 1   
     6    4    6 1   
     7    4   11 1   
     8    4   16 1   
     9    5   12 1   
    10    7    9 1   
    11    8   10 1   
    12    8   13 1   
    13    9   14 1   
    14    9   21 1   
    15   10   22 1   
    16   12   18 1   
    17   12   23 1   
    18   13   19 1   
    19   13   20 1   
    20   13   23 1   
    21   14   15 1   
    22   23   25 1   
    23   23   26 1   
@<TRIPOS>SUBSTRUCTURE
     1 3QU         1 TEMP              0 ****  ****    0 ROOT
