@<TRIPOS>MOLECULE
3QV
   19    20     1     0     0
SMALL
bcc


@<TRIPOS>ATOM
      1 C1         -0.0440    0.0100   -0.0270 ca        1 3QV      0.186100
      2 N1          2.5110   -0.4580    7.0880 n1        1 3QV     -0.335800
      3 O1         -0.7920    0.0640   -1.1730 oh        1 3QV     -0.480100
      4 C2          1.3660    0.1020   -0.0420 ca        1 3QV     -0.242000
      5 O2         -0.9020   -0.5510    5.6600 o         1 3QV     -0.536500
      6 C3          2.0670    0.0420    1.1470 ca        1 3QV     -0.021000
      7 O3         -0.7540   -0.3500    3.5150 os        1 3QV     -0.317200
      8 C4          1.3910   -0.1110    2.3720 ca        1 3QV     -0.208800
      9 C5          2.0760   -0.1790    3.6310 cc        1 3QV      0.050800
     10 C6          1.3650   -0.3270    4.7800 cd        1 3QV     -0.106900
     11 C7          1.9930   -0.3990    6.0480 ch        1 3QV      0.202500
     12 C8         -0.0950   -0.4180    4.7460 c         1 3QV      0.735800
     13 C9         -0.0190   -0.2010    2.3630 ca        1 3QV      0.201100
     14 C10        -0.7540   -0.1420    1.1690 ca        1 3QV     -0.189000
     15 HO1        -0.1900    0.1700   -1.9260 ho        1 3QV      0.430000
     16 H2          1.8950    0.2210   -0.9980 ha        1 3QV      0.146000
     17 H3          3.1670    0.1120    1.1460 ha        1 3QV      0.145000
     18 H5          3.1770   -0.1080    3.6370 ha        1 3QV      0.158000
     19 H10        -1.8510   -0.2130    1.1770 ha        1 3QV      0.182000
@<TRIPOS>BOND
     1    1    3 1   
     2    1    4 ar  
     3    1   14 ar  
     4    2   11 3   
     5    3   15 1   
     6    4    6 ar  
     7    4   16 1   
     8    5   12 2   
     9    6    8 ar  
    10    6   17 1   
    11    7   12 1   
    12    7   13 1   
    13    8    9 1   
    14    8   13 ar  
    15    9   10 2   
    16    9   18 1   
    17   10   11 1   
    18   10   12 1   
    19   13   14 ar  
    20   14   19 1   
@<TRIPOS>SUBSTRUCTURE
     1 3QV         1 TEMP              0 ****  ****    0 ROOT
