@<TRIPOS>MOLECULE
3QV
   19    20     1     0     0
SMALL
bcc


@<TRIPOS>ATOM
      1 C1         -3.0240    0.0210   -0.1470 ca        1 3QV      0.191100
      2 N1          4.4880    0.9520    0.1370 n1        1 3QV     -0.335800
      3 O1         -4.3490   -0.3170   -0.1970 oh        1 3QV     -0.482100
      4 C2         -2.7380    1.4080   -0.1360 ca        1 3QV     -0.185000
      5 O2          2.3580   -2.0760    0.0560 o         1 3QV     -0.537500
      6 C3         -1.4240    1.8280   -0.0860 ca        1 3QV     -0.029000
      7 O3          0.2900   -1.4550   -0.0220 os        1 3QV     -0.321200
      8 C4         -0.3680    0.8950   -0.0460 ca        1 3QV     -0.209800
      9 C5          1.0100    1.2880    0.0060 cc        1 3QV      0.053800
     10 C6          1.9840    0.3380    0.0420 cd        1 3QV     -0.109900
     11 C7          3.3590    0.6740    0.0940 ch        1 3QV      0.202500
     12 C8          1.6380   -1.0830    0.0290 c         1 3QV      0.736800
     13 C9         -0.6780   -0.4810   -0.0590 ca        1 3QV      0.209100
     14 C10        -2.0060   -0.9350   -0.1090 ca        1 3QV     -0.252000
     15 HO1        -4.4200   -1.2850   -0.2000 ho        1 3QV      0.433000
     16 H2         -3.5720    2.1240   -0.1670 ha        1 3QV      0.164000
     17 H3         -1.1880    2.9040   -0.0770 ha        1 3QV      0.147000
     18 H5          1.2520    2.3650    0.0150 ha        1 3QV      0.159000
     19 H10        -2.2170   -2.0130   -0.1170 ha        1 3QV      0.167000
@<TRIPOS>BOND
     1    1    3 1   
     2    1    4 ar  
     3    1   14 ar  
     4    2   11 3   
     5    3   15 1   
     6    4    6 ar  
     7    4   16 1   
     8    5   12 2   
     9    6    8 ar  
    10    6   17 1   
    11    7   12 1   
    12    7   13 1   
    13    8    9 1   
    14    8   13 ar  
    15    9   10 2   
    16    9   18 1   
    17   10   11 1   
    18   10   12 1   
    19   13   14 ar  
    20   14   19 1   
@<TRIPOS>SUBSTRUCTURE
     1 3QV         1 TEMP              0 ****  ****    0 ROOT
