@<TRIPOS>MOLECULE
3QV
   19    20     1     0     0
SMALL
bcc


@<TRIPOS>ATOM
      1 C1          0.0860    0.1540   -0.0540 ca        1 3QV      0.191100
      2 N1          2.4580   -0.5180    7.1070 n1        1 3QV     -0.335800
      3 O1         -0.5030    0.2710   -1.2840 oh        1 3QV     -0.482100
      4 C2          1.5020    0.1420   -0.0440 ca        1 3QV     -0.185000
      5 O2         -0.9260   -0.3550    5.6120 o         1 3QV     -0.537500
      6 C3          2.1690    0.0270    1.1590 ca        1 3QV     -0.029000
      7 O3         -0.7190   -0.1610    3.4710 os        1 3QV     -0.321200
      8 C4          1.4600   -0.0780    2.3720 ca        1 3QV     -0.209800
      9 C5          2.1130   -0.1990    3.6430 cc        1 3QV      0.053800
     10 C6          1.3700   -0.2970    4.7790 cd        1 3QV     -0.109900
     11 C7          1.9660   -0.4180    6.0580 ch        1 3QV      0.202500
     12 C8         -0.0910   -0.2800    4.7160 c         1 3QV      0.736800
     13 C9          0.0490   -0.0640    2.3360 ca        1 3QV      0.209100
     14 C10        -0.6540    0.0520    1.1260 ca        1 3QV     -0.252000
     15 HO1        -1.4660    0.2680   -1.1660 ho        1 3QV      0.433000
     16 H2          2.0430    0.2250   -0.9980 ha        1 3QV      0.164000
     17 H3          3.2710    0.0160    1.1810 ha        1 3QV      0.147000
     18 H5          3.2150   -0.2100    3.6710 ha        1 3QV      0.159000
     19 H10        -1.7520    0.0610    1.1280 ha        1 3QV      0.167000
@<TRIPOS>BOND
     1    1    3 1   
     2    1    4 ar  
     3    1   14 ar  
     4    2   11 3   
     5    3   15 1   
     6    4    6 ar  
     7    4   16 1   
     8    5   12 2   
     9    6    8 ar  
    10    6   17 1   
    11    7   12 1   
    12    7   13 1   
    13    8    9 1   
    14    8   13 ar  
    15    9   10 2   
    16    9   18 1   
    17   10   11 1   
    18   10   12 1   
    19   13   14 ar  
    20   14   19 1   
@<TRIPOS>SUBSTRUCTURE
     1 3QV         1 TEMP              0 ****  ****    0 ROOT
