@<TRIPOS>MOLECULE
3QV
   19    16     1     0     0
SMALL
bcc


@<TRIPOS>ATOM
      1 C1         -0.8560   -0.0290   -2.4370 c1        1 3QV      0.141000
      2 N1          1.8610   -0.2420    4.8440 n1        1 3QV     -0.010000
      3 O1         -1.5830   -0.2240   -3.6260 oh        1 3QV     -0.234000
      4 C2          0.5480   -0.0290   -2.4370 c1        1 3QV     -0.242000
      5 O2         -1.5210    0.0460    3.5630 o         1 3QV     -0.261000
      6 C3          1.2460   -0.0290   -1.2290 c1        1 3QV     -0.021000
      7 O3         -1.6070   -0.0290    1.2690 os        1 3QV     -0.182000
      8 C4          0.5490   -0.0290   -0.0180 c1        1 3QV     -0.197000
      9 C5          1.3010   -0.0290    1.2860 c2        1 3QV      0.039000
     10 C6          0.5720   -0.0290    2.5350 c1        1 3QV     -0.121000
     11 C7          1.3170   -0.1540    3.8460 c1        1 3QV     -0.090000
     12 C8         -0.9040   -0.0290    2.5200 c1        1 3QV      0.351000
     13 C9         -0.8570   -0.0290   -0.0180 c1        1 3QV      0.156000
     14 C10        -1.5550   -0.0290   -1.2290 c1        1 3QV     -0.189000
     15 HO1        -1.6250    0.5130   -4.1190 ho        1 3QV      0.229000
     16 H2          1.1000    0.0570   -3.2370 ha        1 3QV      0.146000
     17 H3          2.1970   -0.0240   -1.0080 ha        1 3QV      0.145000
     18 H5          2.2330    0.2390    1.1700 ha        1 3QV      0.158000
     19 H10        -2.4170    0.0830   -1.6740 ha        1 3QV      0.182000
@<TRIPOS>BOND
     1    1    3 1   
     2    1    4 1   
     3    2   11 1   
     4    3   15 1   
     5    4   16 1   
     6    5   12 1   
     7    6    8 1   
     8    6   17 1   
     9    7   12 1   
    10    7   13 1   
    11    8    9 1   
    12    9   10 1   
    13    9   18 1   
    14   10   11 1   
    15   13   14 1   
    16   14   19 1   
@<TRIPOS>SUBSTRUCTURE
     1 3QV         1 TEMP              0 ****  ****    0 ROOT
