@<TRIPOS>MOLECULE
3QV
   19    20     1     0     0
SMALL
bcc


@<TRIPOS>ATOM
      1 C1          0.0780    0.1750   -0.0500 ca        1 3QV      0.191100
      2 N1          2.4750   -0.5570    7.0980 n1        1 3QV     -0.335800
      3 O1         -0.5160    0.3000   -1.2770 oh        1 3QV     -0.482100
      4 C2          1.4940    0.1810   -0.0430 ca        1 3QV     -0.185000
      5 O2         -0.9150   -0.4180    5.6120 o         1 3QV     -0.537500
      6 C3          2.1650    0.0600    1.1570 ca        1 3QV     -0.029000
      7 O3         -0.7150   -0.1950    3.4730 os        1 3QV     -0.321200
      8 C4          1.4600   -0.0700    2.3710 ca        1 3QV     -0.209800
      9 C5          2.1170   -0.1990    3.6380 cc        1 3QV      0.053800
     10 C6          1.3780   -0.3210    4.7750 cd        1 3QV     -0.109900
     11 C7          1.9790   -0.4510    6.0510 ch        1 3QV      0.202500
     12 C8         -0.0830   -0.3210    4.7150 c         1 3QV      0.736800
     13 C9          0.0490   -0.0730    2.3380 ca        1 3QV      0.209100
     14 C10        -0.6580    0.0490    1.1300 ca        1 3QV     -0.252000
     15 HO1        -1.4780    0.2830   -1.1570 ho        1 3QV      0.433000
     16 H2          2.0310    0.2830   -0.9960 ha        1 3QV      0.164000
     17 H3          3.2670    0.0630    1.1770 ha        1 3QV      0.147000
     18 H5          3.2200   -0.1960    3.6640 ha        1 3QV      0.159000
     19 H10        -1.7570    0.0430    1.1350 ha        1 3QV      0.167000
@<TRIPOS>BOND
     1    1    3 1   
     2    1    4 ar  
     3    1   14 ar  
     4    2   11 3   
     5    3   15 1   
     6    4    6 ar  
     7    4   16 1   
     8    5   12 2   
     9    6    8 ar  
    10    6   17 1   
    11    7   12 1   
    12    7   13 1   
    13    8    9 1   
    14    8   13 ar  
    15    9   10 2   
    16    9   18 1   
    17   10   11 1   
    18   10   12 1   
    19   13   14 ar  
    20   14   19 1   
@<TRIPOS>SUBSTRUCTURE
     1 3QV         1 TEMP              0 ****  ****    0 ROOT
