@<TRIPOS>MOLECULE
3QW
   60    58     1     0     0
SMALL
bcc


@<TRIPOS>ATOM
      1 C14         2.4560   -0.5200   -1.7190 c1        1 3QW      0.067000
      2 C5          4.9050    1.5980   -4.6360 c2        1 3QW     -0.091000
      3 C6          5.5650    1.9460   -5.8140 c2        1 3QW     -0.147000
      4 C11         0.9360   -1.7500    2.0840 c1        1 3QW      0.213000
      5 C7          5.3280    1.1720   -6.9820 c2        1 3QW      0.082000
      6 C9          3.8740   -0.2130   -5.8210 c2        1 3QW     -0.057000
      7 C10         4.0440    0.5030   -4.6220 c2        1 3QW     -0.191000
      8 C12         0.6630   -2.1540    3.3330 c2        1 3QW     -0.229000
      9 C13         1.8470   -2.5760    4.1050 c2        1 3QW     -0.238000
     10 C3         -1.3880   -3.0040    6.1640 c2        1 3QW     -0.234000
     11 C1          5.7440    2.4490    2.5180 c3        1 3QW     -0.268000
     12 N4         -0.6470   -2.2060    3.8600 n2        1 3QW     -0.077000
     13 N8          4.4800    0.0930   -6.9770 n2        1 3QW     -0.190000
     14 N15         1.9570   -0.8590   -0.7090 n2        1 3QW     -0.377000
     15 N17         3.2500   -0.9540    5.4700 n2        1 3QW     -0.172000
     16 C18         2.6250   -1.7180    4.7390 c1        1 3QW      0.055000
     17 N19         6.0420    1.4540   -8.1830 nh        1 3QW     -0.227000
     18 C20         5.9200    2.6990   -8.8220 c2        1 3QW      0.146000
     19 C21         6.4330    2.8280  -10.1550 c2        1 3QW     -0.275000
     20 C22         6.3900    4.0980  -10.7420 c2        1 3QW     -0.022000
     21 N23         5.8830    5.1820  -10.1140 n2        1 3QW     -0.199000
     22 C24         5.4100    4.9580   -8.8610 c2        1 3QW     -0.008000
     23 N25         5.3910    3.7900   -8.1740 n2        1 3QW     -0.218000
     24 N26         6.0560   -0.7990  -11.1060 n2        1 3QW     -0.192000
     25 C27         5.9060   -1.7310  -10.0200 c3        1 3QW     -0.123000
     26 C28         5.6890   -3.1950  -10.3990 c3        1 3QW     -0.182000
     27 C29         4.7270   -3.3090  -11.5770 c3        1 3QW      0.028000
     28 C30         5.2000   -2.4620  -12.7570 c3        1 3QW     -0.209000
     29 C31         5.7330   -1.1400  -12.3000 c2        1 3QW     -0.068000
     30 O32         4.7050   -4.6940  -11.9320 os        1 3QW     -0.275000
     31 C33         3.6060   -5.0480  -12.7540 c3        1 3QW     -0.074000
     32 H1          2.0280   -3.6600    4.1770 ha        1 3QW      0.179000
     33 H2          5.0710    2.1880   -3.7220 ha        1 3QW      0.139000
     34 H3          3.5100    0.1990   -3.7070 ha        1 3QW      0.180000
     35 H4          3.2020   -1.0900   -5.8610 h4        1 3QW      0.157000
     36 H5          6.2490    2.8050   -5.8370 ha        1 3QW      0.159000
     37 H6         -1.5010   -2.3030    7.0030 ha        1 3QW      0.156000
     38 H7         -1.7060   -4.0400    6.3400 ha        1 3QW      0.156000
     39 H8          6.5150    1.9500    3.1440 hc        1 3QW      0.067000
     40 H9          6.1890    3.3380    2.0220 hc        1 3QW      0.067000
     41 H10         5.3770    1.7390    1.7450 hc        1 3QW      0.067000
     42 H11         4.8950    2.7700    3.1600 hc        1 3QW      0.067000
     43 H12         1.5420   -1.1390    0.1300 hn        1 3QW      0.300000
     44 H13         4.0830   -0.4960    5.1700 hn        1 3QW      0.214000
     45 H14         6.0920    0.6880   -8.8320 hn        1 3QW      0.240000
     46 H15         6.8390    1.9640  -10.6970 ha        1 3QW      0.169000
     47 H16         6.7760    4.2610  -11.7640 h4        1 3QW      0.161000
     48 H17         4.9810    5.8320   -8.3280 h5        1 3QW      0.187000
     49 H18         6.8390   -1.6530   -9.3910 h1        1 3QW      0.114500
     50 H19         5.0410   -1.3760   -9.3860 h1        1 3QW      0.114500
     51 H20         5.2750   -3.7530   -9.5220 hc        1 3QW      0.102000
     52 H21         6.6630   -3.6730  -10.6760 hc        1 3QW      0.102000
     53 H22         3.6960   -2.9830  -11.2630 h1        1 3QW      0.084000
     54 H23         4.3520   -2.2960  -13.4710 hc        1 3QW      0.108000
     55 H24         6.0080   -3.0110  -13.3100 hc        1 3QW      0.108000
     56 H25         5.8660   -0.3800  -13.0960 h4        1 3QW      0.144000
     57 H26         2.6380   -4.8270  -12.2400 h1        1 3QW      0.072667
     58 H27         3.7220   -6.1490  -12.9140 h1        1 3QW      0.072667
     59 H28         3.6510   -4.5040  -13.7300 h1        1 3QW      0.072667
     60 C2         -0.9220   -2.6160    5.0070 c1        1 3QW     -0.010000
@<TRIPOS>BOND
     1    1   14 1   
     2    2    3 1   
     3    2    7 1   
     4    2   33 1   
     5    3    5 1   
     6    3   36 1   
     7    4    8 1   
     8    5   13 1   
     9    5   17 1   
    10    6    7 1   
    11    6   13 1   
    12    6   35 1   
    13    7   34 1   
    14    8    9 1   
    15    8   12 1   
    16    9   16 1   
    17    9   32 1   
    18   10   37 1   
    19   10   38 1   
    20   10   60 1   
    21   11   39 1   
    22   11   40 1   
    23   11   41 1   
    24   11   42 1   
    25   12   60 1   
    26   14   43 1   
    27   15   16 1   
    28   15   44 1   
    29   17   18 1   
    30   17   45 1   
    31   18   19 1   
    32   18   23 1   
    33   19   20 1   
    34   19   46 1   
    35   20   21 1   
    36   20   47 1   
    37   21   22 1   
    38   22   23 1   
    39   22   48 1   
    40   24   25 1   
    41   24   29 1   
    42   25   26 1   
    43   25   49 1   
    44   25   50 1   
    45   26   27 1   
    46   26   51 1   
    47   26   52 1   
    48   27   28 1   
    49   27   30 1   
    50   27   53 1   
    51   28   29 1   
    52   28   54 1   
    53   28   55 1   
    54   29   56 1   
    55   30   31 1   
    56   31   57 1   
    57   31   58 1   
    58   31   59 1   
@<TRIPOS>SUBSTRUCTURE
     1 3QW         1 TEMP              0 ****  ****    0 ROOT
