@<TRIPOS>MOLECULE
3QW
   60    60     1     0     0
SMALL
bcc


@<TRIPOS>ATOM
      1 C14        -2.4480    4.0900   -1.7210 c1        1 3QW     -0.045000
      2 C5          3.0580    1.5000   -1.7930 c2        1 3QW      0.118000
      3 C6          3.9720    1.1550   -2.7690 c2        1 3QW     -0.361000
      4 C11         0.9000    2.2610   -1.1010 c1        1 3QW     -0.318000
      5 C7          3.7500    1.6520   -4.1030 c2        1 3QW      0.292000
      6 C9          1.7190    2.6570   -3.5320 c2        1 3QW      0.104000
      7 C10         2.0010    2.5590   -2.0850 c3        1 3QW     -0.161000
      8 C12         1.3880    1.3690   -0.2000 c2        1 3QW     -0.065000
      9 C13         0.7480    0.8640    0.9870 c2        1 3QW     -0.140000
     10 C3          4.8240   -0.3790    0.0100 c3        1 3QW     -0.264000
     11 C1          8.3140   -1.7340   -0.2620 c3        1 3QW     -0.269000
     12 N4          2.7560    0.8980   -0.5610 n3        1 3QW     -0.072000
     13 N8          2.5400    2.2840   -4.4750 n2        1 3QW     -0.204000
     14 N15        -1.4480    3.5220   -1.4750 n2        1 3QW     -0.411000
     15 N17         1.9270   -0.2790    2.9380 n2        1 3QW     -0.193000
     16 C18         1.3640    0.2030    1.9480 c1        1 3QW      0.017000
     17 N19         4.6950    1.4110   -5.0560 nu        1 3QW     -0.212000
     18 C20         4.6560    1.9030   -6.3920 c2        1 3QW      0.110000
     19 C21         4.9740    1.0190   -7.4560 c2        1 3QW     -0.222000
     20 C22         4.9430    1.5600   -8.7580 c2        1 3QW     -0.017000
     21 N23         4.6290    2.8450   -9.0060 n2        1 3QW     -0.156000
     22 C24         4.3470    3.6080   -7.9130 c2        1 3QW     -0.012000
     23 N25         4.3480    3.2190   -6.6150 n2        1 3QW     -0.154000
     24 N26         5.5450   -1.9210   -9.4400 n2        1 3QW     -0.203000
     25 C27         6.4030   -3.0150   -9.0660 c3        1 3QW     -0.109000
     26 C28         6.6860   -4.0630  -10.1400 c3        1 3QW     -0.186000
     27 C29         5.4190   -4.3880  -10.9260 c3        1 3QW      0.030000
     28 C30         4.7840   -3.1190  -11.4930 c3        1 3QW     -0.211000
     29 C31         4.8390   -1.9930  -10.5100 c2        1 3QW     -0.063000
     30 O32         5.8290   -5.2580  -11.9830 os        1 3QW     -0.273000
     31 C33         4.7530   -5.9490  -12.5950 c3        1 3QW     -0.076000
     32 H1         -0.3270    1.0990    1.0700 ha        1 3QW      0.177000
     33 H2          4.8040    0.4660   -2.5710 ha        1 3QW      0.164000
     34 H3          2.4050    3.5740   -1.7550 hc        1 3QW      0.202000
     35 H4          0.7570    3.1210   -3.8430 h4        1 3QW      0.214000
     36 H5          5.4650    0.2540   -0.6530 hc        1 3QW      0.101333
     37 H6          5.2930   -0.4030    1.0300 hc        1 3QW      0.101333
     38 H7          4.8140   -1.4280   -0.3860 hc        1 3QW      0.101333
     39 H8          7.2810   -1.3330   -0.1540 hc        1 3QW      0.066750
     40 H9          8.3180   -2.5500   -1.0180 hc        1 3QW      0.066750
     41 H10         8.9960   -0.9200   -0.5900 hc        1 3QW      0.066750
     42 H11         8.6590   -2.1340    0.7160 hc        1 3QW      0.066750
     43 H12        -0.5640    3.0180   -1.2540 hn        1 3QW      0.352000
     44 H13         2.0320   -1.2730    2.9860 hn        1 3QW      0.172000
     45 H14         5.5000    0.8740   -4.8080 hn        1 3QW      0.268000
     46 H15         5.2250   -0.0380   -7.3000 ha        1 3QW      0.179000
     47 H16         5.1760    0.9210   -9.6320 h4        1 3QW      0.186000
     48 H17         4.0890    4.6730   -8.0990 h5        1 3QW      0.206000
     49 H18         7.3810   -2.5650   -8.7310 h1        1 3QW      0.102500
     50 H19         5.9360   -3.5160   -8.1690 h1        1 3QW      0.102500
     51 H20         7.0800   -4.9960   -9.6640 hc        1 3QW      0.104500
     52 H21         7.4690   -3.6900  -10.8500 hc        1 3QW      0.104500
     53 H22         4.6810   -4.9190  -10.2630 h1        1 3QW      0.083000
     54 H23         3.7170   -3.3190  -11.7720 hc        1 3QW      0.112500
     55 H24         5.3270   -2.8160  -12.4280 hc        1 3QW      0.112500
     56 H25         4.1960   -1.1220  -10.7490 h4        1 3QW      0.144000
     57 H26         4.2100   -6.5780  -11.8480 h1        1 3QW      0.075000
     58 H27         5.2430   -6.5930  -13.3680 h1        1 3QW      0.075000
     59 H28         4.0450   -5.2310  -13.0760 h1        1 3QW      0.075000
     60 C2          3.4320    0.0490    0.1940 c1        1 3QW     -0.056000
@<TRIPOS>BOND
     1    1   14 1   
     2    2    3 1   
     3    2    7 1   
     4    2   12 1   
     5    3    5 1   
     6    3   33 1   
     7    4    7 1   
     8    4    8 1   
     9    5   13 1   
    10    5   17 1   
    11    6    7 1   
    12    6   13 1   
    13    6   35 1   
    14    7   34 1   
    15    8    9 1   
    16    8   12 1   
    17    9   16 1   
    18    9   32 1   
    19   10   36 1   
    20   10   37 1   
    21   10   38 1   
    22   10   60 1   
    23   11   39 1   
    24   11   40 1   
    25   11   41 1   
    26   11   42 1   
    27   12   60 1   
    28   14   43 1   
    29   15   16 1   
    30   15   44 1   
    31   17   18 1   
    32   17   45 1   
    33   18   19 1   
    34   18   23 1   
    35   19   20 1   
    36   19   46 1   
    37   20   21 1   
    38   20   47 1   
    39   21   22 1   
    40   22   23 1   
    41   22   48 1   
    42   24   25 1   
    43   24   29 1   
    44   25   26 1   
    45   25   49 1   
    46   25   50 1   
    47   26   27 1   
    48   26   51 1   
    49   26   52 1   
    50   27   28 1   
    51   27   30 1   
    52   27   53 1   
    53   28   29 1   
    54   28   54 1   
    55   28   55 1   
    56   29   56 1   
    57   30   31 1   
    58   31   57 1   
    59   31   58 1   
    60   31   59 1   
@<TRIPOS>SUBSTRUCTURE
     1 3QW         1 TEMP              0 ****  ****    0 ROOT
