@<TRIPOS>MOLECULE
3QX
   38    40     1     0     0
SMALL
bcc


@<TRIPOS>ATOM
      1 C1          0.0550    0.0600   -0.1630 cc        1 3QX     -0.480900
      2 C2          1.4780    0.2510    0.0310 cc        1 3QX      0.402200
      3 N3          2.1140    0.2090    1.1790 nd        1 3QX     -0.447800
      4 N4          1.3810    0.0050    2.2790 na        1 3QX      0.177200
      5 C5         -0.0390   -0.2440    2.2670 cd        1 3QX     -0.216300
      6 C6         -0.7220   -0.3470    0.9960 cd        1 3QX      0.414600
      7 C7          1.8100    0.0780    3.6000 cd        1 3QX     -0.033100
      8 C8          0.6910   -0.0980    4.4380 cc        1 3QX     -0.196000
      9 C9         -0.4530   -0.2870    3.6190 cc        1 3QX     -0.081000
     10 C10        -0.5500    0.2430   -1.4290 c         1 3QX      0.583700
     11 N11         0.3080    0.8800   -2.5250 n4        1 3QX     -0.754400
     12 O12        -1.6890    0.0100   -1.8460 o         1 3QX     -0.526100
     13 N13        -1.9790   -0.7980    0.8570 nh        1 3QX     -0.674600
     14 C14        -2.8370   -1.4390    1.8300 c3        1 3QX      0.165500
     15 C15        -3.3350   -2.8210    1.3480 c3        1 3QX     -0.092400
     16 C16        -4.6220   -3.0720    2.1140 c3        1 3QX     -0.082400
     17 C17        -5.2130   -1.7190    2.4710 c3        1 3QX     -0.108400
     18 C18        -4.1570   -0.6290    2.1640 c3        1 3QX      0.173300
     19 C19        -3.9330    0.2690    3.3770 c3        1 3QX     -0.128100
     20 F20        -4.5630    0.1400    1.0770 f         1 3QX     -0.229300
     21 H1          2.1590    0.4090   -0.8260 h4        1 3QX      0.020100
     22 H2          2.8610    0.2490    3.8550 h4        1 3QX      0.208000
     23 H3          0.7110   -0.0850    5.5270 ha        1 3QX      0.187000
     24 H4         -1.4700   -0.3960    3.9950 ha        1 3QX      0.172000
     25 H5          1.0530    0.2400   -2.8050 hn        1 3QX      0.460133
     26 H6          0.7220    1.7500   -2.1860 hn        1 3QX      0.460133
     27 H7         -2.4200   -0.7140   -0.0450 hn        1 3QX      0.478800
     28 H8         -2.2760   -1.6030    2.7910 h1        1 3QX      0.093700
     29 H9         -3.5380   -2.8200    0.2460 hc        1 3QX      0.065200
     30 H10        -2.5700   -3.6080    1.5570 hc        1 3QX      0.065200
     31 H11        -5.3370   -3.6710    1.4950 hc        1 3QX      0.065700
     32 H12        -4.4110   -3.6630    3.0420 hc        1 3QX      0.065700
     33 H13        -5.4980   -1.6820    3.5520 hc        1 3QX      0.076700
     34 H14        -6.1360   -1.5160    1.8700 hc        1 3QX      0.076700
     35 H15        -3.6690   -0.3470    4.2690 hc        1 3QX      0.060367
     36 H16        -4.8710    0.8360    3.5980 hc        1 3QX      0.060367
     37 H17        -3.1190    1.0040    3.1740 hc        1 3QX      0.060367
     38 H113       -0.2890    1.0770   -3.3380 hn        1 3QX      0.460133
@<TRIPOS>BOND
     1    1    2 1   
     2    1    6 2   
     3    1   10 1   
     4    2    3 2   
     5    2   21 1   
     6    3    4 1   
     7    4    5 1   
     8    4    7 1   
     9    5    6 1   
    10    5    9 2   
    11    6   13 1   
    12    7    8 2   
    13    7   22 1   
    14    8    9 1   
    15    8   23 1   
    16    9   24 1   
    17   10   11 1   
    18   10   12 2   
    19   11   25 1   
    20   11   26 1   
    21   11   38 1   
    22   13   14 1   
    23   13   27 1   
    24   14   15 1   
    25   14   18 1   
    26   14   28 1   
    27   15   16 1   
    28   15   29 1   
    29   15   30 1   
    30   16   17 1   
    31   16   31 1   
    32   16   32 1   
    33   17   18 1   
    34   17   33 1   
    35   17   34 1   
    36   18   19 1   
    37   18   20 1   
    38   19   35 1   
    39   19   36 1   
    40   19   37 1   
@<TRIPOS>SUBSTRUCTURE
     1 3QX         1 TEMP              0 ****  ****    0 ROOT
