@<TRIPOS>MOLECULE
3QX
   38    40     1     0     0
SMALL
bcc


@<TRIPOS>ATOM
      1 C1          0.0710    0.0390   -0.1530 cc        1 3QX     -0.480900
      2 C2          1.4910    0.2420    0.0520 cc        1 3QX      0.402200
      3 N3          2.1160    0.2180    1.2060 nd        1 3QX     -0.447800
      4 N4          1.3740    0.0210    2.3010 na        1 3QX      0.177200
      5 C5         -0.0440   -0.2380    2.2790 cd        1 3QX     -0.216300
      6 C6         -0.7140   -0.3610    1.0030 cd        1 3QX      0.414600
      7 C7          1.7900    0.1130    3.6260 cd        1 3QX     -0.033100
      8 C8          0.6640   -0.0620    4.4550 cc        1 3QX     -0.196000
      9 C9         -0.4700   -0.2680    3.6280 cc        1 3QX     -0.081000
     10 C10        -0.5230    0.2040   -1.4260 c         1 3QX      0.583700
     11 N11         0.3400    0.8350   -2.5220 nz        1 3QX     -0.754400
     12 O12        -1.6570   -0.0420   -1.8520 o         1 3QX     -0.526100
     13 N13        -1.9670   -0.8220    0.8570 nu        1 3QX     -0.674600
     14 C14        -2.8300   -1.4580    1.8300 c3        1 3QX      0.165500
     15 C15        -3.3150   -2.8480    1.3590 c3        1 3QX     -0.092400
     16 C16        -4.6070   -3.0990    2.1160 c3        1 3QX     -0.082400
     17 C17        -5.2100   -1.7450    2.4510 c3        1 3QX     -0.108400
     18 C18        -4.1580   -0.6520    2.1420 c3        1 3QX      0.173300
     19 C19        -3.9510    0.2610    3.3470 c3        1 3QX     -0.128100
     20 F20        -4.5590    0.1010    1.0430 f         1 3QX     -0.229300
     21 H1          2.1780    0.3950   -0.8000 h4        1 3QX      0.020100
     22 H2          2.8380    0.2930    3.8880 h4        1 3QX      0.208000
     23 H3          0.6740   -0.0360    5.5440 ha        1 3QX      0.187000
     24 H4         -1.4900   -0.3810    3.9960 ha        1 3QX      0.172000
     25 H5          0.7440    1.7120   -2.1880 hn        1 3QX      0.460133
     26 H6          1.0910    0.1970   -2.7880 hn        1 3QX      0.460133
     27 H7         -2.4000   -0.7510   -0.0500 hn        1 3QX      0.478800
     28 H8         -2.2770   -1.6060    2.7980 h1        1 3QX      0.093700
     29 H9         -3.5070   -2.8610    0.2560 hc        1 3QX      0.065200
     30 H10        -2.5460   -3.6270    1.5850 hc        1 3QX      0.065200
     31 H11        -5.3120   -3.7090    1.4970 hc        1 3QX      0.065700
     32 H12        -4.4010   -3.6770    3.0530 hc        1 3QX      0.065700
     33 H13        -5.5060   -1.6980    3.5290 hc        1 3QX      0.076700
     34 H14        -6.1290   -1.5550    1.8390 hc        1 3QX      0.076700
     35 H15        -4.8950    0.8240    3.5530 hc        1 3QX      0.060367
     36 H16        -3.1400    0.9990    3.1430 hc        1 3QX      0.060367
     37 H17        -3.6920   -0.3430    4.2480 hc        1 3QX      0.060367
     38 H113       -0.2520    1.0180   -3.3420 hn        1 3QX      0.460133
@<TRIPOS>BOND
     1    1    2 1   
     2    1    6 2   
     3    1   10 1   
     4    2    3 2   
     5    2   21 1   
     6    3    4 1   
     7    4    5 1   
     8    4    7 1   
     9    5    6 1   
    10    5    9 2   
    11    6   13 1   
    12    7    8 2   
    13    7   22 1   
    14    8    9 1   
    15    8   23 1   
    16    9   24 1   
    17   10   11 1   
    18   10   12 2   
    19   11   25 1   
    20   11   26 1   
    21   11   38 1   
    22   13   14 1   
    23   13   27 1   
    24   14   15 1   
    25   14   18 1   
    26   14   28 1   
    27   15   16 1   
    28   15   29 1   
    29   15   30 1   
    30   16   17 1   
    31   16   31 1   
    32   16   32 1   
    33   17   18 1   
    34   17   33 1   
    35   17   34 1   
    36   18   19 1   
    37   18   20 1   
    38   19   35 1   
    39   19   36 1   
    40   19   37 1   
@<TRIPOS>SUBSTRUCTURE
     1 3QX         1 TEMP              0 ****  ****    0 ROOT
