@<TRIPOS>MOLECULE
3QY
   51    55     1     0     0
SMALL
bcc


@<TRIPOS>ATOM
      1 C4          0.4370   -1.5570    0.4050 c3        1 3QY     -0.100400
      2 C5          1.9020   -1.1340    0.3440 c3        1 3QY      0.203300
      3 C11         5.2640    1.2060   -0.0160 ca        1 3QY      0.480200
      4 C7          1.8990   -0.7120    2.7730 c3        1 3QY      0.203300
      5 C8          0.4360   -1.1400    2.8520 c3        1 3QY     -0.100400
      6 C9          3.5920    0.3330    1.3370 ca        1 3QY      0.896900
      7 C12         5.9340    1.7450    1.0870 ca        1 3QY     -0.458600
      8 C13         5.3550    1.4930    2.3710 ca        1 3QY      0.696200
      9 C3          0.1030   -2.1530    1.7660 c3        1 3QY      0.137100
     10 O2         -1.2980   -2.4390    1.7420 os        1 3QY     -0.417600
     11 N6          2.3160   -0.2800    1.4480 nh        1 3QY     -0.728300
     12 N10         4.1260    0.5040    0.0620 nb        1 3QY     -0.768000
     13 N14         4.1920    0.7900    2.5010 nb        1 3QY     -0.795000
     14 N15         6.0670    1.9240    3.5090 nh        1 3QY     -0.811600
     15 C16         5.4490    1.9270    4.7970 ca        1 3QY      0.611200
     16 C17         5.0820    0.6990    5.3850 ca        1 3QY     -0.223300
     17 C18         4.5510    0.7580    6.6830 ca        1 3QY     -0.012200
     18 C19         4.4080    2.0290    7.3610 ca        1 3QY     -0.223100
     19 C20         3.8480    1.7490    8.6540 cc        1 3QY     -0.161200
     20 C21         3.6680    0.3610    8.7370 cd        1 3QY      0.037700
     21 N22         4.0930   -0.2410    7.5340 na        1 3QY     -0.181400
     22 C24         3.1430   -0.3950    9.8280 cd        1 3QY     -0.215100
     23 C25         2.6740    0.0990   11.0630 cc        1 3QY     -0.117300
     24 N26         2.2650   -1.0130   11.7950 na        1 3QY     -0.016600
     25 N28         2.4360   -2.1570   11.1290 nc        1 3QY     -0.505800
     26 C29         2.9680   -1.8340    9.9240 cd        1 3QY      0.302200
     27 C30         4.8160    3.1830    6.6660 ca        1 3QY      0.465200
     28 N31         5.3140    3.1510    5.4330 nb        1 3QY     -0.721000
     29 H1          0.2520   -2.3140   -0.3990 hc        1 3QY      0.062700
     30 H2         -0.2350   -0.6810    0.2120 hc        1 3QY      0.062700
     31 H3          2.5470   -2.0600    0.3100 h1        1 3QY      0.054450
     32 H4          2.0450   -0.5740   -0.6250 h1        1 3QY      0.054450
     33 H5          5.6640    1.3420   -1.0390 h4        1 3QY      0.024100
     34 H6          2.5460   -1.5690    3.1230 h1        1 3QY      0.054450
     35 H7          2.0350    0.1450    3.4940 h1        1 3QY      0.054450
     36 H8          0.2580   -1.5820    3.8650 hc        1 3QY      0.062700
     37 H9         -0.2380   -0.2510    2.7420 hc        1 3QY      0.062700
     38 H10         6.8590    2.3160    0.9690 ha        1 3QY      0.154000
     39 H11         0.6810   -3.1050    1.9310 h1        1 3QY      0.037700
     40 H12        -1.1720   -4.3110    2.6700 h1        1 3QY      0.032367
     41 H13        -2.8060   -3.4750    2.5750 h1        1 3QY      0.032367
     42 H14        -1.5380   -2.8960    3.7710 h1        1 3QY      0.032367
     43 H15         6.6190    2.7410    3.3210 hn        1 3QY      0.431800
     44 H16         5.1960   -0.2530    4.8510 ha        1 3QY      0.159000
     45 H17         3.6100    2.4770    9.4230 ha        1 3QY      0.156000
     46 H18         4.0850   -1.2080    7.3470 hn        1 3QY      0.302700
     47 H19         2.6100    1.1170   11.4460 h4        1 3QY      0.185000
     48 H20         1.8830   -1.0190   12.7120 hn        1 3QY      0.326700
     49 H21         3.2100   -2.5890    9.1770 h4        1 3QY      0.041100
     50 H22         4.7310    4.1830    7.1280 h4        1 3QY      0.024100
     51 C1         -1.7110   -3.3350    2.7570 c3        1 3QY      0.116700
@<TRIPOS>BOND
     1    1    2 1   
     2    1    9 1   
     3    1   29 1   
     4    1   30 1   
     5    2   11 1   
     6    2   31 1   
     7    2   32 1   
     8    3    7 ar  
     9    3   12 ar  
    10    3   33 1   
    11    4    5 1   
    12    4   11 1   
    13    4   34 1   
    14    4   35 1   
    15    5    9 1   
    16    5   36 1   
    17    5   37 1   
    18    6   11 1   
    19    6   12 ar  
    20    6   13 ar  
    21    7    8 ar  
    22    7   38 1   
    23    8   13 ar  
    24    8   14 1   
    25    9   10 1   
    26    9   39 1   
    27   10   51 1   
    28   14   15 1   
    29   14   43 1   
    30   15   16 ar  
    31   15   28 ar  
    32   16   17 ar  
    33   16   44 1   
    34   17   18 ar  
    35   17   21 1   
    36   18   19 1   
    37   18   27 ar  
    38   19   20 2   
    39   19   45 1   
    40   20   21 1   
    41   20   22 1   
    42   21   46 1   
    43   22   23 2   
    44   22   26 1   
    45   23   24 1   
    46   23   47 1   
    47   24   25 1   
    48   24   48 1   
    49   25   26 2   
    50   26   49 1   
    51   27   28 ar  
    52   27   50 1   
    53   40   51 1   
    54   41   51 1   
    55   42   51 1   
@<TRIPOS>SUBSTRUCTURE
     1 3QY         1 TEMP              0 ****  ****    0 ROOT
