@<TRIPOS>MOLECULE
3QZ
   54    55     1     0     0
SMALL
bcc


@<TRIPOS>ATOM
      1 CAA        -0.2230   -0.8710    0.7720 c3        1 3QZ     -0.272000
      2 CAB         3.1700    2.3340    6.5680 c3        1 3QZ     -0.205000
      3 CAC         3.7050    1.1930    1.4590 c3        1 3QZ     -0.216000
      4 OAD         0.9610    1.0170   -0.0940 o         1 3QZ     -0.298000
      5 OAF         2.1370   -2.1730    0.9360 oh        1 3QZ     -0.319000
      6 CAG         5.2280    0.8410    8.0760 c3        1 3QZ     -0.182000
      7 CAH         5.2830   -0.5380    6.0670 c2        1 3QZ     -0.136000
      8 CAI         2.9330    0.7980    9.2000 c3        1 3QZ     -0.210000
      9 CAJ         4.8730   -1.3040    4.8670 c3        1 3QZ     -0.129000
     10 CAK         2.5300    0.8190    4.2270 c2        1 3QZ     -0.153000
     11 CAL         4.5380   -1.1040   -0.5580 c1        1 3QZ     -0.040000
     12 CAM         2.3440    0.3620    7.8780 c3        1 3QZ     -0.142000
     13 CAN         1.9970    0.1840    2.9990 c3        1 3QZ     -0.136000
     14 CAO         3.1440   -0.7290   -0.6150 c3        1 3QZ     -0.234000
     15 CAP         1.0100   -0.1010    0.4310 c2        1 3QZ      0.200000
     16 CAQ         4.4080    0.5400    9.3020 c2        1 3QZ      0.236000
     17 CAR         4.5780    0.3060    6.8360 c2        1 3QZ     -0.105000
     18 CAS         5.0370   -0.5280    3.5700 c3        1 3QZ     -0.144000
     19 CAT         2.5130    0.2370    5.4310 c2        1 3QZ     -0.156000
     20 CAU         4.1400   -1.0660    2.4700 c3        1 3QZ     -0.168000
     21 CAV         3.1650    0.8060    6.6550 c3        1 3QZ      0.022000
     22 CAW         3.0720   -0.1050    1.9340 c3        1 3QZ     -0.034000
     23 CAX         2.3630   -0.7850    0.7140 c3        1 3QZ      0.061000
     24 HAA        -0.2590   -1.0630    1.8720 hc        1 3QZ      0.109000
     25 HAAA       -1.1380   -0.3050    0.4720 hc        1 3QZ      0.109000
     26 HAAB       -0.2050   -1.8540    0.2390 hc        1 3QZ      0.109000
     27 HAB         3.9350    2.6780    5.8320 hc        1 3QZ      0.078667
     28 HABA        2.1650    2.6980    6.2450 hc        1 3QZ      0.078667
     29 HABB        3.4070    2.7920    7.5570 hc        1 3QZ      0.078667
     30 HAC         4.5850    0.9700    0.8060 hc        1 3QZ      0.087000
     31 HACA        4.0620    1.8060    2.3200 hc        1 3QZ      0.087000
     32 HACB        2.9630    1.8000    0.8820 hc        1 3QZ      0.087000
     33 HOAF        1.7950   -2.2740    1.8330 ho        1 3QZ      0.207000
     34 HAG         6.2590    0.4130    8.2100 hc        1 3QZ      0.114000
     35 HAH         5.3420    1.9570    7.9970 hc        1 3QZ      0.114000
     36 HAHA        6.3300   -0.7490    6.3650 ha        1 3QZ      0.117000
     37 HAI         2.7710    1.8990    9.3570 hc        1 3QZ      0.109500
     38 HAIA        2.4030    0.2650   10.0360 hc        1 3QZ      0.109500
     39 HAJ         3.8130   -1.6600    4.9770 hc        1 3QZ      0.084500
     40 HAJA        5.5030   -2.2350    4.8080 hc        1 3QZ      0.084500
     41 HAK         2.0220   -0.7400    5.5810 ha        1 3QZ      0.120000
     42 HAKA        2.9700    1.8200    4.0780 ha        1 3QZ      0.130000
     43 HAL         4.7850   -1.3670    1.5950 hc        1 3QZ      0.106500
     44 HALA        4.9880   -1.3620   -1.5310 ha        1 3QZ      0.042000
     45 HAM         2.2620   -0.7580    7.8660 hc        1 3QZ      0.089500
     46 HAMA        1.3070    0.7790    7.7850 hc        1 3QZ      0.089500
     47 HAN         1.4800   -0.7790    3.2580 hc        1 3QZ      0.081000
     48 HANA        1.2280    0.8800    2.5620 hc        1 3QZ      0.081000
     49 HAO         2.5580   -1.3440   -1.3590 hc        1 3QZ      0.137000
     50 HAOA        3.1220    0.3450   -0.9830 hc        1 3QZ      0.137000
     51 HAS         6.1070   -0.6070    3.2380 hc        1 3QZ      0.084500
     52 HAT         4.8470    0.5600    3.7550 hc        1 3QZ      0.084500
     53 HAU         3.6290   -1.9990    2.8290 hc        1 3QZ      0.106500
     54 OAE         4.9300    0.1380   10.3470 o         1 3QZ     -0.295000
@<TRIPOS>BOND
     1    1   15 1   
     2    1   24 1   
     3    1   25 1   
     4    1   26 1   
     5    2   21 1   
     6    2   27 1   
     7    2   28 1   
     8    2   29 1   
     9    3   22 1   
    10    3   30 1   
    11    3   31 1   
    12    3   32 1   
    13    4   15 1   
    14    5   23 1   
    15    5   33 1   
    16    6   16 1   
    17    6   17 1   
    18    6   34 1   
    19    6   35 1   
    20    7    9 1   
    21    7   17 1   
    22    7   36 1   
    23    8   12 1   
    24    8   16 1   
    25    8   37 1   
    26    8   38 1   
    27    9   18 1   
    28    9   39 1   
    29    9   40 1   
    30   10   13 1   
    31   10   19 1   
    32   10   42 1   
    33   11   14 1   
    34   11   44 1   
    35   12   21 1   
    36   12   45 1   
    37   12   46 1   
    38   13   22 1   
    39   13   47 1   
    40   13   48 1   
    41   14   23 1   
    42   14   49 1   
    43   14   50 1   
    44   15   23 1   
    45   16   54 1   
    46   17   21 1   
    47   18   20 1   
    48   18   51 1   
    49   18   52 1   
    50   19   21 1   
    51   19   41 1   
    52   20   22 1   
    53   20   43 1   
    54   20   53 1   
    55   22   23 1   
@<TRIPOS>SUBSTRUCTURE
     1 3QZ         1 TEMP              0 ****  ****    0 ROOT
