@<TRIPOS>MOLECULE
3QZ
   54    54     1     0     0
SMALL
bcc


@<TRIPOS>ATOM
      1 CAA        -1.0260   -0.0730    0.1460 c3        1 3QZ     -0.276000
      2 CAB         4.1740    2.4280    6.6450 c3        1 3QZ     -0.211000
      3 CAC         2.7120    0.6330    1.8420 c3        1 3QZ     -0.211000
      4 OAD         0.7400    1.5190   -0.0990 o         1 3QZ     -0.294000
      5 OAF         0.9020   -2.0250   -0.1300 oh        1 3QZ     -0.308000
      6 CAG         5.3910    1.0740    8.8840 c1        1 3QZ      0.020000
      7 CAH         6.5950    0.5850    6.7340 c3        1 3QZ     -0.137000
      8 CAI         2.9710    1.1770    9.1460 c3        1 3QZ     -0.225000
      9 CAJ         6.4580   -0.1850    5.4320 c3        1 3QZ     -0.138000
     10 CAK         0.8100   -0.5270    3.6630 c2        1 3QZ     -0.215000
     11 CAL         4.6180   -1.2310    0.8650 c3        1 3QZ     -0.241000
     12 CAM         2.8640    0.6050    7.7430 c3        1 3QZ     -0.160000
     13 CAN         1.2510   -1.2380    2.6290 c2        1 3QZ     -0.175000
     14 CAO         4.4530   -0.6260   -0.4420 c1        1 3QZ     -0.051000
     15 CAP         0.4090    0.3420    0.0740 c2        1 3QZ      0.209000
     16 CAQ         4.2900    0.7670    9.7780 c2        1 3QZ      0.163000
     17 CAR         5.3640    0.3870    7.5970 c3        1 3QZ     -0.155000
     18 CAS         5.0720   -0.2310    4.9040 c2        1 3QZ     -0.153000
     19 CAT         3.9970    0.2380    5.5470 c2        1 3QZ     -0.170000
     20 CAU         3.3380   -1.7720    1.4740 c3        1 3QZ     -0.133000
     21 CAV         4.0850    0.9220    6.8740 c3        1 3QZ     -0.004000
     22 CAW         2.1800   -0.7600    1.5530 c3        1 3QZ     -0.035000
     23 CAX         1.4520   -0.7600    0.1820 c3        1 3QZ     -0.033000
     24 HAA        -1.2230   -0.5760    1.1230 hc        1 3QZ      0.106333
     25 HAAA       -1.2470   -0.7910   -0.6820 hc        1 3QZ      0.106333
     26 HAAB       -1.6990    0.8130    0.0490 hc        1 3QZ      0.106333
     27 HAB         3.1950    2.8120    6.2700 hc        1 3QZ      0.088000
     28 HABA        4.4310    2.9570    7.5950 hc        1 3QZ      0.088000
     29 HABB        4.9580    2.6640    5.8860 hc        1 3QZ      0.088000
     30 HAC         3.3590    0.6160    2.7530 hc        1 3QZ      0.084667
     31 HACA        1.8760    1.3560    2.0050 hc        1 3QZ      0.084667
     32 HACB        3.3100    1.0060    0.9730 hc        1 3QZ      0.084667
     33 HOAF        0.2430   -2.2400    0.5410 ho        1 3QZ      0.192000
     34 HAG         5.2220   -0.7290    7.7390 hc        1 3QZ      0.113000
     35 HAH         7.5000    0.2270    7.2900 hc        1 3QZ      0.097500
     36 HAHA        6.7440    1.6770    6.5300 hc        1 3QZ      0.097500
     37 HAI         2.9050    2.2960    9.1220 hc        1 3QZ      0.119500
     38 HAIA        2.1270    0.7990    9.7800 hc        1 3QZ      0.119500
     39 HAJ         6.8070   -1.2430    5.5850 hc        1 3QZ      0.092500
     40 HAJA        7.1320    0.2750    4.6600 hc        1 3QZ      0.092500
     41 HAK         2.9860    0.1660    5.1150 ha        1 3QZ      0.135000
     42 HAKA        1.0700    0.5260    3.8350 ha        1 3QZ      0.116500
     43 HAL         5.1270   -0.5530    1.6080 hc        1 3QZ      0.112500
     44 HALA        5.3230   -2.1040    0.6930 hc        1 3QZ      0.112500
     45 HAM         2.7380   -0.5080    7.8030 hc        1 3QZ      0.097000
     46 HAMA        1.9470    1.0220    7.2500 hc        1 3QZ      0.097000
     47 HAN         0.1390   -0.9620    4.4180 ha        1 3QZ      0.116500
     48 HANA        0.9610   -2.2990    2.5230 ha        1 3QZ      0.119000
     49 HAO         2.2380   -0.6040   -0.6290 h1        1 3QZ      0.194000
     50 HAOA        5.2690    0.0420   -0.7600 ha        1 3QZ      0.040000
     51 HAS         3.5750   -2.1280    2.5120 hc        1 3QZ      0.093500
     52 HAT         4.9650   -0.7110    3.9160 ha        1 3QZ      0.123000
     53 HAU         2.9860   -2.6550    0.8770 hc        1 3QZ      0.093500
     54 OAE         4.3640    0.2980   10.9200 o         1 3QZ     -0.280000
@<TRIPOS>BOND
     1    1   15 1   
     2    1   24 1   
     3    1   25 1   
     4    1   26 1   
     5    2   21 1   
     6    2   27 1   
     7    2   28 1   
     8    2   29 1   
     9    3   22 1   
    10    3   30 1   
    11    3   31 1   
    12    3   32 1   
    13    4   15 1   
    14    5   23 1   
    15    5   33 1   
    16    6   16 1   
    17    6   17 1   
    18    7    9 1   
    19    7   17 1   
    20    7   35 1   
    21    7   36 1   
    22    8   12 1   
    23    8   16 1   
    24    8   37 1   
    25    8   38 1   
    26    9   18 1   
    27    9   39 1   
    28    9   40 1   
    29   10   13 1   
    30   10   42 1   
    31   10   47 1   
    32   11   14 1   
    33   11   20 1   
    34   11   43 1   
    35   11   44 1   
    36   12   21 1   
    37   12   45 1   
    38   12   46 1   
    39   13   22 1   
    40   13   48 1   
    41   14   50 1   
    42   15   23 1   
    43   16   54 1   
    44   17   21 1   
    45   17   34 1   
    46   18   19 1   
    47   18   52 1   
    48   19   21 1   
    49   19   41 1   
    50   20   22 1   
    51   20   51 1   
    52   20   53 1   
    53   22   23 1   
    54   23   49 1   
@<TRIPOS>SUBSTRUCTURE
     1 3QZ         1 TEMP              0 ****  ****    0 ROOT
