@<TRIPOS>MOLECULE
3QZ
   54    57     1     0     0
SMALL
bcc


@<TRIPOS>ATOM
      1 CAA         4.9910    1.9230   -0.4070 c3        1 3QZ     -0.195100
      2 CAB        -2.3070    0.6420    1.9570 c3        1 3QZ     -0.086100
      3 CAC         2.2580    0.3240    1.6330 c3        1 3QZ     -0.098100
      4 OAD         5.1870    0.0880    1.1160 o         1 3QZ     -0.528100
      5 OAF         3.3580    0.3260   -1.8880 oh        1 3QZ     -0.586800
      6 CAG        -4.3300   -0.9010   -0.2840 ce        1 3QZ     -0.265200
      7 CAH        -2.3550   -2.1410    0.4920 c3        1 3QZ     -0.054200
      8 CAI        -4.5270    1.5910   -0.0550 c3        1 3QZ     -0.182400
      9 CAJ        -0.9640   -2.1840   -0.0990 c3        1 3QZ     -0.072400
     10 CAK        -0.0690    1.5660    0.1550 c3        1 3QZ     -0.075400
     11 CAL         2.1200   -2.1640   -0.0990 c3        1 3QZ     -0.069400
     12 CAM        -3.0260    1.5990   -0.2310 c3        1 3QZ     -0.070400
     13 CAN         1.3540    1.4980   -0.3770 c3        1 3QZ     -0.063400
     14 CAO         3.5200   -1.6410   -0.4290 c3        1 3QZ     -0.103400
     15 CAP         4.5980    0.5970    0.1580 c         1 3QZ      0.549100
     16 CAQ        -5.1300    0.3030   -0.5380 c         1 3QZ      0.570300
     17 CAR        -3.0660   -0.8700    0.1730 c2        1 3QZ     -0.027400
     18 CAS        -0.1680   -0.9600    0.3200 c3        1 3QZ     -0.049700
     19 CAT        -0.8930    0.3170   -0.1360 c3        1 3QZ     -0.048700
     20 CAU         1.2060   -0.9670   -0.3180 c3        1 3QZ     -0.064700
     21 CAV        -2.3210    0.4140    0.4480 c3        1 3QZ     -0.015800
     22 CAW         2.0520    0.2470    0.1290 c3        1 3QZ     -0.026000
     23 CAX         3.4260   -0.0970   -0.5310 c3        1 3QZ      0.051800
     24 HAA         5.7050    2.4500    0.2700 hc        1 3QZ      0.067700
     25 HAAA        5.4760    1.7680   -1.4030 hc        1 3QZ      0.067700
     26 HAAB        4.0800    2.5530   -0.5600 hc        1 3QZ      0.067700
     27 HAB        -3.3440    0.5700    2.3640 hc        1 3QZ      0.040367
     28 HABA       -1.6730   -0.1210    2.4670 hc        1 3QZ      0.040367
     29 HABB       -1.9070    1.6570    2.1960 hc        1 3QZ      0.040367
     30 HAC         1.2830    0.3710    2.1730 hc        1 3QZ      0.045367
     31 HACA        2.8250   -0.5680    1.9970 hc        1 3QZ      0.045367
     32 HACB        2.8430    1.2410    1.8910 hc        1 3QZ      0.045367
     33 HOAF        4.1100   -0.0710   -2.3440 ho        1 3QZ      0.402000
     34 HAG        -4.8430   -1.8560   -0.4870 ha        1 3QZ      0.148000
     35 HAH        -2.9430   -3.0240    0.1220 hc        1 3QZ      0.056200
     36 HAHA       -2.2900   -2.2290    1.6130 hc        1 3QZ      0.056200
     37 HAI        -4.7930    1.7090    1.0300 hc        1 3QZ      0.071200
     38 HAIA       -4.9790    2.4550   -0.6090 hc        1 3QZ      0.071200
     39 HAJ        -0.4360   -3.1100    0.2490 hc        1 3QZ      0.048200
     40 HAJA       -1.0270   -2.2320   -1.2180 hc        1 3QZ      0.048200
     41 HAK        -0.0370    1.7470    1.2620 hc        1 3QZ      0.043200
     42 HAKA       -0.5730    2.4520   -0.3150 hc        1 3QZ      0.043200
     43 HAL         1.8380   -3.0160   -0.7630 hc        1 3QZ      0.047700
     44 HALA        2.0680   -2.5200    0.9600 hc        1 3QZ      0.047700
     45 HAM        -2.7890    1.5860   -1.3290 hc        1 3QZ      0.050700
     46 HAMA       -2.6210    2.5560    0.1900 hc        1 3QZ      0.050700
     47 HAN         1.3450    1.4920   -1.4980 hc        1 3QZ      0.052700
     48 HANA        1.9130    2.4120   -0.0470 hc        1 3QZ      0.052700
     49 HAO         4.2460   -1.9280    0.3730 hc        1 3QZ      0.061200
     50 HAOA        3.8810   -2.0640   -1.3990 hc        1 3QZ      0.061200
     51 HAS        -0.0690   -0.9640    1.4390 hc        1 3QZ      0.056700
     52 HAT        -1.0060    0.2430   -1.2570 hc        1 3QZ      0.054700
     53 HAU         1.0590   -0.8680   -1.4350 hc        1 3QZ      0.062700
     54 OAE        -6.2390    0.2600   -1.0850 o         1 3QZ     -0.536100
@<TRIPOS>BOND
     1    1   15 1   
     2    1   24 1   
     3    1   25 1   
     4    1   26 1   
     5    2   21 1   
     6    2   27 1   
     7    2   28 1   
     8    2   29 1   
     9    3   22 1   
    10    3   30 1   
    11    3   31 1   
    12    3   32 1   
    13    4   15 2   
    14    5   23 1   
    15    5   33 1   
    16    6   16 1   
    17    6   17 2   
    18    6   34 1   
    19    7    9 1   
    20    7   17 1   
    21    7   35 1   
    22    7   36 1   
    23    8   12 1   
    24    8   16 1   
    25    8   37 1   
    26    8   38 1   
    27    9   18 1   
    28    9   39 1   
    29    9   40 1   
    30   10   13 1   
    31   10   19 1   
    32   10   41 1   
    33   10   42 1   
    34   11   14 1   
    35   11   20 1   
    36   11   43 1   
    37   11   44 1   
    38   12   21 1   
    39   12   45 1   
    40   12   46 1   
    41   13   22 1   
    42   13   47 1   
    43   13   48 1   
    44   14   23 1   
    45   14   49 1   
    46   14   50 1   
    47   15   23 1   
    48   16   54 2   
    49   17   21 1   
    50   18   19 1   
    51   18   20 1   
    52   18   51 1   
    53   19   21 1   
    54   19   52 1   
    55   20   22 1   
    56   20   53 1   
    57   22   23 1   
@<TRIPOS>SUBSTRUCTURE
     1 3QZ         1 TEMP              0 ****  ****    0 ROOT
