@<TRIPOS>MOLECULE
3QZ
   54    56     1     0     0
SMALL
bcc


@<TRIPOS>ATOM
      1 CAA        -5.1890   -1.4880   -0.8450 c3        1 3QZ     -0.265000
      2 CAB         2.4820    1.3610    1.1290 c3        1 3QZ     -0.204000
      3 CAC        -1.8170    2.1240   -0.6460 c3        1 3QZ     -0.195000
      4 OAD        -2.9670   -2.0400   -0.2170 o         1 3QZ     -0.288000
      5 OAE         5.6940   -1.3560    3.2370 o         1 3QZ     -0.297000
      6 OAF        -4.1730    1.0340   -0.6160 oh        1 3QZ     -0.309000
      7 CAG         4.5620   -1.3090    1.0170 c1        1 3QZ     -0.246000
      8 CAH         3.1790   -0.4710   -1.2310 c3        1 3QZ     -0.137000
      9 CAI         3.4590   -0.3770    3.3820 c3        1 3QZ     -0.211000
     10 CAJ         1.6430   -0.6710   -1.7650 c3        1 3QZ     -0.152000
     11 CAK        -0.3420    0.4280    1.5480 c3        1 3QZ     -0.152000
     12 CAL        -1.0290    0.3650   -2.6080 c3        1 3QZ     -0.143000
     13 CAM         2.1580   -0.4990    2.6270 c3        1 3QZ     -0.149000
     14 CAN        -1.8700    0.2330    0.9680 c3        1 3QZ     -0.150000
     15 CAO        -2.6430    0.3670   -2.7190 c3        1 3QZ     -0.178000
     16 CAP        -3.7040   -1.1900   -0.6590 c2        1 3QZ      0.207000
     17 CAQ         4.6400   -1.1570    2.6530 c1        1 3QZ      0.262000
     18 CAR         3.2340   -0.8450    0.3260 c2        1 3QZ     -0.019000
     19 CAS         0.6190    0.0490   -0.8970 c3        1 3QZ     -0.087000
     20 CAT         0.7460   -0.3260    0.6410 c3        1 3QZ     -0.089000
     21 CAU        -0.8190   -0.1670   -1.4280 c3        1 3QZ     -0.113000
     22 CAV         2.1740   -0.1270    1.1990 c3        1 3QZ     -0.020000
     23 CAW        -1.9670    0.5950   -0.4930 c3        1 3QZ     -0.027000
     24 CAX        -3.1310    0.1990   -1.0730 c3        1 3QZ      0.030000
     25 HAA        -5.3470   -2.4460   -0.7210 hc        1 3QZ      0.107000
     26 HAAA       -5.7110   -0.9800   -0.1820 hc        1 3QZ      0.107000
     27 HAAB       -5.4640   -1.2260   -1.7470 hc        1 3QZ      0.107000
     28 HAB         3.4580    1.5030    1.2400 hc        1 3QZ      0.079667
     29 HABA        2.0050    1.8230    1.8360 hc        1 3QZ      0.079667
     30 HABB        2.1970    1.7140    0.2560 hc        1 3QZ      0.079667
     31 HAC        -2.0480    2.3850   -1.5610 hc        1 3QZ      0.081667
     32 HACA       -2.4270    2.5840   -0.0060 hc        1 3QZ      0.081667
     33 HACB       -0.9070    2.3780   -0.4600 hc        1 3QZ      0.081667
     34 HOAF       -4.8150    1.0900   -1.2510 ho        1 3QZ      0.200000
     35 HAG         5.3850   -1.3930    0.4920 ha        1 3QZ      0.148000
     36 HAH         3.4870    0.4080   -1.5500 hc        1 3QZ      0.095000
     37 HAHA        3.8270   -1.0630   -1.6700 hc        1 3QZ      0.095000
     38 HAI         3.6020    0.5560    3.6600 hc        1 3QZ      0.110500
     39 HAIA        3.3790   -0.8060    4.2610 hc        1 3QZ      0.110500
     40 HAJ         1.5800   -0.3270   -2.6800 hc        1 3QZ      0.088500
     41 HAJA        1.4350   -1.6250   -1.7720 hc        1 3QZ      0.088500
     42 HAK        -0.1300    1.3820    1.5700 hc        1 3QZ      0.083500
     43 HAKA       -0.2990    0.0710    2.4600 hc        1 3QZ      0.083500
     44 HAL        -0.6330   -0.1900   -3.3140 hc        1 3QZ      0.087500
     45 HALA       -0.6790    1.2760   -2.6440 hc        1 3QZ      0.087500
     46 HAM         1.4960    0.0640    3.0760 hc        1 3QZ      0.090500
     47 HAMA        1.8620   -1.4210    2.6910 hc        1 3QZ      0.090500
     48 HAN        -2.1380   -0.7030    1.0840 hc        1 3QZ      0.087000
     49 HANA       -2.4810    0.8050    1.4790 hc        1 3QZ      0.087000
     50 HAO        -2.9590   -0.4010   -3.2600 hc        1 3QZ      0.096000
     51 HAOA       -2.9610    1.2050   -3.0880 hc        1 3QZ      0.096000
     52 HAS         0.8090    1.0100   -0.9720 hc        1 3QZ      0.096000
     53 HAT         0.5520   -1.2760    0.7090 hc        1 3QZ      0.095000
     54 HAU        -1.0130   -1.1260   -1.4650 hc        1 3QZ      0.110000
@<TRIPOS>BOND
     1    1   16 1   
     2    1   25 1   
     3    1   26 1   
     4    1   27 1   
     5    2   22 1   
     6    2   28 1   
     7    2   29 1   
     8    2   30 1   
     9    3   23 1   
    10    3   31 1   
    11    3   32 1   
    12    3   33 1   
    13    4   16 1   
    14    5   17 1   
    15    6   24 1   
    16    6   34 1   
    17    7   18 1   
    18    7   35 1   
    19    8   10 1   
    20    8   18 1   
    21    8   36 1   
    22    8   37 1   
    23    9   13 1   
    24    9   17 1   
    25    9   38 1   
    26    9   39 1   
    27   10   19 1   
    28   10   40 1   
    29   10   41 1   
    30   11   14 1   
    31   11   20 1   
    32   11   42 1   
    33   11   43 1   
    34   12   15 1   
    35   12   21 1   
    36   12   44 1   
    37   12   45 1   
    38   13   22 1   
    39   13   46 1   
    40   13   47 1   
    41   14   23 1   
    42   14   48 1   
    43   14   49 1   
    44   15   24 1   
    45   15   50 1   
    46   15   51 1   
    47   16   24 1   
    48   18   22 1   
    49   19   20 1   
    50   19   21 1   
    51   19   52 1   
    52   20   22 1   
    53   20   53 1   
    54   21   23 1   
    55   21   54 1   
    56   23   24 1   
@<TRIPOS>SUBSTRUCTURE
     1 3QZ         1 TEMP              0 ****  ****    0 ROOT
