@<TRIPOS>MOLECULE
3R0
   50    50     1     0     0
SMALL
bcc


@<TRIPOS>ATOM
      1 C4         -0.1710   -0.3180   -1.3370 c3        1 3R0     -0.216000
      2 C5          1.0490   -0.2600   -0.4840 c2        1 3R0      0.049000
      3 C11         5.5980    1.2350   -0.0420 c1        1 3R0      0.105000
      4 C7          2.1520   -3.4290    4.2880 c3        1 3R0     -0.178000
      5 C8          1.6770   -2.0730    3.9580 c2        1 3R0     -0.216000
      6 C9          3.1520    0.6900    0.1420 c2        1 3R0      0.246000
      7 C12         5.8870    1.2790    1.2900 c1        1 3R0     -0.413000
      8 C13         6.1930    1.3260    2.4780 c1        1 3R0      0.153000
      9 C3          0.8830   -1.8210    2.9100 c2        1 3R0     -0.078000
     10 O2          0.4400   -0.5650    2.5280 os        1 3R0     -0.288000
     11 N6          1.9850    0.6060   -0.6850 n2        1 3R0     -0.227000
     12 N10         4.3710    0.9580   -0.5320 n7        1 3R0     -0.196000
     13 N14         3.0700    0.6070    1.4810 n8        1 3R0     -0.269000
     14 N15         6.4880    1.3650    3.7620 n2        1 3R0     -0.194000
     15 C16         5.5050    1.0970    4.6550 c2        1 3R0      0.201000
     16 C17         5.8900    1.0490    6.0830 c2        1 3R0     -0.185000
     17 C18         4.8820    1.0410    6.9850 c2        1 3R0     -0.029000
     18 C19         3.4320    1.3070    6.5320 c3        1 3R0     -0.101000
     19 C20         3.1970    0.7970    5.1260 c1        1 3R0     -0.194000
     20 N21         4.1780    0.7760    4.2800 n2        1 3R0     -0.355000
     21 N22         2.6290    0.8220    7.6600 n7        1 3R0     -0.257000
     22 C23         3.5840    0.4420    8.6570 c2        1 3R0      0.058000
     23 N24         4.8690    0.6370    8.3480 n2        1 3R0     -0.166000
     24 C26         3.1400   -0.0580   10.0110 c3        1 3R0      0.007000
     25 C27         3.7790   -1.4070   10.2910 c2        1 3R0     -0.054000
     26 N28         3.2370   -2.5070   10.6260 n2        1 3R0     -0.207000
     27 N30         0.5380   -0.1170   10.2380 n1        1 3R0     -0.013000
     28 C31         1.6950   -0.0950   10.1290 c1        1 3R0     -0.153000
     29 H1         -1.0660   -0.1780   -0.6780 hc        1 3R0      0.118333
     30 H2         -0.1910    0.4580   -2.1410 hc        1 3R0      0.118333
     31 H3         -0.2290   -1.3300   -1.8110 hc        1 3R0      0.118333
     32 H4          1.0660   -1.0280    0.3300 h4        1 3R0      0.144000
     33 H5          4.3040    0.9980   -1.5330 hn        1 3R0      0.280000
     34 H6          1.7970   -4.1930    3.5530 hc        1 3R0      0.082000
     35 H7          1.7880   -3.7250    5.3050 hc        1 3R0      0.082000
     36 H8          3.2720   -3.4470    4.3030 hc        1 3R0      0.082000
     37 H9          2.0290   -1.2590    4.6230 ha        1 3R0      0.175000
     38 H10         3.8610    0.7520    2.0940 hn        1 3R0      0.299000
     39 H11         0.5050   -2.5700    2.1970 h4        1 3R0      0.140000
     40 H12         1.2320    0.6260    4.0810 h1        1 3R0      0.103667
     41 H13        -0.4610   -0.0450    4.3450 h1        1 3R0      0.103667
     42 H14        -0.1950    1.2640    3.0850 h1        1 3R0      0.103667
     43 H15         2.1970    0.4130    1.9420 hn        1 3R0      0.299000
     44 H16         6.9490    0.9290    6.3490 ha        1 3R0      0.171000
     45 H17         3.2600    2.4280    6.4780 h1        1 3R0      0.151000
     46 H18         1.9190    0.1590    7.4380 hn        1 3R0      0.219000
     47 H20         3.5350    0.6690   10.7910 hc        1 3R0      0.168000
     48 H21         4.8880   -1.3860   10.1930 h4        1 3R0      0.180000
     49 H22         2.2430   -2.5320   10.7140 hn        1 3R0      0.148000
     50 C1          0.2500    0.3720    3.5930 c3        1 3R0     -0.119000
@<TRIPOS>BOND
     1    1    2 1   
     2    1   29 1   
     3    1   30 1   
     4    1   31 1   
     5    2   11 1   
     6    2   32 1   
     7    3    7 1   
     8    3   12 1   
     9    4    5 1   
    10    4   34 1   
    11    4   35 1   
    12    4   36 1   
    13    5    9 1   
    14    5   37 1   
    15    6   11 1   
    16    6   12 1   
    17    6   13 1   
    18    7    8 1   
    19    8   14 1   
    20    9   10 1   
    21    9   39 1   
    22   10   50 1   
    23   12   33 1   
    24   13   38 1   
    25   13   43 1   
    26   14   15 1   
    27   15   16 1   
    28   15   20 1   
    29   16   17 1   
    30   16   44 1   
    31   17   18 1   
    32   17   23 1   
    33   18   19 1   
    34   18   21 1   
    35   18   45 1   
    36   19   20 1   
    37   21   22 1   
    38   21   46 1   
    39   22   23 1   
    40   22   24 1   
    41   24   25 1   
    42   24   28 1   
    43   24   47 1   
    44   25   26 1   
    45   25   48 1   
    46   26   49 1   
    47   27   28 1   
    48   40   50 1   
    49   41   50 1   
    50   42   50 1   
@<TRIPOS>SUBSTRUCTURE
     1 3R0         1 TEMP              0 ****  ****    0 ROOT
