@<TRIPOS>MOLECULE
3R0
   50    54     1     0     0
SMALL
bcc


@<TRIPOS>ATOM
      1 C4          0.3530   -1.5180    0.4150 c3        1 3R0     -0.099900
      2 C5          1.8210   -1.1140    0.3170 c3        1 3R0      0.201800
      3 C11         5.2450    1.1220   -0.0740 ca        1 3R0      0.480200
      4 C7          1.9070   -0.7750    2.7580 c3        1 3R0      0.201800
      5 C8          0.4420   -1.1850    2.8720 c3        1 3R0     -0.099900
      6 C9          3.5730    0.2830    1.3020 ca        1 3R0      0.896900
      7 C12         5.9470    1.6350    1.0220 ca        1 3R0     -0.459600
      8 C13         5.3820    1.3920    2.3120 ca        1 3R0      0.692200
      9 C3          0.0570   -2.1560    1.7660 c3        1 3R0      0.136100
     10 O2         -1.3490   -2.4220    1.7810 os        1 3R0     -0.418600
     11 N6          2.2870   -0.3050    1.4340 nh        1 3R0     -0.727300
     12 N10         4.0900    0.4500    0.0190 nb        1 3R0     -0.768000
     13 N14         4.2020    0.7220    2.4580 nb        1 3R0     -0.792000
     14 N15         6.1240    1.7900    3.4450 nh        1 3R0     -0.806600
     15 C16         5.5010    1.8260    4.7320 ca        1 3R0      0.577200
     16 C17         5.1140    0.6090    5.3360 ca        1 3R0     -0.150300
     17 C18         4.5740    0.6780    6.6270 ca        1 3R0      0.106400
     18 C19         4.4510    1.9790    7.2650 ca        1 3R0     -0.211500
     19 C20         4.8730    3.1320    6.5730 ca        1 3R0      0.428200
     20 N21         5.3760    3.0590    5.3440 nb        1 3R0     -0.691000
     21 N22         3.8980    1.7440    8.5230 na        1 3R0     -0.265300
     22 C23         3.7030    0.3450    8.6170 cc        1 3R0      0.531400
     23 N24         4.0990   -0.3170    7.4970 nd        1 3R0     -0.579100
     24 C26         3.1450   -0.2640    9.7930 cc        1 3R0     -0.312200
     25 C27         2.9390   -1.6420   10.0090 cd        1 3R0     -0.073300
     26 N28         2.3820   -1.7490   11.2790 na        1 3R0     -0.017600
     27 N30         2.2230   -0.5620   11.8740 nd        1 3R0     -0.506800
     28 C31         2.6750    0.3770   11.0060 cc        1 3R0      0.315200
     29 H1         -0.3110   -0.6260    0.2760 hc        1 3R0      0.062200
     30 H2          0.1290   -2.2440   -0.4070 hc        1 3R0      0.062200
     31 H3          1.9390   -0.5230   -0.6360 h1        1 3R0      0.056200
     32 H4          2.4490   -2.0480    0.2280 h1        1 3R0      0.056200
     33 H5          5.6310    1.2540   -1.1020 h4        1 3R0      0.024100
     34 H6          2.0810    0.0540    3.5020 h1        1 3R0      0.056200
     35 H7          2.5530   -1.6520    3.0580 h1        1 3R0      0.056200
     36 H8         -0.2220   -0.2830    2.8160 hc        1 3R0      0.062200
     37 H9          0.2920   -1.6580    3.8770 hc        1 3R0      0.062200
     38 H10         6.8870    2.1790    0.8910 ha        1 3R0      0.153000
     39 H11         0.6270   -3.1200    1.8780 h1        1 3R0      0.038700
     40 H12        -1.2170   -4.3270    2.6390 h1        1 3R0      0.032033
     41 H13        -2.8410   -3.4670    2.6310 h1        1 3R0      0.032033
     42 H14        -1.5230   -2.9460    3.8000 h1        1 3R0      0.032033
     43 H15         6.7030    2.5870    3.2530 hn        1 3R0      0.428800
     44 H16         5.2210   -0.3550    4.8180 ha        1 3R0      0.173000
     45 H17         4.8000    4.1400    7.0160 h4        1 3R0      0.025100
     46 H18         3.6780    2.4150    9.2070 hn        1 3R0      0.309700
     47 H20         3.1460   -2.4990    9.3660 h4        1 3R0      0.201000
     48 H21         2.1130   -2.5830   11.7490 hn        1 3R0      0.329700
     49 H22         2.6590    1.4400   11.2430 h4        1 3R0      0.043100
     50 C1         -1.7380   -3.3470    2.7790 c3        1 3R0      0.116700
@<TRIPOS>BOND
     1    1    2 1   
     2    1    9 1   
     3    1   29 1   
     4    1   30 1   
     5    2   11 1   
     6    2   31 1   
     7    2   32 1   
     8    3    7 ar  
     9    3   12 ar  
    10    3   33 1   
    11    4    5 1   
    12    4   11 1   
    13    4   34 1   
    14    4   35 1   
    15    5    9 1   
    16    5   36 1   
    17    5   37 1   
    18    6   11 1   
    19    6   12 ar  
    20    6   13 ar  
    21    7    8 ar  
    22    7   38 1   
    23    8   13 ar  
    24    8   14 1   
    25    9   10 1   
    26    9   39 1   
    27   10   50 1   
    28   14   15 1   
    29   14   43 1   
    30   15   16 ar  
    31   15   20 ar  
    32   16   17 ar  
    33   16   44 1   
    34   17   18 ar  
    35   17   23 1   
    36   18   19 ar  
    37   18   21 1   
    38   19   20 ar  
    39   19   45 1   
    40   21   22 1   
    41   21   46 1   
    42   22   23 2   
    43   22   24 1   
    44   24   25 2   
    45   24   28 1   
    46   25   26 1   
    47   25   47 1   
    48   26   27 1   
    49   26   48 1   
    50   27   28 2   
    51   28   49 1   
    52   40   50 1   
    53   41   50 1   
    54   42   50 1   
@<TRIPOS>SUBSTRUCTURE
     1 3R0         1 TEMP              0 ****  ****    0 ROOT
