@<TRIPOS>MOLECULE
3R1
   50    49     1     0     0
SMALL
bcc


@<TRIPOS>ATOM
      1 C4         -0.1570    0.0390   -0.0320 c2        1 3R1      0.219000
      2 C6          0.5390   -0.0130    2.2820 c2        1 3R1      0.071000
      3 C11        -4.5030   -1.2550    4.8710 c3        1 3R1     -0.246000
      4 C9         -3.4490   -1.0010    3.8450 c2        1 3R1     -0.055000
      5 C12        -0.3120   -0.2560    6.6020 c1        1 3R1     -0.024000
      6 C3          1.2400    0.4200   -0.3060 c2        1 3R1     -0.233000
      7 C2          2.1460    0.5510    0.7200 c2        1 3R1      0.031000
      8 N5         -0.4500   -0.1720    1.3300 na        1 3R1     -0.262000
      9 N7          1.7940    0.3300    2.0500 n2        1 3R1     -0.225000
     10 N8         -2.2130   -0.7280    4.0050 n2        1 3R1     -0.291000
     11 O13         0.4760   -0.1370    5.6000 oh        1 3R1     -0.142000
     12 N14        -0.9740   -0.0590   -1.0720 n2        1 3R1     -0.290000
     13 C15        -2.3300   -0.4010   -1.0420 c2        1 3R1      0.190000
     14 C16        -2.9290   -0.3860   -2.4000 c2        1 3R1     -0.239000
     15 C17        -4.1960    0.0290   -2.6210 c2        1 3R1      0.013000
     16 C18        -5.4040   -1.4090    0.3150 c1        1 3R1     -0.267000
     17 C19        -4.2650   -1.0700    0.1180 c1        1 3R1     -0.079000
     18 N20        -2.9740   -0.7200    0.0710 n2        1 3R1     -0.225000
     19 N21        -4.7860    0.0480   -3.8830 n         1 3R1     -0.326000
     20 C22        -6.0610    0.5600   -4.1040 c2        1 3R1      0.346000
     21 O23        -6.7620    1.0160   -3.1890 o         1 3R1     -0.293000
     22 C24        -6.5320    0.5060   -5.5240 c2        1 3R1     -0.128000
     23 C25        -7.0960   -0.7970   -5.9880 c3        1 3R1     -0.037000
     24 C26        -7.6910   -0.7540   -7.3540 c2        1 3R1     -0.085000
     25 C27        -7.5430    0.3210   -8.1590 c2        1 3R1     -0.204000
     26 C28        -6.7120    1.4180   -7.7790 c1        1 3R1      0.015000
     27 C29        -6.4350    1.5630   -6.3710 c2        1 3R1     -0.083000
     28 CL1        -5.8670    3.0740   -5.8690 cl        1 3R1      0.051000
     29 CL2        -8.3200   -1.3870   -4.8630 cl        1 3R1     -0.034000
     30 H2         -1.8690   -0.6690    4.9440 hn        1 3R1      0.166000
     31 H3         -4.9320   -2.2760    4.7180 hc        1 3R1      0.090333
     32 H4         -4.1110   -1.1880    5.9150 hc        1 3R1      0.090333
     33 H5         -3.8150   -1.0620    2.7940 h4        1 3R1      0.151000
     34 H6          0.0910   -0.0700    7.6240 ha        1 3R1      0.012000
     35 H7          1.5200    0.5960   -1.3530 ha        1 3R1      0.168000
     36 H11         0.2350   -0.1940    3.3410 h5        1 3R1      0.218000
     37 H12         1.4100    0.1170    5.7790 ho        1 3R1      0.161000
     38 H13        -1.3730   -0.4350    1.6280 hn        1 3R1      0.302000
     39 H14        -2.2620   -0.7070   -3.2160 ha        1 3R1      0.151000
     40 H15        -4.8660    0.3810   -1.8070 h4        1 3R1      0.184000
     41 H16        -6.4060   -1.7000    0.4850 ha        1 3R1      0.229000
     42 H17        -4.2380   -0.2290   -4.6650 hn        1 3R1      0.232000
     43 H18        -6.2770   -1.5740   -5.9660 h1        1 3R1      0.147000
     44 H19        -8.2220   -1.6660   -7.6730 ha        1 3R1      0.157000
     45 H20        -7.9890    0.3550   -9.1670 ha        1 3R1      0.169000
     46 C1          3.5580    0.9390    0.4300 c3        1 3R1     -0.174000
     47 H1         -5.3250   -0.5070    4.7520 hc        1 3R1      0.090333
     48 H8          3.7040    1.0830   -0.6680 hc        1 3R1      0.096333
     49 H9          4.2600    0.1440    0.7870 hc        1 3R1      0.096333
     50 H10         3.8130    1.8930    0.9560 hc        1 3R1      0.096333
@<TRIPOS>BOND
     1    1    6 1   
     2    1    8 1   
     3    1   12 1   
     4    2    8 1   
     5    2    9 1   
     6    2   36 1   
     7    3    4 1   
     8    3   31 1   
     9    3   32 1   
    10    3   47 1   
    11    4   10 1   
    12    4   33 1   
    13    5   11 1   
    14    5   34 1   
    15    6    7 1   
    16    6   35 1   
    17    7    9 1   
    18    7   46 1   
    19    8   38 1   
    20   10   30 1   
    21   11   37 1   
    22   12   13 1   
    23   13   14 1   
    24   13   18 1   
    25   14   15 1   
    26   14   39 1   
    27   15   19 1   
    28   15   40 1   
    29   16   17 1   
    30   16   41 1   
    31   17   18 1   
    32   19   20 1   
    33   19   42 1   
    34   20   21 1   
    35   20   22 1   
    36   22   23 1   
    37   22   27 1   
    38   23   24 1   
    39   23   29 1   
    40   23   43 1   
    41   24   25 1   
    42   24   44 1   
    43   25   26 1   
    44   25   45 1   
    45   26   27 1   
    46   27   28 1   
    47   46   48 1   
    48   46   49 1   
    49   46   50 1   
@<TRIPOS>SUBSTRUCTURE
     1 3R1         1 TEMP              0 ****  ****    0 ROOT
