@<TRIPOS>MOLECULE
3R1
   50    49     1     0     0
SMALL
bcc


@<TRIPOS>ATOM
      1 C4          0.7750    0.8900   -0.1880 c2        1 3R1      0.120000
      2 C6          1.3810    1.1820    2.1350 c2        1 3R1      0.064000
      3 C11        -6.1560   -3.1860    0.9930 c3        1 3R1     -0.250000
      4 C9         -5.0710   -2.2610    1.4270 c2        1 3R1     -0.034000
      5 C12        -1.8780   -0.3630    2.5780 c1        1 3R1     -0.067000
      6 C3          2.2320    0.9860   -0.4350 c2        1 3R1     -0.206000
      7 C2          3.1040    1.2070    0.5950 c2        1 3R1      0.004000
      8 N5          0.3990    0.9780    1.1820 na        1 3R1     -0.319000
      9 N7          2.6720    1.3310    1.9240 n2        1 3R1     -0.219000
     10 N8         -4.7030   -1.9400    2.6080 n2        1 3R1     -0.302000
     11 O13        -2.7360    0.3770    3.1740 oh        1 3R1     -0.142000
     12 N14        -0.0200    0.7980   -1.2290 n2        1 3R1     -0.177000
     13 C15        -1.4200    0.7600   -1.1730 c2        1 3R1     -0.147000
     14 C16        -2.1040   -0.0430   -2.1690 c2        1 3R1     -0.004000
     15 C17        -3.3950   -0.3240   -2.1340 c1        1 3R1     -0.100000
     16 C18        -3.6190    2.9660    1.2290 c3        1 3R1     -0.098000
     17 C19        -2.8060    2.2630    0.2850 c1        1 3R1     -0.088000
     18 N20        -2.1590    1.4800   -0.3130 n2        1 3R1      0.053000
     19 N21        -4.5810   -0.6880   -2.0670 n2        1 3R1     -0.172000
     20 C22        -5.6970    0.0410   -2.5790 c2        1 3R1      0.304000
     21 O23        -6.1670    1.0220   -1.9880 o         1 3R1     -0.277000
     22 C24        -6.3640   -0.5640   -3.7710 c2        1 3R1     -0.120000
     23 C25        -6.9000   -1.9470   -3.6040 c3        1 3R1     -0.024000
     24 C26        -7.4910   -2.5350   -4.8360 c2        1 3R1     -0.098000
     25 C27        -7.6190   -1.8180   -5.9760 c2        1 3R1     -0.195000
     26 C28        -7.3600   -0.4160   -5.9800 c1        1 3R1      0.020000
     27 C29        -6.4840    0.0880   -4.9600 c2        1 3R1     -0.083000
     28 Cl1        -5.7270    1.5690   -5.2640 cl        1 3R1      0.046000
     29 Cl2        -8.1030   -1.9980   -2.3030 cl        1 3R1     -0.077000
     30 H2         -5.2090   -2.3630    3.3590 hn        1 3R1      0.135000
     31 H3         -6.8470   -2.6470    0.2960 hc        1 3R1      0.098333
     32 H4         -6.7530   -3.5840    1.8490 hc        1 3R1      0.098333
     33 H5         -4.5130   -1.7920    0.5840 h4        1 3R1      0.158000
     34 H6         -1.9730   -1.4680    2.6350 ha        1 3R1      0.046000
     35 H7          2.5720    0.8750   -1.4740 ha        1 3R1      0.161000
     36 H11         1.0200    1.2450    3.1850 h5        1 3R1      0.174000
     37 H12        -3.4620   -0.0790    3.6550 ho        1 3R1      0.188000
     38 H13        -0.5000    0.6320    1.4950 hn        1 3R1      0.284000
     39 H14        -1.4790   -0.4620   -2.9800 ha        1 3R1      0.187000
     40 H15        -3.6190    2.4430    2.2230 hc        1 3R1      0.120000
     41 H16        -4.6680    3.0180    0.8350 hc        1 3R1      0.120000
     42 H17        -3.2250    4.0080    1.3600 hc        1 3R1      0.120000
     43 H18        -6.0610   -2.6180   -3.2540 h1        1 3R1      0.168000
     44 H19        -7.8420   -3.5750   -4.7490 ha        1 3R1      0.152000
     45 H20        -8.0180   -2.2650   -6.9020 ha        1 3R1      0.168000
     46 C1          4.5700    1.3220    0.3400 c3        1 3R1     -0.168000
     47 H1         -5.7070   -4.0490    0.4410 hc        1 3R1      0.098333
     48 H8          4.9410    2.3260    0.6620 hc        1 3R1      0.091667
     49 H9          5.1280    0.5400    0.9140 hc        1 3R1      0.091667
     50 H10         4.7850    1.1910   -0.7490 hc        1 3R1      0.091667
@<TRIPOS>BOND
     1    1    6 1   
     2    1    8 1   
     3    1   12 1   
     4    2    8 1   
     5    2    9 1   
     6    2   36 1   
     7    3    4 1   
     8    3   31 1   
     9    3   32 1   
    10    3   47 1   
    11    4   10 1   
    12    4   33 1   
    13    5   11 1   
    14    5   34 1   
    15    6    7 1   
    16    6   35 1   
    17    7    9 1   
    18    7   46 1   
    19    8   38 1   
    20   10   30 1   
    21   11   37 1   
    22   12   13 1   
    23   13   14 1   
    24   13   18 1   
    25   14   15 1   
    26   14   39 1   
    27   15   19 1   
    28   16   17 1   
    29   16   40 1   
    30   16   41 1   
    31   16   42 1   
    32   17   18 1   
    33   19   20 1   
    34   20   21 1   
    35   20   22 1   
    36   22   23 1   
    37   22   27 1   
    38   23   24 1   
    39   23   29 1   
    40   23   43 1   
    41   24   25 1   
    42   24   44 1   
    43   25   26 1   
    44   25   45 1   
    45   26   27 1   
    46   27   28 1   
    47   46   48 1   
    48   46   49 1   
    49   46   50 1   
@<TRIPOS>SUBSTRUCTURE
     1 3R1         1 TEMP              0 ****  ****    0 ROOT
