@<TRIPOS>MOLECULE
3R2
   60    62     1     0     0
SMALL
bcc


@<TRIPOS>ATOM
      1 O4          0.0500    0.2750    0.2970 o         1 3R2     -0.656500
      2 C4          1.2930    0.3320    0.3720 c         1 3R2      0.720700
      3 N3          1.9100    1.5730    0.1330 ns        1 3R2     -0.593500
      4 C2          3.3030    1.7620    0.1820 c         1 3R2      0.804500
      5 O2          3.7720    2.9010   -0.0510 o         1 3R2     -0.674500
      6 C5          2.1890   -0.7860    0.6880 cc        1 3R2     -0.293400
      7 C5M         1.5790   -2.1060    0.9410 c3        1 3R2     -0.022900
      8 C6          3.5390   -0.5790    0.7340 cd        1 3R2      0.075600
      9 N1          4.1170    0.6590    0.5200 n         1 3R2     -0.375000
     10 C1C         5.5850    0.8250    0.5160 c3        1 3R2      0.303500
     11 O4C         6.1850   -0.2180   -0.2430 os        1 3R2     -0.427600
     12 C2C         6.2080    0.8110    1.9250 c3        1 3R2     -0.129400
     13 C3C         6.9280   -0.5400    2.0360 c3        1 3R2      0.151100
     14 O3C         8.2160   -0.3110    2.5590 oh        1 3R2     -0.641800
     15 C4C         6.9920   -1.0820    0.5920 c3        1 3R2      0.055100
     16 C5C         6.4970   -2.5330    0.4340 c3        1 3R2      0.211400
     17 O5C         7.5520   -3.4220    0.4790 os        1 3R2     -0.566200
     18 PA          7.7080   -4.2500    1.9380 p5        1 3R2      1.621800
     19 O1A         7.9540   -3.1180    2.8650 o         1 3R2     -0.896500
     20 O2A         6.4990   -5.0880    2.0370 o         1 3R2     -0.896500
     21 O3A         9.0070   -5.1480    1.6800 os        1 3R2     -0.813800
     22 PB         10.3100   -6.1130    1.4260 p5        1 3R2      1.593800
     23 O1B        11.1840   -5.5610    0.3800 o         1 3R2     -0.866000
     24 O2B        10.7840   -6.5970    2.7370 o         1 3R2     -0.866000
     25 O3B         9.5380   -7.4210    0.7450 os        1 3R2     -0.583200
     26 C1'         8.8540   -8.2690    1.6110 c3        1 3R2      0.216100
     27 C2'         9.5320   -9.6490    1.6480 c3        1 3R2     -0.122400
     28 C3'         9.4400  -10.3140    0.2860 c3        1 3R2      0.103100
     29 O3'        10.0300  -11.6180    0.2900 oh        1 3R2     -0.649800
     30 C4'         7.9710  -10.5040   -0.1260 c3        1 3R2      0.154100
     31 O4'         7.8750  -11.1090   -1.4130 oh        1 3R2     -0.620800
     32 C5'         7.2790   -9.1370   -0.1780 c3        1 3R2     -0.057700
     33 C6'         5.8300   -9.2890   -0.5790 c3        1 3R2     -0.080100
     34 C7'         7.3970   -8.4430    1.1690 c3        1 3R2     -0.103400
     35 H1          1.3550    2.3640   -0.1040 hn        1 3R2      0.334500
     36 H2          0.9630   -2.4180    0.0610 hc        1 3R2      0.047367
     37 H3          0.9040   -2.0520    1.8310 hc        1 3R2      0.047367
     38 H4          2.3620   -2.8820    1.1280 hc        1 3R2      0.047367
     39 H5          4.2590   -1.4010    0.9450 h4        1 3R2      0.205000
     40 H6          5.7990    1.7870   -0.0390 h2        1 3R2      0.098700
     41 H7          5.4550    0.9330    2.7380 hc        1 3R2      0.064700
     42 H8          6.9470    1.6470    2.0030 hc        1 3R2      0.064700
     43 H9          6.3640   -1.2460    2.7050 h1        1 3R2      0.080700
     44 H10         8.5590   -1.1860    2.8320 ho        1 3R2      0.487000
     45 H11         8.0390   -1.0020    0.1890 h1        1 3R2      0.099700
     46 H12         5.7440   -2.7790    1.2370 h1        1 3R2      0.013200
     47 H13         5.9990   -2.6180   -0.5740 h1        1 3R2      0.013200
     48 H16         8.8730   -7.8390    2.6580 h1        1 3R2      0.065700
     49 H17        10.6060   -9.5300    1.9390 hc        1 3R2      0.039200
     50 H18         9.0290  -10.2860    2.4190 hc        1 3R2      0.039200
     51 H19         9.9650   -9.6780   -0.4830 h1        1 3R2      0.077700
     52 H20        10.9000  -11.5160    0.6900 ho        1 3R2      0.398000
     53 H21         7.4570  -11.1790    0.6160 h1        1 3R2      0.022700
     54 H22         8.5560  -11.7910   -1.4440 ho        1 3R2      0.399000
     55 H23         7.8140   -8.5060   -0.9440 hc        1 3R2      0.085700
     56 H24         5.3480   -8.2840   -0.6480 hc        1 3R2      0.024700
     57 H25         5.7550   -9.8000   -1.5690 hc        1 3R2      0.024700
     58 H26         5.2730   -9.8960    0.1760 hc        1 3R2      0.024700
     59 H27         6.9100   -7.4320    1.1100 hc        1 3R2      0.061200
     60 H28         6.8590   -9.0410    1.9490 hc        1 3R2      0.061200
@<TRIPOS>BOND
     1    1    2 2   
     2    2    3 1   
     3    2    6 1   
     4    3    4 1   
     5    3   35 1   
     6    4    5 2   
     7    4    9 1   
     8    6    7 1   
     9    6    8 2   
    10    7   36 1   
    11    7   37 1   
    12    7   38 1   
    13    8    9 1   
    14    8   39 1   
    15    9   10 1   
    16   10   11 1   
    17   10   12 1   
    18   10   40 1   
    19   11   15 1   
    20   12   13 1   
    21   12   41 1   
    22   12   42 1   
    23   13   14 1   
    24   13   15 1   
    25   13   43 1   
    26   14   44 1   
    27   15   16 1   
    28   15   45 1   
    29   16   17 1   
    30   16   46 1   
    31   16   47 1   
    32   17   18 1   
    33   18   19 1   
    34   18   20 1   
    35   18   21 1   
    36   21   22 1   
    37   22   23 1   
    38   22   24 1   
    39   22   25 1   
    40   25   26 1   
    41   26   27 1   
    42   26   34 1   
    43   26   48 1   
    44   27   28 1   
    45   27   49 1   
    46   27   50 1   
    47   28   29 1   
    48   28   30 1   
    49   28   51 1   
    50   29   52 1   
    51   30   31 1   
    52   30   32 1   
    53   30   53 1   
    54   31   54 1   
    55   32   33 1   
    56   32   34 1   
    57   32   55 1   
    58   33   56 1   
    59   33   57 1   
    60   33   58 1   
    61   34   59 1   
    62   34   60 1   
@<TRIPOS>SUBSTRUCTURE
     1 3R2         1 TEMP              0 ****  ****    0 ROOT
