@<TRIPOS>MOLECULE
3R2
   60    62     1     0     0
SMALL
bcc


@<TRIPOS>ATOM
      1 O4          0.0840    0.3290    0.3300 o         1 3R2     -0.656500
      2 C4          1.3280    0.3750    0.4030 c         1 3R2      0.720700
      3 N3          1.9540    1.6120    0.1670 n         1 3R2     -0.593500
      4 C2          3.3490    1.7900    0.2140 c         1 3R2      0.804500
      5 O2          3.8270    2.9260   -0.0160 o         1 3R2     -0.674500
      6 C5          2.2150   -0.7510    0.7120 cc        1 3R2     -0.293400
      7 C5M         1.5960   -2.0670    0.9610 c3        1 3R2     -0.022900
      8 C6          3.5680   -0.5550    0.7550 cd        1 3R2      0.075600
      9 N1          4.1550    0.6780    0.5450 n         1 3R2     -0.375000
     10 C1C         5.6250    0.8320    0.5380 c3        1 3R2      0.303500
     11 O4C         6.2130   -0.2130   -0.2280 os        1 3R2     -0.427600
     12 C2C         6.2520    0.8070    1.9450 c3        1 3R2     -0.129400
     13 C3C         6.9610   -0.5490    2.0480 c3        1 3R2      0.151100
     14 O3C         8.2520   -0.3320    2.5670 oh        1 3R2     -0.641800
     15 C4C         7.0160   -1.0870    0.6020 c3        1 3R2      0.055100
     16 C5C         6.5080   -2.5330    0.4400 c3        1 3R2      0.211400
     17 O5C         7.5560   -3.4310    0.4760 os        1 3R2     -0.566200
     18 PA          7.7120   -4.2650    1.9310 p5        1 3R2      1.621800
     19 O1A         7.9710   -3.1390    2.8620 o         1 3R2     -0.897000
     20 O2A         6.4970   -5.0950    2.0330 o         1 3R2     -0.897000
     21 O3A         9.0040   -5.1720    1.6650 os        1 3R2     -0.813800
     22 PB         10.2980   -6.1460    1.4010 p5        1 3R2      1.593800
     23 O1B        11.1700   -5.5970    0.3520 o         1 3R2     -0.866000
     24 O2B        10.7760   -6.6360    2.7090 o         1 3R2     -0.866000
     25 O3B         9.5130   -7.4460    0.7210 os        1 3R2     -0.583200
     26 C1'         8.8280   -8.2920    1.5890 c3        1 3R2      0.216100
     27 C2'         9.4960   -9.6760    1.6190 c3        1 3R2     -0.122400
     28 C3'         9.3920  -10.3370    0.2560 c3        1 3R2      0.103100
     29 O3'         9.9730  -11.6450    0.2540 oh        1 3R2     -0.649800
     30 C4'         7.9200  -10.5160   -0.1490 c3        1 3R2      0.154100
     31 O4'         7.8120  -11.1170   -1.4370 oh        1 3R2     -0.620800
     32 C5'         7.2380   -9.1440   -0.1950 c3        1 3R2     -0.057700
     33 C6'         5.7850   -9.2840   -0.5880 c3        1 3R2     -0.080100
     34 C7'         7.3680   -8.4540    1.1540 c3        1 3R2     -0.103400
     35 H1          1.4050    2.4090   -0.0640 hn        1 3R2      0.334500
     36 H2          0.9680   -2.3670    0.0850 hc        1 3R2      0.047367
     37 H3          2.3720   -2.8520    1.1350 hc        1 3R2      0.047367
     38 H4          0.9290   -2.0140    1.8580 hc        1 3R2      0.047367
     39 H5          4.2810   -1.3840    0.9610 h4        1 3R2      0.205000
     40 H6          5.8450    1.7950   -0.0130 h2        1 3R2      0.098700
     41 H7          5.5020    0.9310    2.7610 hc        1 3R2      0.064700
     42 H8          6.9970    1.6370    2.0250 hc        1 3R2      0.064700
     43 H9          6.3940   -1.2540    2.7160 h1        1 3R2      0.080700
     44 H10         8.5900   -1.2120    2.8350 ho        1 3R2      0.487000
     45 H11         8.0620   -1.0140    0.1950 h1        1 3R2      0.099700
     46 H12         5.7570   -2.7760    1.2450 h1        1 3R2      0.013200
     47 H13         6.0050   -2.6090   -0.5670 h1        1 3R2      0.013200
     48 H16         8.8550   -7.8640    2.6360 h1        1 3R2      0.065700
     49 H17        10.5720   -9.5650    1.9040 hc        1 3R2      0.039200
     50 H18         8.9930  -10.3110    2.3900 hc        1 3R2      0.039200
     51 H19         9.9180   -9.7040   -0.5140 h1        1 3R2      0.077700
     52 H20        10.8450  -11.5510    0.6500 ho        1 3R2      0.398000
     53 H21         7.4050  -11.1890    0.5940 h1        1 3R2      0.022700
     54 H22         8.4890  -11.8040   -1.4730 ho        1 3R2      0.399000
     55 H23         7.7730   -8.5150   -0.9610 hc        1 3R2      0.085700
     56 H24         5.2280   -9.8900    0.1680 hc        1 3R2      0.024700
     57 H25         5.3100   -8.2750   -0.6510 hc        1 3R2      0.024700
     58 H26         5.7010   -9.7910   -1.5790 hc        1 3R2      0.024700
     59 H27         6.8880   -7.4390    1.1000 hc        1 3R2      0.061200
     60 H28         6.8290   -9.0490    1.9360 hc        1 3R2      0.061200
@<TRIPOS>BOND
     1    1    2 2   
     2    2    3 1   
     3    2    6 1   
     4    3    4 1   
     5    3   35 1   
     6    4    5 2   
     7    4    9 1   
     8    6    7 1   
     9    6    8 2   
    10    7   36 1   
    11    7   37 1   
    12    7   38 1   
    13    8    9 1   
    14    8   39 1   
    15    9   10 1   
    16   10   11 1   
    17   10   12 1   
    18   10   40 1   
    19   11   15 1   
    20   12   13 1   
    21   12   41 1   
    22   12   42 1   
    23   13   14 1   
    24   13   15 1   
    25   13   43 1   
    26   14   44 1   
    27   15   16 1   
    28   15   45 1   
    29   16   17 1   
    30   16   46 1   
    31   16   47 1   
    32   17   18 1   
    33   18   19 1   
    34   18   20 1   
    35   18   21 1   
    36   21   22 1   
    37   22   23 1   
    38   22   24 1   
    39   22   25 1   
    40   25   26 1   
    41   26   27 1   
    42   26   34 1   
    43   26   48 1   
    44   27   28 1   
    45   27   49 1   
    46   27   50 1   
    47   28   29 1   
    48   28   30 1   
    49   28   51 1   
    50   29   52 1   
    51   30   31 1   
    52   30   32 1   
    53   30   53 1   
    54   31   54 1   
    55   32   33 1   
    56   32   34 1   
    57   32   55 1   
    58   33   56 1   
    59   33   57 1   
    60   33   58 1   
    61   34   59 1   
    62   34   60 1   
@<TRIPOS>SUBSTRUCTURE
     1 3R2         1 TEMP              0 ****  ****    0 ROOT
