@<TRIPOS>MOLECULE
3R5
   31    32     1     0     0
SMALL
bcc


@<TRIPOS>ATOM
      1 C1          0.2180   -0.9180    0.2410 c         1 3R5      0.583500
      2 C2          1.6320   -0.5170    0.1500 ca        1 3R5     -0.190600
      3 C3          2.3410   -0.1170    1.3080 ca        1 3R5      0.136100
      4 C4          3.6830    0.2630    1.2240 ca        1 3R5     -0.187000
      5 C5          4.3350    0.2510   -0.0100 ca        1 3R5     -0.140000
      6 C6          3.6390   -0.1420   -1.1570 ca        1 3R5      0.079100
      7 C7          2.2880   -0.5270   -1.0790 ca        1 3R5     -0.065000
      8 O8          4.1820   -0.1930   -2.4280 os        1 3R5     -0.321900
      9 C9          5.5450    0.1950   -2.5420 c3        1 3R5      0.112700
     10 O10         1.6100   -0.1390    2.4810 os        1 3R5     -0.333900
     11 C11         2.3140    0.2650    3.6650 c3        1 3R5      0.182700
     12 C12         1.3660    0.1730    4.8100 ca        1 3R5     -0.213600
     13 C13         1.6450    0.8970    5.9890 ca        1 3R5      0.400200
     14 N14         0.8660    0.8580    7.0850 nb        1 3R5     -0.661000
     15 C15        -0.2380    0.0860    7.0350 ca        1 3R5      0.397200
     16 C16        -0.6050   -0.6670    5.9060 ca        1 3R5     -0.244300
     17 C17         0.2140   -0.6210    4.7770 ca        1 3R5     -0.066000
     18 O18        -0.4470   -1.2810   -0.7330 o         1 3R5     -0.531100
     19 H1         -0.2220   -0.8730    1.2640 h4        1 3R5      0.016200
     20 H4          4.2440    0.5750    2.1160 ha        1 3R5      0.142000
     21 H5          5.3910    0.5530   -0.0620 ha        1 3R5      0.143000
     22 H7          1.7480   -0.8360   -1.9890 ha        1 3R5      0.175000
     23 H9          5.7570    0.0790   -3.6350 h1        1 3R5      0.045367
     24 H9A         5.6820    1.2580   -2.2250 h1        1 3R5      0.045367
     25 H9B         6.2010   -0.4800   -1.9400 h1        1 3R5      0.045367
     26 H11         3.1870   -0.4250    3.8280 h1        1 3R5      0.053200
     27 H11A        2.6810    1.3190    3.5370 h1        1 3R5      0.053200
     28 H13         2.5390    1.5420    6.0580 h4        1 3R5      0.021100
     29 H15        -0.8570    0.0770    7.9500 h4        1 3R5      0.025100
     30 H16        -1.5180   -1.2780    5.9170 ha        1 3R5      0.148000
     31 H17        -0.0380   -1.1920    3.8700 ha        1 3R5      0.153000
@<TRIPOS>BOND
     1    1    2 1   
     2    1   18 2   
     3    1   19 1   
     4    2    3 ar  
     5    2    7 ar  
     6    3    4 ar  
     7    3   10 1   
     8    4    5 ar  
     9    4   20 1   
    10    5    6 ar  
    11    5   21 1   
    12    6    7 ar  
    13    6    8 1   
    14    7   22 1   
    15    8    9 1   
    16    9   23 1   
    17    9   24 1   
    18    9   25 1   
    19   10   11 1   
    20   11   12 1   
    21   11   26 1   
    22   11   27 1   
    23   12   13 ar  
    24   12   17 ar  
    25   13   14 ar  
    26   13   28 1   
    27   14   15 ar  
    28   15   16 ar  
    29   15   29 1   
    30   16   17 ar  
    31   16   30 1   
    32   17   31 1   
@<TRIPOS>SUBSTRUCTURE
     1 3R5         1 TEMP              0 ****  ****    0 ROOT
