@<TRIPOS>MOLECULE
3R5
   31    32     1     0     0
SMALL
bcc


@<TRIPOS>ATOM
      1 C1         -0.8960   -2.2100   -0.8250 c         1 3R5      0.583500
      2 C2         -1.5200   -0.9270   -0.4590 ca        1 3R5     -0.190600
      3 C3         -0.7180    0.1860   -0.1070 ca        1 3R5      0.136100
      4 C4         -1.3080    1.4050    0.2400 ca        1 3R5     -0.187000
      5 C5         -2.6980    1.5300    0.2430 ca        1 3R5     -0.140000
      6 C6         -3.4930    0.4350   -0.1020 ca        1 3R5      0.079100
      7 C7         -2.9060   -0.7940   -0.4530 ca        1 3R5     -0.065000
      8 O8         -4.8760    0.4450   -0.1330 os        1 3R5     -0.321900
      9 C9         -5.5010    1.6710    0.2230 c3        1 3R5      0.112700
     10 O10         0.6450   -0.0380   -0.1400 os        1 3R5     -0.333900
     11 C11         1.4730    1.0820    0.2090 c3        1 3R5      0.182700
     12 C12         2.8930    0.6460    0.1080 ca        1 3R5     -0.213600
     13 C13         3.8860    1.3880    0.7850 ca        1 3R5      0.400200
     14 N14         5.1960    1.0910    0.7340 nb        1 3R5     -0.661000
     15 C15         5.5630    0.0220   -0.0010 ca        1 3R5      0.397200
     16 C16         4.6510   -0.7820   -0.7060 ca        1 3R5     -0.244300
     17 C17         3.2940   -0.4610   -0.6480 ca        1 3R5     -0.066000
     18 O18        -1.5440   -3.2100   -1.1450 o         1 3R5     -0.531100
     19 H1          0.2170   -2.2210   -0.7950 h4        1 3R5      0.016200
     20 H4         -0.6960    2.2760    0.5140 ha        1 3R5      0.142000
     21 H5         -3.1480    2.4950    0.5190 ha        1 3R5      0.143000
     22 H7         -3.5420   -1.6540   -0.7240 ha        1 3R5      0.175000
     23 H9         -5.2470    1.9550    1.2730 h1        1 3R5      0.045367
     24 H9A        -5.2080    2.4850   -0.4850 h1        1 3R5      0.045367
     25 H9B        -6.5930    1.4420    0.1300 h1        1 3R5      0.045367
     26 H11         1.2740    1.9250   -0.5090 h1        1 3R5      0.053200
     27 H11A        1.2300    1.4100    1.2560 h1        1 3R5      0.053200
     28 H13         3.6140    2.2650    1.3990 h4        1 3R5      0.021100
     29 H15         6.6460   -0.1960   -0.0200 h4        1 3R5      0.025100
     30 H16         5.0020   -1.6450   -1.2870 ha        1 3R5      0.148000
     31 H17         2.5450   -1.0670   -1.1810 ha        1 3R5      0.153000
@<TRIPOS>BOND
     1    1    2 1   
     2    1   18 2   
     3    1   19 1   
     4    2    3 ar  
     5    2    7 ar  
     6    3    4 ar  
     7    3   10 1   
     8    4    5 ar  
     9    4   20 1   
    10    5    6 ar  
    11    5   21 1   
    12    6    7 ar  
    13    6    8 1   
    14    7   22 1   
    15    8    9 1   
    16    9   23 1   
    17    9   24 1   
    18    9   25 1   
    19   10   11 1   
    20   11   12 1   
    21   11   26 1   
    22   11   27 1   
    23   12   13 ar  
    24   12   17 ar  
    25   13   14 ar  
    26   13   28 1   
    27   14   15 ar  
    28   15   16 ar  
    29   15   29 1   
    30   16   17 ar  
    31   16   30 1   
    32   17   31 1   
@<TRIPOS>SUBSTRUCTURE
     1 3R5         1 TEMP              0 ****  ****    0 ROOT
