@<TRIPOS>MOLECULE
3R5
   31    32     1     0     0
SMALL
bcc


@<TRIPOS>ATOM
      1 C1          0.1910   -0.8000    0.2180 c         1 3R5      0.583500
      2 C2          1.6180   -0.4450    0.1380 ca        1 3R5     -0.190600
      3 C3          2.3390   -0.0990    1.3070 ca        1 3R5      0.136100
      4 C4          3.6930    0.2380    1.2320 ca        1 3R5     -0.187000
      5 C5          4.3450    0.2360   -0.0020 ca        1 3R5     -0.140000
      6 C6          3.6380   -0.1030   -1.1580 ca        1 3R5      0.079100
      7 C7          2.2750   -0.4440   -1.0910 ca        1 3R5     -0.065000
      8 O8          4.1800   -0.1390   -2.4300 os        1 3R5     -0.321900
      9 C9          5.5560    0.2070   -2.5340 c3        1 3R5      0.112700
     10 O10         1.6060   -0.1260    2.4780 os        1 3R5     -0.333900
     11 C11         2.3230    0.2170    3.6730 c3        1 3R5      0.182700
     12 C12         1.3730    0.1230    4.8150 ca        1 3R5     -0.213600
     13 C13         1.6790    0.7980    6.0180 ca        1 3R5      0.400200
     14 N14         0.9000    0.7530    7.1120 nb        1 3R5     -0.661000
     15 C15        -0.2330    0.0260    7.0390 ca        1 3R5      0.397200
     16 C16        -0.6290   -0.6760    5.8870 ca        1 3R5     -0.244300
     17 C17         0.1920   -0.6250    4.7590 ca        1 3R5     -0.066000
     18 O18        -0.4850   -1.1150   -0.7650 o         1 3R5     -0.531100
     19 H1         -0.2480   -0.7670    1.2420 h4        1 3R5      0.016200
     20 H4          4.2630    0.5070    2.1320 ha        1 3R5      0.142000
     21 H5          5.4100    0.5040   -0.0460 ha        1 3R5      0.143000
     22 H7          1.7250   -0.7110   -2.0080 ha        1 3R5      0.175000
     23 H9          5.7640    0.1120   -3.6300 h1        1 3R5      0.045367
     24 H9A         5.7270    1.2550   -2.1900 h1        1 3R5      0.045367
     25 H9B         6.1870   -0.5060   -1.9500 h1        1 3R5      0.045367
     26 H11         3.1720   -0.5070    3.8150 h1        1 3R5      0.053200
     27 H11A        2.7270    1.2610    3.5760 h1        1 3R5      0.053200
     28 H13         2.5980    1.4060    6.1050 h4        1 3R5      0.021100
     29 H15        -0.8520    0.0110    7.9540 h4        1 3R5      0.025100
     30 H16        -1.5640   -1.2510    5.8790 ha        1 3R5      0.148000
     31 H17        -0.0820   -1.1560    3.8340 ha        1 3R5      0.153000
@<TRIPOS>BOND
     1    1    2 1   
     2    1   18 2   
     3    1   19 1   
     4    2    3 ar  
     5    2    7 ar  
     6    3    4 ar  
     7    3   10 1   
     8    4    5 ar  
     9    4   20 1   
    10    5    6 ar  
    11    5   21 1   
    12    6    7 ar  
    13    6    8 1   
    14    7   22 1   
    15    8    9 1   
    16    9   23 1   
    17    9   24 1   
    18    9   25 1   
    19   10   11 1   
    20   11   12 1   
    21   11   26 1   
    22   11   27 1   
    23   12   13 ar  
    24   12   17 ar  
    25   13   14 ar  
    26   13   28 1   
    27   14   15 ar  
    28   15   16 ar  
    29   15   29 1   
    30   16   17 ar  
    31   16   30 1   
    32   17   31 1   
@<TRIPOS>SUBSTRUCTURE
     1 3R5         1 TEMP              0 ****  ****    0 ROOT
