@<TRIPOS>MOLECULE
3R5
   31    27     1     0     0
SMALL
bcc


@<TRIPOS>ATOM
      1 C1         -2.1830    0.2470   -1.8820 c1        1 3R5      0.231000
      2 C2         -0.6120    0.2740   -1.9020 c1        1 3R5     -0.169000
      3 C3          0.0910    0.3860   -0.7020 c2        1 3R5      0.092000
      4 C4          1.4790    0.4450   -0.7040 c1        1 3R5     -0.189000
      5 C5          2.1810    0.3920   -1.9120 c1        1 3R5     -0.091000
      6 C6          1.4840    0.2800   -3.1160 c1        1 3R5      0.035000
      7 C7          0.0710    0.2210   -3.1040 c2        1 3R5     -0.118000
      8 O8          2.1790    0.3610   -4.3500 o         1 3R5     -0.210000
      9 C9          2.5700   -0.9060   -4.8770 c3        1 3R5     -0.078000
     10 O10        -0.6280    0.5470    0.5310 os        1 3R5     -0.216000
     11 C11        -0.4610   -0.5220    1.4290 c3        1 3R5      0.025000
     12 C12        -0.8020   -0.0510    2.8570 c2        1 3R5     -0.143000
     13 C13        -0.6430    1.2800    3.2020 c2        1 3R5     -0.043000
     14 N14        -1.0260    1.7170    4.4530 n1        1 3R5     -0.136000
     15 C15        -1.5630    0.8360    5.3500 c1        1 3R5     -0.123000
     16 C16        -1.7220   -0.5000    5.0010 c1        1 3R5     -0.123000
     17 C17        -1.3410   -0.9360    3.7590 c1        1 3R5     -0.085000
     18 O18        -2.8160    0.1490   -2.9390 o         1 3R5     -0.298000
     19 H1         -2.6440    0.3300   -1.0600 ha        1 3R5      0.114000
     20 H4          1.9880    0.5280    0.1850 ha        1 3R5      0.143000
     21 H5          3.1420    0.4330   -1.9130 ha        1 3R5      0.154000
     22 H7         -0.4180    0.1420   -3.9360 ha        1 3R5      0.164000
     23 H9          3.0190   -1.4020   -4.2060 h1        1 3R5      0.086333
     24 H9A         3.1530   -0.7760   -5.6210 h1        1 3R5      0.086333
     25 H9B         1.7400   -1.4180   -5.1810 h1        1 3R5      0.086333
     26 H11        -1.0570   -1.2570    1.1750 h1        1 3R5      0.092000
     27 H11A        0.5150   -0.8460    1.3990 h1        1 3R5      0.092000
     28 H13        -0.2710    1.8900    2.5790 h4        1 3R5      0.173000
     29 H15        -1.8460    1.1580    6.2750 ha        1 3R5      0.154000
     30 H16        -2.1300   -1.1680    5.6820 ha        1 3R5      0.154000
     31 H17        -1.4480   -1.8340    3.5270 ha        1 3R5      0.138000
@<TRIPOS>BOND
     1    1   18 1   
     2    1   19 1   
     3    2    3 1   
     4    2    7 1   
     5    3    4 1   
     6    3   10 1   
     7    4   20 1   
     8    5    6 1   
     9    5   21 1   
    10    6    7 1   
    11    7   22 1   
    12    8    9 1   
    13    9   23 1   
    14    9   24 1   
    15    9   25 1   
    16   10   11 1   
    17   11   12 1   
    18   11   26 1   
    19   11   27 1   
    20   12   13 1   
    21   12   17 1   
    22   13   14 1   
    23   13   28 1   
    24   15   16 1   
    25   15   29 1   
    26   16   30 1   
    27   17   31 1   
@<TRIPOS>SUBSTRUCTURE
     1 3R5         1 TEMP              0 ****  ****    0 ROOT
