@<TRIPOS>MOLECULE
3R7
   33    34     1     0     0
SMALL
bcc


@<TRIPOS>ATOM
      1 C10        -0.2230   -0.1260    0.2170 ca        1 3R7     -0.170000
      2 C11         1.1570    0.0950    0.0130 ca        1 3R7      0.164600
      3 O01         4.0410    0.7460   -0.0740 o         1 3R7     -0.830300
      4 C02         3.5240    0.4170    1.0400 c         1 3R7      0.912200
      5 O03         4.2030    0.2940    2.0950 o         1 3R7     -0.830300
      6 C04         2.0240    0.1690    1.1330 ca        1 3R7     -0.146600
      7 C05         1.4810    0.0060    2.4100 ca        1 3R7     -0.096000
      8 C06         0.1220   -0.2090    2.6070 ca        1 3R7     -0.151000
      9 C07        -0.7440   -0.2750    1.5080 ca        1 3R7     -0.069800
     10 C08        -2.1750   -0.4900    1.6620 ce        1 3R7     -0.081200
     11 C09        -2.7860   -0.9020    2.7750 c2        1 3R7     -0.250000
     12 N12         1.6610    0.2060   -1.2960 nu        1 3R7     -0.767500
     13 S13         1.0420    1.0460   -2.5180 sy        1 3R7      1.492200
     14 O14         1.7600    0.7410   -3.7030 o         1 3R7     -0.671800
     15 O15        -0.3620    0.8680   -2.6480 o         1 3R7     -0.671800
     16 C16         1.3170    2.6760   -2.1280 ca        1 3R7     -0.366500
     17 C17         0.3440    3.6250   -2.4740 ca        1 3R7     -0.017500
     18 C18         0.5410    4.9780   -2.2220 ca        1 3R7     -0.167500
     19 C19         1.7220    5.4050   -1.6100 ca        1 3R7     -0.085000
     20 C20         2.6920    4.4740   -1.2510 ca        1 3R7     -0.167500
     21 C21         2.4900    3.1150   -1.5060 ca        1 3R7     -0.017500
     22 H1         -0.9090   -0.1770   -0.6460 ha        1 3R7      0.152000
     23 H3          2.1740    0.0560    3.2680 ha        1 3R7      0.160000
     24 H4         -0.2710   -0.3220    3.6270 ha        1 3R7      0.116000
     25 H5         -2.7690   -0.2900    0.7510 ha        1 3R7      0.118000
     26 H6         -2.2540   -1.1290    3.7070 ha        1 3R7      0.103000
     27 H7         -3.8730   -1.0430    2.8170 ha        1 3R7      0.103000
     28 H8          2.6500   -0.0200   -1.3160 hn        1 3R7      0.503800
     29 H9         -0.5950    3.2830   -2.9430 ha        1 3R7      0.177500
     30 H10        -0.2320    5.7080   -2.4990 ha        1 3R7      0.130500
     31 H11         1.8790    6.4750   -1.4080 ha        1 3R7      0.118000
     32 H12         3.6190    4.7990   -0.7560 ha        1 3R7      0.130500
     33 H13         3.2700    2.3890   -1.1820 ha        1 3R7      0.177500
@<TRIPOS>BOND
     1    1    2 ar  
     2    1    9 ar  
     3    1   22 1   
     4    2    6 ar  
     5    2   12 1   
     6    3    4 1   
     7    4    5 1   
     8    4    6 1   
     9    6    7 ar  
    10    7    8 ar  
    11    7   23 1   
    12    8    9 ar  
    13    8   24 1   
    14    9   10 1   
    15   10   11 2   
    16   10   25 1   
    17   11   26 1   
    18   11   27 1   
    19   12   13 1   
    20   12   28 1   
    21   13   14 2   
    22   13   15 2   
    23   13   16 1   
    24   16   17 ar  
    25   16   21 ar  
    26   17   18 ar  
    27   17   29 1   
    28   18   19 ar  
    29   18   30 1   
    30   19   20 ar  
    31   19   31 1   
    32   20   21 ar  
    33   20   32 1   
    34   21   33 1   
@<TRIPOS>SUBSTRUCTURE
     1 3R7         1 TEMP              0 ****  ****    0 ROOT
