@<TRIPOS>MOLECULE
3R9
   23    24     1     0     0
SMALL
bcc


@<TRIPOS>ATOM
      1 OXT         1.1760   -1.1430    0.7470 o         1 3R9     -0.819800
      2 N           1.0870    0.7400   -2.1270 n3        1 3R9     -0.685600
      3 C           1.5440   -0.0740    0.2020 c         1 3R9      0.939600
      4 O           1.6600    1.0490    0.7610 o         1 3R9     -0.819800
      5 CA          1.9600   -0.1270   -1.3180 c3        1 3R9      0.026500
      6 CB          1.9370   -1.5410   -1.8750 c3        1 3R9      0.047700
      7 SAH         1.6320   -1.3890   -3.6360 ss        1 3R9     -0.424200
      8 CAM         1.0700    0.3270   -3.5300 c3        1 3R9      0.276600
      9 CAF         1.8920    1.2400   -4.4390 c3        1 3R9      0.005700
     10 SAG         2.1520    2.7560   -3.5520 ss        1 3R9     -0.444200
     11 CAJ         1.3800    2.1530   -1.9910 c3        1 3R9      0.317600
     12 CAD         0.1680    3.0010   -1.6470 c3        1 3R9      0.038700
     13 SAC        -1.3540    2.6480   -2.4860 sh        1 3R9     -0.439900
     14 H3          3.0280    0.2510   -1.3510 h1        1 3R9      0.033700
     15 H4          2.9120   -2.0500   -1.7160 h1        1 3R9      0.085200
     16 H5          1.1290   -2.1390   -1.3890 h1        1 3R9      0.085200
     17 H6         -0.0040    0.3450   -3.8660 h2        1 3R9      0.090700
     18 H7          1.3450    1.4500   -5.3860 h1        1 3R9      0.071200
     19 H8          2.8760    0.7790   -4.6880 h1        1 3R9      0.071200
     20 H9          2.1370    2.3210   -1.1660 h2        1 3R9      0.129700
     21 H10         0.3860    4.0680   -1.8960 h1        1 3R9      0.088700
     22 H11         0.0000    2.9040   -0.5420 h1        1 3R9      0.088700
     23 H12        -1.5860    1.4210   -2.0370 hs        1 3R9      0.237800
@<TRIPOS>BOND
     1    1    3 1   
     2    2    5 1   
     3    2    8 1   
     4    2   11 1   
     5    3    4 1   
     6    3    5 1   
     7    5    6 1   
     8    5   14 1   
     9    6    7 1   
    10    6   15 1   
    11    6   16 1   
    12    7    8 1   
    13    8    9 1   
    14    8   17 1   
    15    9   10 1   
    16    9   18 1   
    17    9   19 1   
    18   10   11 1   
    19   11   12 1   
    20   11   20 1   
    21   12   13 1   
    22   12   21 1   
    23   12   22 1   
    24   13   23 1   
@<TRIPOS>SUBSTRUCTURE
     1 3R9         1 TEMP              0 ****  ****    0 ROOT
