@<TRIPOS>MOLECULE
3R9
   23    24     1     0     0
SMALL
bcc


@<TRIPOS>ATOM
      1 OXT         1.5480    1.2420    0.7540 o         1 3R9     -0.819800
      2 N           1.1060    0.7120   -2.1250 n3        1 3R9     -0.685600
      3 C           1.6630    0.0960    0.2420 c         1 3R9      0.939600
      4 O           1.4970   -1.0010    0.8290 o         1 3R9     -0.819800
      5 CA          2.1130    0.0640   -1.2680 c3        1 3R9      0.026500
      6 CB          2.3740   -1.3500   -1.7640 c3        1 3R9      0.047700
      7 SAH         2.0830   -1.3300   -3.5330 ss        1 3R9     -0.424200
      8 CAM         1.1980    0.2480   -3.5090 c3        1 3R9      0.276600
      9 CAF         1.8480    1.2650   -4.4460 c3        1 3R9      0.005700
     10 SAG         1.7920    2.8370   -3.6230 ss        1 3R9     -0.444200
     11 CAJ         1.1190    2.1590   -2.0470 c3        1 3R9      0.317600
     12 CAD        -0.2410    2.7700   -1.7560 c3        1 3R9      0.038700
     13 SAC        -1.6480    2.0960   -2.5980 sh        1 3R9     -0.439900
     14 H3          3.0880    0.6390   -1.3040 h1        1 3R9      0.033700
     15 H4          3.4260   -1.6530   -1.5700 h1        1 3R9      0.085200
     16 H5          1.6860   -2.0720   -1.2620 h1        1 3R9      0.085200
     17 H6          0.1480    0.0440   -3.8590 h2        1 3R9      0.090700
     18 H7          2.9080    0.9940   -4.6630 h1        1 3R9      0.071200
     19 H8          1.2900    1.3270   -5.4090 h1        1 3R9      0.071200
     20 H9          1.8120    2.5040   -1.2200 h2        1 3R9      0.129700
     21 H10        -0.2280    3.8480   -2.0490 h1        1 3R9      0.088700
     22 H11        -0.4090    2.6870   -0.6500 h1        1 3R9      0.088700
     23 H12        -1.6490    0.8670   -2.0980 hs        1 3R9      0.237800
@<TRIPOS>BOND
     1    1    3 1   
     2    2    5 1   
     3    2    8 1   
     4    2   11 1   
     5    3    4 1   
     6    3    5 1   
     7    5    6 1   
     8    5   14 1   
     9    6    7 1   
    10    6   15 1   
    11    6   16 1   
    12    7    8 1   
    13    8    9 1   
    14    8   17 1   
    15    9   10 1   
    16    9   18 1   
    17    9   19 1   
    18   10   11 1   
    19   11   12 1   
    20   11   20 1   
    21   12   13 1   
    22   12   21 1   
    23   12   22 1   
    24   13   23 1   
@<TRIPOS>SUBSTRUCTURE
     1 3R9         1 TEMP              0 ****  ****    0 ROOT
