@<TRIPOS>MOLECULE
3RA
   36    33     1     0     0
SMALL
bcc


@<TRIPOS>ATOM
      1 CAA         2.8050   -0.8380    4.6210 c1        1 3RA     -0.159000
      2 CAB         2.6530   -0.7340    6.0070 c1        1 3RA     -0.118750
      3 CAC         1.3900   -0.5430    6.5580 c1        1 3RA     -0.118750
      4 CAD         0.2670   -0.4550    5.7240 c1        1 3RA     -0.118750
      5 CAE         0.4150   -0.5570    4.3580 c1        1 3RA     -0.118750
      6 CAF         1.7040   -0.7520    3.7990 c1        1 3RA      0.046000
      7 NAG         1.8770   -0.7840    2.3290 n3        1 3RA     -0.218000
      8 CAH         0.7670   -1.1790    1.4690 c2        1 3RA      0.175000
      9 NAI         0.9120   -1.1760    0.1120 n2        1 3RA     -0.150000
     10 CAJ        -0.2940   -0.8520   -0.4850 c1        1 3RA     -0.064000
     11 CAK        -1.3620   -0.6000    0.5910 c2        1 3RA      0.247000
     12 NAL        -0.5730   -0.8350    1.8160 n2        1 3RA     -0.286000
     13 OAM        -2.6270   -0.7670    0.4580 o         1 3RA     -0.239000
     14 CAN        -0.6870   -1.4890   -1.8330 c2        1 3RA     -0.075000
     15 CAO        -0.7010   -0.4160   -2.9110 c2        1 3RA     -0.085000
     16 CAP        -1.7040    0.5540   -2.9130 c2        1 3RA     -0.101000
     17 CAQ        -1.7610    1.5150   -3.9530 c1        1 3RA      0.008000
     18 CAR        -0.8250    1.4910   -4.9620 c1        1 3RA      0.017000
     19 CAS         0.1910    0.5060   -4.9590 c1        1 3RA     -0.114000
     20 CAT         0.2450   -0.4410   -3.9310 c1        1 3RA     -0.109000
     21 OAU        -2.6380    2.6420   -4.1860 os        1 3RA     -0.216000
     22 CAV        -2.1690    3.3300   -5.3350 c3        1 3RA      0.099000
     23 OAW        -1.0520    2.6440   -5.8200 os        1 3RA     -0.216000
     24 HAA         3.6950   -0.9720    4.2350 ha        1 3RA      0.134000
     25 HAB         3.4320   -0.7950    6.5870 ha        1 3RA      0.145250
     26 HAC         1.2890   -0.4720    7.4970 ha        1 3RA      0.145250
     27 HAD        -0.6470   -0.3170    6.1240 ha        1 3RA      0.145250
     28 HAE        -0.3660   -0.4970    3.7760 ha        1 3RA      0.145250
     29 HNAG        2.7190   -0.5730    1.9480 hn        1 3RA      0.259000
     30 HAN        -1.5590   -1.8770   -1.7590 ha        1 3RA      0.127000
     31 HANA       -0.0280   -2.1970   -2.0730 ha        1 3RA      0.127000
     32 HAP        -2.3530    0.5990   -2.1530 ha        1 3RA      0.160000
     33 HAS         0.8580    0.4880   -5.6780 ha        1 3RA      0.157000
     34 HAT         0.9030   -1.1290   -3.9510 ha        1 3RA      0.146000
     35 HAV        -2.8460    3.3300   -5.9980 h2        1 3RA      0.113000
     36 HAVA       -1.9290    4.1510   -5.1070 h2        1 3RA      0.113000
@<TRIPOS>BOND
     1    1    6 1   
     2    1   24 1   
     3    2    3 1   
     4    2   25 1   
     5    3   26 1   
     6    4    5 1   
     7    4   27 1   
     8    5   28 1   
     9    6    7 1   
    10    7    8 1   
    11    7   29 1   
    12    8    9 1   
    13    8   12 1   
    14    9   10 1   
    15   10   11 1   
    16   11   12 1   
    17   11   13 1   
    18   14   15 1   
    19   14   30 1   
    20   14   31 1   
    21   15   16 1   
    22   15   20 1   
    23   16   17 1   
    24   16   32 1   
    25   17   21 1   
    26   18   19 1   
    27   18   23 1   
    28   19   33 1   
    29   20   34 1   
    30   21   22 1   
    31   22   23 1   
    32   22   35 1   
    33   22   36 1   
@<TRIPOS>SUBSTRUCTURE
     1 3RA         1 TEMP              0 ****  ****    0 ROOT
