@<TRIPOS>MOLECULE
3RA
   37    40     1     0     0
SMALL
bcc


@<TRIPOS>ATOM
      1 CAA        -0.0850   -0.9000    0.0710 ca        1 3RA     -0.089500
      2 CAB         1.1370   -0.7470   -0.5800 ca        1 3RA     -0.105000
      3 CAC         2.0920    0.1470   -0.0940 ca        1 3RA     -0.063000
      4 CAD         1.8310    0.9010    1.0530 ca        1 3RA     -0.105000
      5 CAE         0.6170    0.7680    1.7240 ca        1 3RA     -0.089500
      6 CAF        -0.3330   -0.1440    1.2300 ca        1 3RA     -0.067400
      7 NAG        -1.6050   -0.3190    1.9480 n4        1 3RA     -0.561400
      8 CAH        -2.6550    0.5570    1.3940 cc        1 3RA      0.660200
      9 NAI        -3.4410    0.0490    0.2410 nc        1 3RA     -0.642000
     10 CAJ        -4.2760    1.0210   -0.0330 cd        1 3RA      0.455300
     11 CAK        -4.0350    2.2190    0.9580 c         1 3RA      0.528200
     12 NAL        -2.9380    1.7660    1.8430 nd        1 3RA     -0.553100
     13 OAM        -4.6040    3.2910    1.0000 o         1 3RA     -0.344100
     14 CAN        -5.3360    1.0930   -1.0700 c3        1 3RA     -0.066400
     15 CAO        -6.6360    0.6100   -0.5180 ca        1 3RA     -0.130300
     16 CAP        -7.4270    1.5100    0.2340 ca        1 3RA     -0.113000
     17 CAQ        -8.6330    1.0260    0.6880 ca        1 3RA      0.065100
     18 CAR        -9.0660   -0.3030    0.4150 ca        1 3RA      0.086100
     19 CAS        -8.2970   -1.1800   -0.3220 ca        1 3RA     -0.115000
     20 CAT        -7.0620   -0.6920   -0.7860 ca        1 3RA     -0.104000
     21 OAU        -9.6000    1.6770    1.4420 os        1 3RA     -0.323900
     22 CAV       -10.6870    0.7380    1.6330 c3        1 3RA      0.319200
     23 OAW       -10.3090   -0.5060    0.9900 os        1 3RA     -0.320900
     24 HAA        -0.8360   -1.6010   -0.3310 ha        1 3RA      0.166000
     25 HAB         1.3440   -1.3390   -1.4880 ha        1 3RA      0.174500
     26 HAC         3.0570    0.2610   -0.6180 ha        1 3RA      0.173000
     27 HAD         2.5850    1.6100    1.4340 ha        1 3RA      0.174500
     28 HAE         0.4220    1.3770    2.6230 ha        1 3RA      0.166000
     29 HNAG       -1.9150   -1.3000    1.8550 hn        1 3RA      0.484800
     30 HAN        -5.0430    0.4840   -1.9700 hc        1 3RA      0.101200
     31 HANA       -5.4330    2.1690   -1.3930 hc        1 3RA      0.101200
     32 HAP        -7.0980    2.5390    0.4320 ha        1 3RA      0.164000
     33 HAS        -8.6310   -2.2030   -0.5440 ha        1 3RA      0.170000
     34 HAT        -6.4280   -1.3630   -1.3860 ha        1 3RA      0.143000
     35 HAV       -11.6000    1.1390    1.1260 h2        1 3RA      0.087700
     36 HAVA      -10.8060    0.5490    2.7280 h2        1 3RA      0.087700
     37 HAG2       -1.4670   -0.0950    2.9460 hn        1 3RA      0.484800
@<TRIPOS>BOND
     1    1    2 ar  
     2    1    6 ar  
     3    1   24 1   
     4    2    3 ar  
     5    2   25 1   
     6    3    4 ar  
     7    3   26 1   
     8    4    5 ar  
     9    4   27 1   
    10    5    6 ar  
    11    5   28 1   
    12    6    7 1   
    13    7    8 1   
    14    7   29 1   
    15    7   37 1   
    16    8    9 1   
    17    8   12 2   
    18    9   10 2   
    19   10   11 1   
    20   10   14 1   
    21   11   12 1   
    22   11   13 2   
    23   14   15 1   
    24   14   30 1   
    25   14   31 1   
    26   15   16 ar  
    27   15   20 ar  
    28   16   17 ar  
    29   16   32 1   
    30   17   18 ar  
    31   17   21 1   
    32   18   19 ar  
    33   18   23 1   
    34   19   20 ar  
    35   19   33 1   
    36   20   34 1   
    37   21   22 1   
    38   22   23 1   
    39   22   35 1   
    40   22   36 1   
@<TRIPOS>SUBSTRUCTURE
     1 3RA         1 TEMP              0 ****  ****    0 ROOT
