@<TRIPOS>MOLECULE
3RA
   36    39     1     0     0
SMALL
bcc


@<TRIPOS>ATOM
      1 CAA         0.1140   -0.5110    0.2970 ca        1 3RA     -0.137000
      2 CAB         1.4800   -0.7800    0.3580 ca        1 3RA     -0.113000
      3 CAC         2.2700   -0.2460    1.3730 ca        1 3RA     -0.134000
      4 CAD         1.6880    0.5690    2.3430 ca        1 3RA     -0.113000
      5 CAE         0.3290    0.8600    2.2990 ca        1 3RA     -0.137000
      6 CAF        -0.4770    0.3220    1.2680 ca        1 3RA      0.127600
      7 NAG        -1.8630    0.6020    1.2860 nu        1 3RA     -0.656600
      8 CAH        -2.6260    0.8490    0.1760 cc        1 3RA      0.834200
      9 NAI        -4.0610    1.2800    0.3960 nc        1 3RA     -0.656000
     10 CAJ        -4.5470    1.4120   -0.8040 cd        1 3RA      0.368300
     11 CAK        -3.4320    1.0700   -1.8720 c         1 3RA      0.556200
     12 NAL        -2.2630    0.7340   -1.1240 nd        1 3RA     -0.713100
     13 OAM        -3.6000    1.1040   -3.0860 o         1 3RA     -0.479100
     14 CAN        -5.9010    1.8280   -1.2390 c3        1 3RA     -0.064400
     15 CAO        -6.9880    1.0410   -0.5900 ca        1 3RA     -0.092300
     16 CAP        -7.3090    1.3030    0.7610 ca        1 3RA     -0.094000
     17 CAQ        -8.3380    0.5620    1.2990 ca        1 3RA      0.053100
     18 CAR        -9.0440   -0.4120    0.5430 ca        1 3RA      0.062100
     19 CAS        -8.7340   -0.6720   -0.7760 ca        1 3RA     -0.115000
     20 CAT        -7.6830    0.0820   -1.3290 ca        1 3RA     -0.117000
     21 OAU        -8.8620    0.6100    2.5880 os        1 3RA     -0.333900
     22 CAV        -9.9280   -0.3660    2.6410 c3        1 3RA      0.321200
     23 OAW       -10.0220   -0.9930    1.3410 os        1 3RA     -0.332900
     24 HAA        -0.4840   -0.9550   -0.5140 ha        1 3RA      0.150000
     25 HAB         1.9330   -1.4260   -0.4110 ha        1 3RA      0.139000
     26 HAC         3.3460   -0.4660    1.4110 ha        1 3RA      0.137000
     27 HAD         2.3050    0.9930    3.1490 ha        1 3RA      0.139000
     28 HAE        -0.1100    1.5090    3.0730 ha        1 3RA      0.150000
     29 HNAG       -2.2560    0.8370    2.1740 hn        1 3RA      0.463800
     30 HAN        -6.0330    2.9210   -0.9990 hc        1 3RA      0.086700
     31 HANA       -5.9510    1.7180   -2.3590 hc        1 3RA      0.086700
     32 HAP        -6.7560    2.0490    1.3470 ha        1 3RA      0.163000
     33 HAS        -9.2730   -1.4230   -1.3650 ha        1 3RA      0.158000
     34 HAT        -7.4070   -0.0990   -2.3800 ha        1 3RA      0.144000
     35 HAV       -10.8890    0.1660    2.8510 h2        1 3RA      0.073200
     36 HAVA       -9.6610   -1.1470    3.3950 h2        1 3RA      0.073200
@<TRIPOS>BOND
     1    1    2 ar  
     2    1    6 ar  
     3    1   24 1   
     4    2    3 ar  
     5    2   25 1   
     6    3    4 ar  
     7    3   26 1   
     8    4    5 ar  
     9    4   27 1   
    10    5    6 ar  
    11    5   28 1   
    12    6    7 1   
    13    7    8 1   
    14    7   29 1   
    15    8    9 1   
    16    8   12 2   
    17    9   10 2   
    18   10   11 1   
    19   10   14 1   
    20   11   12 1   
    21   11   13 2   
    22   14   15 1   
    23   14   30 1   
    24   14   31 1   
    25   15   16 ar  
    26   15   20 ar  
    27   16   17 ar  
    28   16   32 1   
    29   17   18 ar  
    30   17   21 1   
    31   18   19 ar  
    32   18   23 1   
    33   19   20 ar  
    34   19   33 1   
    35   20   34 1   
    36   21   22 1   
    37   22   23 1   
    38   22   35 1   
    39   22   36 1   
@<TRIPOS>SUBSTRUCTURE
     1 3RA         1 TEMP              0 ****  ****    0 ROOT
