@<TRIPOS>MOLECULE
3RA
   36    39     1     0     0
SMALL
bcc


@<TRIPOS>ATOM
      1 CAA        -4.4720   -0.4930    0.9400 ca        1 3RA     -0.137000
      2 CAB        -5.8320   -0.7150    1.1520 ca        1 3RA     -0.113000
      3 CAC        -6.5840   -1.4600    0.2480 ca        1 3RA     -0.134000
      4 CAD        -5.9700   -1.9930   -0.8860 ca        1 3RA     -0.113000
      5 CAE        -4.6180   -1.7780   -1.1230 ca        1 3RA     -0.137000
      6 CAF        -3.8500   -1.0180   -0.2090 ca        1 3RA      0.127600
      7 NAG        -2.4680   -0.8630   -0.4620 nh        1 3RA     -0.656600
      8 CAH        -1.7540    0.2840   -0.2350 cc        1 3RA      0.834200
      9 NAI        -0.3160    0.3180   -0.7070 nc        1 3RA     -0.656000
     10 CAJ         0.1170    1.4890   -0.3390 cd        1 3RA      0.368300
     11 CAK        -1.0380    2.2790    0.3960 c         1 3RA      0.556200
     12 NAL        -2.1710    1.4100    0.3930 nd        1 3RA     -0.713100
     13 OAM        -0.9220    3.4090    0.8560 o         1 3RA     -0.479100
     14 CAN         1.4480    2.1110   -0.5340 c3        1 3RA     -0.064400
     15 CAO         2.5680    1.2490   -0.0610 ca        1 3RA     -0.092300
     16 CAP         2.9450    0.1300   -0.8380 ca        1 3RA     -0.094000
     17 CAQ         4.0030   -0.6140   -0.3630 ca        1 3RA      0.053100
     18 CAR         4.6830   -0.2800    0.8390 ca        1 3RA      0.062100
     19 CAS         4.3180    0.8100    1.6010 ca        1 3RA     -0.115000
     20 CAT         3.2380    1.5730    1.1210 ca        1 3RA     -0.117000
     21 OAU         4.5820   -1.7520   -0.9170 os        1 3RA     -0.333900
     22 CAV         5.6570   -2.1460   -0.0330 c3        1 3RA      0.321200
     23 OAW         5.6990   -1.2020    1.0630 os        1 3RA     -0.332900
     24 HAA        -3.9050    0.0950    1.6790 ha        1 3RA      0.150000
     25 HAB        -6.3100   -0.2930    2.0500 ha        1 3RA      0.139000
     26 HAC        -7.6560   -1.6290    0.4260 ha        1 3RA      0.137000
     27 HAD        -6.5590   -2.5840   -1.6030 ha        1 3RA      0.139000
     28 HAE        -4.1540   -2.2040   -2.0260 ha        1 3RA      0.150000
     29 HNAG       -2.0400   -1.5630   -1.0320 hn        1 3RA      0.463800
     30 HAN         1.5810    2.3340   -1.6300 hc        1 3RA      0.086700
     31 HANA        1.4500    3.0950    0.0150 hc        1 3RA      0.086700
     32 HAP         2.4130   -0.1320   -1.7610 ha        1 3RA      0.163000
     33 HAS         4.8380    1.0720    2.5300 ha        1 3RA      0.158000
     34 HAT         2.9190    2.4510    1.7040 ha        1 3RA      0.144000
     35 HAV         5.4280   -3.1590    0.3790 h2        1 3RA      0.073200
     36 HAVA        6.6220   -2.0840   -0.5940 h2        1 3RA      0.073200
@<TRIPOS>BOND
     1    1    2 ar  
     2    1    6 ar  
     3    1   24 1   
     4    2    3 ar  
     5    2   25 1   
     6    3    4 ar  
     7    3   26 1   
     8    4    5 ar  
     9    4   27 1   
    10    5    6 ar  
    11    5   28 1   
    12    6    7 1   
    13    7    8 1   
    14    7   29 1   
    15    8    9 1   
    16    8   12 2   
    17    9   10 2   
    18   10   11 1   
    19   10   14 1   
    20   11   12 1   
    21   11   13 2   
    22   14   15 1   
    23   14   30 1   
    24   14   31 1   
    25   15   16 ar  
    26   15   20 ar  
    27   16   17 ar  
    28   16   32 1   
    29   17   18 ar  
    30   17   21 1   
    31   18   19 ar  
    32   18   23 1   
    33   19   20 ar  
    34   19   33 1   
    35   20   34 1   
    36   21   22 1   
    37   22   23 1   
    38   22   35 1   
    39   22   36 1   
@<TRIPOS>SUBSTRUCTURE
     1 3RA         1 TEMP              0 ****  ****    0 ROOT
