@<TRIPOS>MOLECULE
3RA
   36    39     1     0     0
SMALL
bcc


@<TRIPOS>ATOM
      1 CAA         0.1180   -0.4970    0.2960 ca        1 3RA     -0.137000
      2 CAB         1.4850   -0.7610    0.3570 ca        1 3RA     -0.113000
      3 CAC         2.2720   -0.2260    1.3740 ca        1 3RA     -0.134000
      4 CAD         1.6850    0.5870    2.3440 ca        1 3RA     -0.113000
      5 CAE         0.3260    0.8720    2.2990 ca        1 3RA     -0.137000
      6 CAF        -0.4770    0.3320    1.2670 ca        1 3RA      0.127600
      7 NAG        -1.8640    0.6060    1.2840 nh        1 3RA     -0.656600
      8 CAH        -2.6280    0.8520    0.1740 cc        1 3RA      0.834200
      9 NAI        -4.0640    1.2770    0.3930 nc        1 3RA     -0.656000
     10 CAJ        -4.5500    1.4070   -0.8080 cd        1 3RA      0.368300
     11 CAK        -3.4330    1.0690   -1.8750 c         1 3RA      0.556200
     12 NAL        -2.2640    0.7380   -1.1260 nd        1 3RA     -0.713100
     13 OAM        -3.6000    1.1030   -3.0890 o         1 3RA     -0.479100
     14 CAN        -5.9050    1.8180   -1.2430 c3        1 3RA     -0.064400
     15 CAO        -6.9900    1.0300   -0.5910 ca        1 3RA     -0.092300
     16 CAP        -7.3110    1.2950    0.7590 ca        1 3RA     -0.094000
     17 CAQ        -8.3380    0.5540    1.3000 ca        1 3RA      0.053100
     18 CAR        -9.0410   -0.4240    0.5470 ca        1 3RA      0.062100
     19 CAS        -8.7320   -0.6870   -0.7710 ca        1 3RA     -0.115000
     20 CAT        -7.6830    0.0670   -1.3270 ca        1 3RA     -0.117000
     21 OAU        -8.8610    0.6040    2.5890 os        1 3RA     -0.333900
     22 CAV        -9.9250   -0.3740    2.6460 c3        1 3RA      0.321200
     23 OAW       -10.0180   -1.0060    1.3470 os        1 3RA     -0.332900
     24 HAA        -0.4770   -0.9430   -0.5170 ha        1 3RA      0.150000
     25 HAB         1.9410   -1.4040   -0.4110 ha        1 3RA      0.139000
     26 HAC         3.3490   -0.4410    1.4130 ha        1 3RA      0.137000
     27 HAD         2.3010    1.0120    3.1520 ha        1 3RA      0.139000
     28 HAE        -0.1160    1.5180    3.0730 ha        1 3RA      0.150000
     29 HNAG       -2.2590    0.8400    2.1710 hn        1 3RA      0.463800
     30 HAN        -5.9550    1.7040   -2.3630 hc        1 3RA      0.087200
     31 HANA       -6.0400    2.9120   -1.0070 hc        1 3RA      0.087200
     32 HAP        -6.7600    2.0440    1.3430 ha        1 3RA      0.163000
     33 HAS        -9.2700   -1.4420   -1.3580 ha        1 3RA      0.158000
     34 HAT        -7.4080   -0.1160   -2.3780 ha        1 3RA      0.144000
     35 HAV        -9.6550   -1.1520    3.4020 h2        1 3RA      0.073200
     36 HAVA      -10.8870    0.1560    2.8540 h2        1 3RA      0.073200
@<TRIPOS>BOND
     1    1    2 ar  
     2    1    6 ar  
     3    1   24 1   
     4    2    3 ar  
     5    2   25 1   
     6    3    4 ar  
     7    3   26 1   
     8    4    5 ar  
     9    4   27 1   
    10    5    6 ar  
    11    5   28 1   
    12    6    7 1   
    13    7    8 1   
    14    7   29 1   
    15    8    9 1   
    16    8   12 2   
    17    9   10 2   
    18   10   11 1   
    19   10   14 1   
    20   11   12 1   
    21   11   13 2   
    22   14   15 1   
    23   14   30 1   
    24   14   31 1   
    25   15   16 ar  
    26   15   20 ar  
    27   16   17 ar  
    28   16   32 1   
    29   17   18 ar  
    30   17   21 1   
    31   18   19 ar  
    32   18   23 1   
    33   19   20 ar  
    34   19   33 1   
    35   20   34 1   
    36   21   22 1   
    37   22   23 1   
    38   22   35 1   
    39   22   36 1   
@<TRIPOS>SUBSTRUCTURE
     1 3RA         1 TEMP              0 ****  ****    0 ROOT
