@<TRIPOS>MOLECULE
3RB
   46    47     1     0     0
SMALL
bcc


@<TRIPOS>ATOM
      1 C4         -0.5430   -0.1070    1.3300 ca        1 3RB     -0.135000
      2 C5          0.7510   -0.2510    0.8170 ca        1 3RB     -0.058300
      3 C6          1.8520    0.1050    1.6180 ca        1 3RB     -0.034800
      4 C7          3.2240   -0.0100    1.1070 ce        1 3RB     -0.081400
      5 C8          4.1120   -0.8280    1.6970 cf        1 3RB     -0.088000
      6 C10         5.8810   -1.9120    0.3470 ce        1 3RB     -0.064000
      7 C13         6.5300   -3.7270   -2.1400 cf        1 3RB     -0.164200
      8 C15         8.0600   -5.2440   -3.5050 c         1 3RB      0.894800
      9 C20         7.4580   -2.5750   -2.2560 c3        1 3RB     -0.049900
     10 C21         1.5880    0.1600   -1.5160 c3        1 3RB     -0.069400
     11 C2'         3.5510    0.8400   -0.0740 c3        1 3RB     -0.030200
     12 C1'         3.0940    0.2220   -1.3810 c3        1 3RB     -0.079400
     13 C18         0.9450   -0.8160   -0.5480 c3        1 3RB     -0.036100
     14 C3         -0.7490    0.3790    2.6200 ca        1 3RB     -0.138000
     15 C2          0.3430    0.7210    3.4160 ca        1 3RB     -0.141000
     16 C1          1.6360    0.5820    2.9170 ca        1 3RB     -0.124000
     17 C9          5.4990   -1.0190    1.2840 cf        1 3RB     -0.157200
     18 C19         6.4870   -0.1840    2.0120 c3        1 3RB     -0.038900
     19 C11         4.9770   -2.7690   -0.3770 ce        1 3RB     -0.217000
     20 C12         5.2790   -3.5630   -1.4220 cf        1 3RB     -0.041000
     21 C14         6.8060   -4.9080   -2.7290 ce        1 3RB     -0.137200
     22 O1          8.6890   -6.2810   -3.1490 o         1 3RB     -0.830800
     23 O2          8.3970   -4.5090   -4.4770 o         1 3RB     -0.830800
     24 H1         -1.4080   -0.3840    0.7090 ha        1 3RB      0.125000
     25 H2          3.8130   -1.4230    2.5790 ha        1 3RB      0.120000
     26 H3          6.9560   -2.0260    0.1170 ha        1 3RB      0.138000
     27 H4          7.9870   -2.6190   -3.2450 hc        1 3RB      0.039700
     28 H5          6.9090   -1.6050   -2.1760 hc        1 3RB      0.039700
     29 H6          8.2350   -2.6130   -1.4510 hc        1 3RB      0.039700
     30 H7          1.3390   -0.1650   -2.5620 hc        1 3RB      0.036200
     31 H8          1.1500    1.1820   -1.3710 hc        1 3RB      0.036200
     32 H9          3.0750    1.8500    0.0510 hc        1 3RB      0.046200
     33 H10         4.6640    0.9920   -0.1190 hc        1 3RB      0.046200
     34 H11         3.5060    0.8330   -2.2270 hc        1 3RB      0.053200
     35 H12         3.5280   -0.8110   -1.4700 hc        1 3RB      0.053200
     36 H13         1.5860   -1.7370   -0.4690 hc        1 3RB      0.050200
     37 H14        -0.0480   -1.1360   -0.9650 hc        1 3RB      0.050200
     38 H15        -1.7710    0.4880    3.0090 ha        1 3RB      0.121000
     39 H16         0.1850    1.0980    4.4360 ha        1 3RB      0.122000
     40 H17         2.5000    0.8480    3.5430 ha        1 3RB      0.132000
     41 H18         6.3170    0.8980    1.7830 hc        1 3RB      0.031700
     42 H19         7.5340   -0.4460    1.7210 hc        1 3RB      0.031700
     43 H20         6.3800   -0.3290    3.1150 hc        1 3RB      0.031700
     44 H21         3.9360   -2.7690   -0.0030 ha        1 3RB      0.106000
     45 H22         4.4610   -4.2040   -1.8110 ha        1 3RB      0.101000
     46 H23         6.1020   -5.7530   -2.6430 ha        1 3RB      0.098000
@<TRIPOS>BOND
     1    1    2 ar  
     2    1   14 ar  
     3    1   24 1   
     4    2    3 ar  
     5    2   13 1   
     6    3    4 1   
     7    3   16 ar  
     8    4    5 2   
     9    4   11 1   
    10    5   17 1   
    11    5   25 1   
    12    6   17 2   
    13    6   19 1   
    14    6   26 1   
    15    7    9 1   
    16    7   20 1   
    17    7   21 2   
    18    8   21 1   
    19    8   22 1   
    20    8   23 1   
    21    9   27 1   
    22    9   28 1   
    23    9   29 1   
    24   10   12 1   
    25   10   13 1   
    26   10   30 1   
    27   10   31 1   
    28   11   12 1   
    29   11   32 1   
    30   11   33 1   
    31   12   34 1   
    32   12   35 1   
    33   13   36 1   
    34   13   37 1   
    35   14   15 ar  
    36   14   38 1   
    37   15   16 ar  
    38   15   39 1   
    39   16   40 1   
    40   17   18 1   
    41   18   41 1   
    42   18   42 1   
    43   18   43 1   
    44   19   20 2   
    45   19   44 1   
    46   20   45 1   
    47   21   46 1   
@<TRIPOS>SUBSTRUCTURE
     1 3RB         1 TEMP              0 ****  ****    0 ROOT
