@<TRIPOS>MOLECULE
3RC
   34    37     1     0     0
SMALL
bcc


@<TRIPOS>ATOM
      1 C1          0.0940   -0.7220    0.0450 ca        1 3RC     -0.280300
      2 C2          1.4370   -0.2670    0.0270 ca        1 3RC      0.414200
      3 N3          2.0850    0.2660    1.0690 nb        1 3RC     -0.676000
      4 C4         -0.6550   -0.6300    1.2100 ca        1 3RC     -0.032000
      5 C5         -0.0410   -0.0830    2.3400 ca        1 3RC     -0.171100
      6 C6          1.3450    0.3540    2.2150 ca        1 3RC      0.417800
      7 N7          1.7490    0.8640    3.4600 na        1 3RC     -0.282100
      8 C8          0.6780    0.7610    4.3430 cc        1 3RC     -0.097100
      9 C9         -0.4320    0.1900    3.7050 cd        1 3RC     -0.157000
     10 C10        -1.6950   -0.0600    4.3150 cd        1 3RC      0.360100
     11 N11        -2.8300   -0.6130    3.6580 nd        1 3RC     -0.353000
     12 N12        -3.7950   -0.7130    4.4730 nc        1 3RC     -0.166800
     13 N13        -3.4180   -0.2780    5.7010 na        1 3RC      0.048400
     14 C14        -2.0890    0.1660    5.6520 cc        1 3RC     -0.230600
     15 C15        -4.2860   -0.1840    6.8600 c3        1 3RC      0.102600
     16 C16        -5.0310    1.1130    6.9730 ca        1 3RC     -0.125300
     17 C17        -4.8120    1.9480    8.0730 ca        1 3RC     -0.108500
     18 C18        -5.5330    3.1350    8.2030 ca        1 3RC     -0.131500
     19 C19        -6.4670    3.4950    7.2310 ca        1 3RC     -0.117000
     20 C20        -6.6830    2.6660    6.1310 ca        1 3RC     -0.131500
     21 C21        -5.9690    1.4750    6.0010 ca        1 3RC     -0.108500
     22 H1         -0.3420   -1.1430   -0.8710 ha        1 3RC      0.142000
     23 H2          2.0310   -0.3400   -0.9030 h4        1 3RC      0.019100
     24 H3         -1.6980   -0.9760    1.2480 ha        1 3RC      0.163000
     25 H4          2.6400    1.2340    3.6630 hn        1 3RC      0.310700
     26 H5          0.7750    1.1040    5.3750 h4        1 3RC      0.166000
     27 H6         -1.5620    0.5710    6.5110 h4        1 3RC      0.187000
     28 H7         -3.6360   -0.3360    7.7700 h1        1 3RC      0.075200
     29 H8         -5.0360   -1.0280    6.8130 h1        1 3RC      0.075200
     30 H9         -4.0750    1.6700    8.8410 ha        1 3RC      0.139500
     31 H10        -5.3610    3.7880    9.0710 ha        1 3RC      0.136000
     32 H11        -7.0320    4.4340    7.3330 ha        1 3RC      0.135000
     33 H12        -7.4180    2.9490    5.3630 ha        1 3RC      0.136000
     34 H13        -6.1410    0.8210    5.1320 ha        1 3RC      0.139500
@<TRIPOS>BOND
     1    1    2 ar  
     2    1    4 ar  
     3    1   22 1   
     4    2    3 ar  
     5    2   23 1   
     6    3    6 ar  
     7    4    5 ar  
     8    4   24 1   
     9    5    6 ar  
    10    5    9 1   
    11    6    7 1   
    12    7    8 1   
    13    7   25 1   
    14    8    9 2   
    15    8   26 1   
    16    9   10 1   
    17   10   11 1   
    18   10   14 2   
    19   11   12 2   
    20   12   13 1   
    21   13   14 1   
    22   13   15 1   
    23   14   27 1   
    24   15   16 1   
    25   15   28 1   
    26   15   29 1   
    27   16   17 ar  
    28   16   21 ar  
    29   17   18 ar  
    30   17   30 1   
    31   18   19 ar  
    32   18   31 1   
    33   19   20 ar  
    34   19   32 1   
    35   20   21 ar  
    36   20   33 1   
    37   21   34 1   
@<TRIPOS>SUBSTRUCTURE
     1 3RC         1 TEMP              0 ****  ****    0 ROOT
