@<TRIPOS>MOLECULE
3RC
   34    24     1     0     0
SMALL
bcc


@<TRIPOS>ATOM
      1 C1          3.6610   -2.7810   -2.5170 c1        1 3RC     -0.123833
      2 C2          4.9220   -2.2840   -2.8970 c1        1 3RC     -0.051000
      3 N3          5.2830   -1.0010   -2.5670 n1        1 3RC     -0.150000
      4 C4          2.7970   -1.9880   -1.8210 c1        1 3RC     -0.123833
      5 C5          3.1710   -0.6600   -1.4790 c1        1 3RC     -0.034000
      6 C6          4.3960   -0.1820   -1.8500 c1        1 3RC     -0.034000
      7 N7          4.5050    1.1350   -1.3920 n1        1 3RC     -0.196000
      8 C8          3.3450    1.4560   -0.7420 c1        1 3RC     -0.070000
      9 C9          2.5080    0.3520   -0.7880 c1        1 3RC     -0.059000
     10 C10         1.0560    0.4320   -0.3110 c1        1 3RC     -0.109500
     11 N11        -0.0240    0.3340   -1.0750 n2        1 3RC     -0.127500
     12 N12        -1.1320    0.3720   -0.2570 n2        1 3RC      0.003000
     13 N13        -0.7100    0.4940    1.0080 n2        1 3RC     -0.127500
     14 C14         0.6410    0.5330    0.9960 c1        1 3RC     -0.109500
     15 C15        -1.5510    0.5380    2.1910 c2        1 3RC      0.036000
     16 C16        -3.0280    0.5620    1.7800 c1        1 3RC     -0.118000
     17 C17        -3.7080    1.7720    1.7300 c1        1 3RC     -0.123833
     18 C18        -5.0800    1.8000    1.4330 c1        1 3RC     -0.123833
     19 C19        -5.7600    0.6230    1.1880 c1        1 3RC     -0.123833
     20 C20        -5.0850   -0.5920    1.2370 c1        1 3RC     -0.123833
     21 C21        -3.7030   -0.6200    1.5360 c1        1 3RC     -0.101000
     22 H1          3.4110   -3.6690   -2.7480 ha        1 3RC      0.140167
     23 H2          5.5750   -2.8840   -3.4230 ha        1 3RC      0.156000
     24 H3          1.9160   -2.3360   -1.5530 ha        1 3RC      0.140167
     25 H4          5.2580    1.7080   -1.5110 DU        1 3RC      0.204667
     26 H5          3.1710    2.2730   -0.2770 DU        1 3RC      0.204667
     27 H6          1.2220    0.6160    1.7790 DU        1 3RC      0.204667
     28 H7         -1.3780   -0.2460    2.7410 ha        1 3RC      0.114500
     29 H8         -1.3540    1.3150    2.6840 ha        1 3RC      0.114500
     30 H9         -3.2410    2.5870    1.8990 ha        1 3RC      0.140167
     31 H10        -5.5440    2.6340    1.3990 ha        1 3RC      0.140167
     32 H11        -6.7640    0.6460    0.9710 ha        1 3RC      0.140167
     33 H12        -5.5720   -1.4340    1.0620 ha        1 3RC      0.140167
     34 H13        -3.2080   -1.5060    1.5740 ha        1 3RC      0.150000
@<TRIPOS>BOND
     1    1    4 1   
     2    1   22 1   
     3    2    3 1   
     4    2   23 1   
     5    4   24 1   
     6    5    6 1   
     7    7    8 1   
     8    8    9 1   
     9   10   11 1   
    10   10   14 1   
    11   11   12 1   
    12   12   13 1   
    13   13   14 1   
    14   15   16 1   
    15   15   28 1   
    16   15   29 1   
    17   16   21 1   
    18   17   18 1   
    19   17   30 1   
    20   18   31 1   
    21   19   20 1   
    22   19   32 1   
    23   20   33 1   
    24   21   34 1   
@<TRIPOS>SUBSTRUCTURE
     1 3RC         1 TEMP              0 ****  ****    0 ROOT
