@<TRIPOS>MOLECULE
3RC
   34    37     1     0     0
SMALL
bcc


@<TRIPOS>ATOM
      1 C1          4.6440   -1.9920    0.6160 ca        1 3RC     -0.280300
      2 C2          5.5920   -1.2960   -0.1780 ca        1 3RC      0.414200
      3 N3          5.3570   -0.1590   -0.8420 nb        1 3RC     -0.676000
      4 C4          3.3530   -1.4970    0.7480 ca        1 3RC     -0.032000
      5 C5          3.0370   -0.3110    0.0800 ca        1 3RC     -0.171100
      6 C6          4.0850    0.3250   -0.7090 ca        1 3RC      0.417800
      7 N7          3.5470    1.4890   -1.2830 na        1 3RC     -0.282100
      8 C8          2.2180    1.5970   -0.8840 cc        1 3RC     -0.097100
      9 C9          1.8640    0.5250   -0.0530 cd        1 3RC     -0.157000
     10 C10         0.5810    0.3240    0.5330 cd        1 3RC      0.360100
     11 N11         0.2150   -0.7810    1.3530 nd        1 3RC     -0.353000
     12 N12        -0.9920   -0.6660    1.7190 nc        1 3RC     -0.166800
     13 N13        -1.5250    0.4790    1.2250 na        1 3RC      0.048400
     14 C14        -0.5670    1.1430    0.4450 cc        1 3RC     -0.230600
     15 C15        -2.9050    0.9000    1.3860 c3        1 3RC      0.102600
     16 C16        -3.8380    0.3790    0.3330 ca        1 3RC     -0.125300
     17 C17        -4.5070    1.2740   -0.5080 ca        1 3RC     -0.108500
     18 C18        -5.4070    0.7970   -1.4600 ca        1 3RC     -0.131500
     19 C19        -5.6350   -0.5740   -1.5810 ca        1 3RC     -0.117000
     20 C20        -4.9650   -1.4680   -0.7460 ca        1 3RC     -0.131500
     21 C21        -4.0690   -0.9950    0.2110 ca        1 3RC     -0.108500
     22 H1          4.9430   -2.9200    1.1190 ha        1 3RC      0.142000
     23 H2          6.6190   -1.6920   -0.2810 h4        1 3RC      0.019100
     24 H3          2.6010   -2.0190    1.3570 ha        1 3RC      0.163000
     25 H4          4.0330    2.1130   -1.8710 hn        1 3RC      0.310700
     26 H5          1.6050    2.4360   -1.2200 h4        1 3RC      0.166000
     27 H6         -0.7580    2.0810   -0.0670 h4        1 3RC      0.187000
     28 H7         -3.2680    0.5480    2.3970 h1        1 3RC      0.075200
     29 H8         -2.9060    2.0280    1.3800 h1        1 3RC      0.075200
     30 H9         -4.3300    2.3560   -0.4180 ha        1 3RC      0.139500
     31 H10        -5.9340    1.5040   -2.1170 ha        1 3RC      0.136000
     32 H11        -6.3430   -0.9490   -2.3360 ha        1 3RC      0.135000
     33 H12        -5.1420   -2.5500   -0.8420 ha        1 3RC      0.136000
     34 H13        -3.5400   -1.7020    0.8700 ha        1 3RC      0.139500
@<TRIPOS>BOND
     1    1    2 ar  
     2    1    4 ar  
     3    1   22 1   
     4    2    3 ar  
     5    2   23 1   
     6    3    6 ar  
     7    4    5 ar  
     8    4   24 1   
     9    5    6 ar  
    10    5    9 1   
    11    6    7 1   
    12    7    8 1   
    13    7   25 1   
    14    8    9 2   
    15    8   26 1   
    16    9   10 1   
    17   10   11 1   
    18   10   14 2   
    19   11   12 2   
    20   12   13 1   
    21   13   14 1   
    22   13   15 1   
    23   14   27 1   
    24   15   16 1   
    25   15   28 1   
    26   15   29 1   
    27   16   17 ar  
    28   16   21 ar  
    29   17   18 ar  
    30   17   30 1   
    31   18   19 ar  
    32   18   31 1   
    33   19   20 ar  
    34   19   32 1   
    35   20   21 ar  
    36   20   33 1   
    37   21   34 1   
@<TRIPOS>SUBSTRUCTURE
     1 3RC         1 TEMP              0 ****  ****    0 ROOT
