@<TRIPOS>MOLECULE
3RD
   38    35     1     0     0
SMALL
bcc


@<TRIPOS>ATOM
      1 N1          0.1130   -0.9920    0.5960 n2        1 3RD     -0.100000
      2 C1          2.8210    0.6490   -3.3190 c2        1 3RD      0.145000
      3 C2          1.3880    0.3080   -3.2530 c2        1 3RD     -0.237000
      4 N2          0.8620   -0.0360   -1.9990 n2        1 3RD     -0.089000
      5 C3          1.6190   -0.0730   -0.9340 c2        1 3RD     -0.095000
      6 C4          3.1260    0.1850   -0.9050 c3        1 3RD     -0.055000
      7 C5          3.6360    0.6020   -2.2400 c2        1 3RD     -0.344000
      8 C6          9.3780    0.0980   -0.4600 c1        1 3RD      0.241000
      9 O1         10.2900   -0.6090   -0.7140 o         1 3RD     -0.299000
     10 C8          3.8850   -1.0490   -0.4690 c2        1 3RD      0.242000
     11 O3          5.0350   -0.9970   -0.0130 o         1 3RD     -0.368000
     12 P1          7.0200   -2.2730    0.6660 p3        1 3RD      2.472000
     13 O4          6.9630   -1.9190    2.0950 o         1 3RD     -1.141667
     14 O5          6.3600   -3.4900    0.1620 o         1 3RD     -1.141667
     15 O6          8.0560   -1.6230   -0.1800 o         1 3RD     -1.141667
     16 N3          1.0720   -0.2540    0.4070 n2        1 3RD     -0.076000
     17 H1          4.6990    0.8580   -2.2910 ha        1 3RD      0.133000
     18 H2          2.5830    0.9920   -5.1670 ho        1 3RD      0.251000
     19 H3         -0.3900    0.1350   -4.4360 ha        1 3RD      0.034000
     20 H4          1.0240    0.9600   -6.6030 ha        1 3RD     -0.004500
     21 H5          1.1110    1.1430   -7.2570 ha        1 3RD     -0.004500
     22 H6          3.3440    1.0090   -0.1640 hc        1 3RD      0.109000
     23 H7          3.3630   -2.0220   -0.5990 h4        1 3RD      0.100000
     24 C9         -0.4350   -1.1610    1.9480 c3        1 3RD     -0.071000
     25 C10        -5.0450    1.7620    2.6010 c1        1 3RD     -0.324000
     26 C11        -4.1480    1.1850    3.1490 c1        1 3RD     -0.018000
     27 C12        -3.1130    0.5040    3.8210 c2        1 3RD     -0.025000
     28 C13        -1.9520    0.2770    3.2580 c1        1 3RD     -0.118000
     29 C14        -0.7840    0.0720    2.7170 c2        1 3RD     -0.151000
     30 C15        -3.4490    0.0590    5.2600 c2        1 3RD      0.382000
     31 O7         -3.2250    0.8800    6.1900 o         1 3RD     -0.559000
     32 O8         -3.9510   -1.0860    5.4170 o         1 3RD     -0.559000
     33 H10        -5.8360    2.2670    2.1190 ha        1 3RD      0.193000
     34 H11         0.2810   -1.7720    2.5720 h1        1 3RD      0.098000
     35 H12         0.0260    0.8140    2.8290 ha        1 3RD      0.140000
     36 H13        -1.3610   -1.7830    1.7790 h1        1 3RD      0.098000
     37 O2          3.3300    1.0470   -4.5320 oh        1 3RD     -0.306000
     38 C7          0.6770    0.3720   -4.4070 c1        1 3RD     -0.410000
@<TRIPOS>BOND
     1    1   16 1   
     2    1   24 1   
     3    2    3 1   
     4    2    7 1   
     5    2   37 1   
     6    3    4 1   
     7    3   38 1   
     8    4    5 1   
     9    5    6 1   
    10    5   16 1   
    11    6    7 1   
    12    6   10 1   
    13    6   22 1   
    14    7   17 1   
    15    8    9 1   
    16   10   11 1   
    17   10   23 1   
    18   12   13 1   
    19   12   14 1   
    20   12   15 1   
    21   18   37 1   
    22   19   38 1   
    23   20   21 1   
    24   24   29 1   
    25   24   34 1   
    26   24   36 1   
    27   25   26 1   
    28   25   33 1   
    29   26   27 1   
    30   27   28 1   
    31   27   30 1   
    32   28   29 1   
    33   29   35 1   
    34   30   31 1   
    35   30   32 1   
@<TRIPOS>SUBSTRUCTURE
     1 3RD         1 TEMP              0 ****  ****    0 ROOT
