@<TRIPOS>MOLECULE
3RD
   38    36     1     0     0
SMALL
bcc


@<TRIPOS>ATOM
      1 N1          0.0120   -0.7880    0.3720 n2        1 3RD     -0.099000
      2 C1          2.9440    0.7370   -3.4270 c2        1 3RD      0.145000
      3 C2          1.4910    0.4870   -3.4100 c2        1 3RD     -0.237000
      4 N2          0.9070    0.1560   -2.1790 n2        1 3RD     -0.088000
      5 C3          1.6260    0.0530   -1.0930 c2        1 3RD     -0.096000
      6 C4          3.1430    0.2210   -1.0130 c3        1 3RD     -0.054000
      7 C5          3.7200    0.6220   -2.3250 c2        1 3RD     -0.345000
      8 C6          9.3630   -0.2770   -0.3910 c1        1 3RD      0.241000
      9 O1         10.2320   -1.0440   -0.6180 o         1 3RD     -0.299000
     10 C8          3.8150   -1.0600   -0.5680 c2        1 3RD      0.243000
     11 O3          4.9470   -1.0800   -0.0680 o         1 3RD     -0.368000
     12 P1          6.8220   -2.4800    0.6760 p3        1 3RD      2.472000
     13 O4          6.7490   -2.1160    2.1010 o         1 3RD     -1.141667
     14 O5          6.0960   -3.6530    0.1570 o         1 3RD     -1.141667
     15 O6          7.9210   -1.9050   -0.1430 o         1 3RD     -1.141667
     16 N3          1.0320   -0.1250    0.2270 n2        1 3RD     -0.078000
     17 H1          4.8000    0.8100   -2.3410 ha        1 3RD      0.133000
     18 H2          2.7860    1.1220   -5.2760 ho        1 3RD      0.251000
     19 H3         -0.2570    0.4480   -4.6490 ha        1 3RD      0.034000
     20 H4          1.3960    1.3980   -7.4070 ha        1 3RD     -0.004500
     21 H5          1.2740    1.2120   -6.7580 ha        1 3RD     -0.004500
     22 H6          3.3850    1.0230   -0.2540 hc        1 3RD      0.108000
     23 H7          3.2440   -2.0000   -0.7330 h4        1 3RD      0.100000
     24 C9         -0.5670   -0.9560    1.7130 c3        1 3RD     -0.074000
     25 C10        -5.3710    0.9620    4.4970 c1        1 3RD     -0.156000
     26 C11        -4.5050    0.9970    3.4140 c2        1 3RD     -0.479000
     27 C12        -3.1890    0.5070    3.8140 c2        1 3RD     -0.023000
     28 C13        -2.0840    0.3760    3.1290 c1        1 3RD     -0.171000
     29 C14        -0.9810    0.2830    2.4430 c2        1 3RD     -0.133000
     30 C15        -3.3700    0.1720    5.2680 c2        1 3RD      0.295000
     31 O7         -2.6330   -0.2770    6.1490 o         1 3RD     -0.378000
     32 O8         -4.6850    0.4650    5.6140 os        1 3RD     -0.240000
     33 H10         0.1450   -1.5270    2.3790 h1        1 3RD      0.094500
     34 H11        -4.7290    1.3260    2.4090 ha        1 3RD      0.123000
     35 H12        -0.2740    1.1300    2.3940 ha        1 3RD      0.134000
     36 H13        -1.4660   -1.6100    1.5290 h1        1 3RD      0.094500
     37 O2          3.5150    1.1190   -4.6180 oh        1 3RD     -0.306000
     38 C7          0.8220    0.6160   -4.5840 c1        1 3RD     -0.408000
@<TRIPOS>BOND
     1    1   16 1   
     2    1   24 1   
     3    2    3 1   
     4    2    7 1   
     5    2   37 1   
     6    3    4 1   
     7    3   38 1   
     8    4    5 1   
     9    5    6 1   
    10    5   16 1   
    11    6    7 1   
    12    6   10 1   
    13    6   22 1   
    14    7   17 1   
    15    8    9 1   
    16   10   11 1   
    17   10   23 1   
    18   12   13 1   
    19   12   14 1   
    20   12   15 1   
    21   18   37 1   
    22   19   38 1   
    23   20   21 1   
    24   24   29 1   
    25   24   33 1   
    26   24   36 1   
    27   25   26 1   
    28   25   32 1   
    29   26   27 1   
    30   26   34 1   
    31   27   28 1   
    32   27   30 1   
    33   28   29 1   
    34   29   35 1   
    35   30   31 1   
    36   30   32 1   
@<TRIPOS>SUBSTRUCTURE
     1 3RD         1 TEMP              0 ****  ****    0 ROOT
