@<TRIPOS>MOLECULE
3RD
   38    33     1     0     0
SMALL
bcc


@<TRIPOS>ATOM
      1 N1         -1.4680   -0.5920   -2.1410 n1        1 3RD     -0.043000
      2 C1          2.2590   -0.5580    1.1210 c1        1 3RD      0.073000
      3 C2          1.5180   -1.6800    0.7880 c1        1 3RD     -0.099000
      4 N2          0.6630   -1.6420   -0.2720 n1        1 3RD     -0.119000
      5 C3          0.5340   -0.5020   -1.0060 c1        1 3RD     -0.150000
      6 C4          1.2740    0.6220   -0.6740 c1        1 3RD      0.055000
      7 C5          2.1310    0.5850    0.3880 c1        1 3RD     -0.212000
      8 C6          3.0280    1.7660    0.6730 c2        1 3RD      0.217000
      9 O1          2.9150    2.7870    0.0200 o         1 3RD     -0.428000
     10 O2          3.2150   -0.6280    2.1500 oh        1 3RD     -0.289000
     11 C7          1.6420   -2.9390    1.6140 c3        1 3RD     -0.141000
     12 C8          1.0410    1.9240   -1.4120 c3        1 3RD      0.072000
     13 O3          2.1500    2.2030   -2.2360 os        1 3RD     -0.735000
     14 P1          1.9850    3.2810   -3.3830 p5        1 3RD      1.550500
     15 O4          1.7050    4.6310   -2.7670 o         1 3RD     -0.910833
     16 O5          3.2570    3.3520   -4.1940 o         1 3RD     -0.910833
     17 O6          0.8370    2.8900   -4.2810 o         1 3RD     -0.910833
     18 N3         -0.2350   -0.5150   -2.2000 n2        1 3RD      0.044000
     19 H1          3.7350    1.6920    1.3440 h4        1 3RD      0.288000
     20 H2          4.0300   -0.6670    1.7950 ho        1 3RD      0.247000
     21 H3          1.0020   -3.6050    1.2910 hc        1 3RD      0.074000
     22 H4          1.4520   -2.7330    2.5540 hc        1 3RD      0.074000
     23 H5          2.5520   -3.2940    1.5340 hc        1 3RD      0.074000
     24 H6          0.9250    2.6510   -0.7640 h1        1 3RD      0.090500
     25 H7          0.2350    1.8470   -1.9630 h1        1 3RD      0.090500
     26 C9         -2.1120   -0.6690   -0.8860 c1        1 3RD     -0.067000
     27 C10        -2.1580   -1.8750   -0.2050 c2        1 3RD     -0.134000
     28 C11        -2.8790   -1.9780    0.9730 c1        1 3RD     -0.112000
     29 C12        -3.5550   -0.8750    1.4720 c1        1 3RD     -0.114000
     30 C13        -3.5090    0.3310    0.7910 c1        1 3RD     -0.115000
     31 C14        -2.7870    0.4340   -0.3880 c1        1 3RD     -0.148000
     32 C15        -4.4240   -1.0150    2.7010 c2        1 3RD      0.356000
     33 O7         -5.5570   -1.5590    2.6120 o         1 3RD     -0.589500
     34 O8         -4.0250   -0.5680    3.8080 o         1 3RD     -0.589500
     35 H10        -1.6830   -2.6520   -0.5560 ha        1 3RD      0.123000
     36 H11        -2.9110   -2.8280    1.4530 ha        1 3RD      0.138000
     37 H12        -4.0270    1.0930    1.1140 ha        1 3RD      0.136000
     38 H13        -2.7550    1.2840   -0.8670 ha        1 3RD      0.114000
@<TRIPOS>BOND
     1    1   18 1   
     2    2    7 1   
     3    2   10 1   
     4    3    4 1   
     5    3   11 1   
     6    5    6 1   
     7    5   18 1   
     8    6   12 1   
     9    7    8 1   
    10    8    9 1   
    11    8   19 1   
    12   10   20 1   
    13   11   21 1   
    14   11   22 1   
    15   11   23 1   
    16   12   13 1   
    17   12   24 1   
    18   12   25 1   
    19   13   14 1   
    20   14   15 1   
    21   14   16 1   
    22   14   17 1   
    23   26   27 1   
    24   26   31 1   
    25   27   28 1   
    26   27   35 1   
    27   28   36 1   
    28   29   30 1   
    29   29   32 1   
    30   30   37 1   
    31   31   38 1   
    32   32   33 1   
    33   32   34 1   
@<TRIPOS>SUBSTRUCTURE
     1 3RD         1 TEMP              0 ****  ****    0 ROOT
