@<TRIPOS>MOLECULE
3RD
   38    36     1     0     0
SMALL
bcc


@<TRIPOS>ATOM
      1 N1       -444.4900   73.7760  -77.5330 n2        1 3RD     -0.108000
      2 C1       -441.9700   76.2700  -80.9940 c2        1 3RD     -0.011000
      3 C2       -442.7190   75.0810  -81.1800 c2        1 3RD     -0.183000
      4 N2       -443.2000   74.3750  -80.1270 n2        1 3RD     -0.146000
      5 C3       -442.9130   74.8320  -78.8800 c2        1 3RD     -0.058000
      6 C4       -442.1720   76.0210  -78.5940 c1        1 3RD     -0.340000
      7 C5       -441.7070   76.7280  -79.6940 c2        1 3RD     -0.188000
      8 C6       -439.6740   78.6150  -82.8270 c1        1 3RD      0.223000
      9 O1       -440.1790   78.1420  -83.7750 o         1 3RD     -0.225000
     10 C8       1673.4170 -277.2150  297.0910 c2        1 3RD      0.200000
     11 O3       1672.2300 -277.4840  296.8560 o         1 3RD     -0.355000
     12 P1       1671.4640 -275.6480  296.1510 p3        1 3RD      2.423000
     13 O4       1671.8990 -275.0910  297.4560 o         1 3RD     -1.157000
     14 O5       1672.5120 -275.7400  295.1040 o         1 3RD     -1.157000
     15 O6       1670.0400 -275.8670  295.8410 o         1 3RD     -1.157000
     16 N3       -443.3090   74.0430  -77.7200 n2        1 3RD     -0.039000
     17 H1       -441.1280   77.6500  -79.5580 ha        1 3RD      0.099000
     18 H2       -441.7970   76.6270  -82.8760 ho        1 3RD      0.194000
     19 H3       -442.0410   74.4120  -83.1100 hc        1 3RD      0.055333
     20 H4       -443.5930   75.3520  -83.1290 hc        1 3RD      0.055333
     21 H5       -443.5800   73.6350  -82.5550 hc        1 3RD      0.055333
     22 H6       1674.0950 -278.0040  297.4840 h4        1 3RD      0.101500
     23 H7       1673.8370 -276.1990  296.9210 h4        1 3RD      0.101500
     24 C9       -444.8470   73.0850  -76.2820 c3        1 3RD     -0.025000
     25 C10      -447.8270   68.0670  -78.4500 c1        1 3RD     -0.466000
     26 C11      -447.3380   68.9480  -77.7900 c1        1 3RD      0.062000
     27 C12      -446.7760   69.9570  -77.0480 c2        1 3RD     -0.373000
     28 C13      -446.0030   71.0730  -77.5500 c2        1 3RD     -0.078000
     29 C14      -445.6260   71.8440  -76.4810 c2        1 3RD     -0.150000
     30 C15      -446.8350   70.1170  -75.6240 c2        1 3RD      0.342000
     31 O7       -446.1190   71.2910  -75.2730 os        1 3RD     -0.238000
     32 O8       -447.3240   69.5320  -74.6400 o         1 3RD     -0.472000
     33 H10      -445.4900   73.8260  -75.7200 h1        1 3RD      0.077500
     34 H11      -448.2550   67.2960  -79.0240 ha        1 3RD      0.181000
     35 H12      -445.7740   71.2520  -78.5970 ha        1 3RD      0.136000
     36 H13      -443.9680   72.8380  -75.6130 h1        1 3RD      0.077500
     37 O2       -441.4660   77.0110  -82.0540 oh        1 3RD     -0.316000
     38 C7       -443.0000   74.5900  -82.5620 c3        1 3RD     -0.139000
@<TRIPOS>BOND
     1    1   16 1   
     2    1   24 1   
     3    2    3 1   
     4    2    7 1   
     5    2   37 1   
     6    3    4 1   
     7    3   38 1   
     8    4    5 1   
     9    5    6 1   
    10    5   16 1   
    11    6    7 1   
    12    7   17 1   
    13    8    9 1   
    14   10   11 1   
    15   10   22 1   
    16   10   23 1   
    17   12   13 1   
    18   12   14 1   
    19   12   15 1   
    20   18   37 1   
    21   19   38 1   
    22   20   38 1   
    23   21   38 1   
    24   24   29 1   
    25   24   33 1   
    26   24   36 1   
    27   25   26 1   
    28   25   34 1   
    29   26   27 1   
    30   27   28 1   
    31   27   30 1   
    32   28   29 1   
    33   28   35 1   
    34   29   31 1   
    35   30   31 1   
    36   30   32 1   
@<TRIPOS>SUBSTRUCTURE
     1 3RD         1 TEMP              0 ****  ****    0 ROOT
