@<TRIPOS>MOLECULE
3RD
   38    39     1     0     0
SMALL
bcc


@<TRIPOS>ATOM
      1 N1          1.2060   -1.2530   -0.5230 ne        1 3RD     -0.200400
      2 C1         -3.6000   -2.2370    0.2950 cc        1 3RD     -0.016900
      3 C2         -2.5560   -3.0400   -0.2060 cd        1 3RD      0.028800
      4 N2         -1.2850   -2.5950   -0.2720 n2        1 3RD     -0.370000
      5 C3         -1.0260   -1.3150    0.1410 cd        1 3RD      0.235600
      6 C4         -2.0380   -0.4120    0.5640 cc        1 3RD     -0.100200
      7 C5         -3.3660   -0.8890    0.6700 cc        1 3RD     -0.173100
      8 C6         -4.5210    0.0110    0.7770 c1        1 3RD      0.222600
      9 O1         -5.3470    0.0030    1.6920 o         1 3RD     -0.666500
     10 C8         -1.7490    1.0220    0.9160 c3        1 3RD      0.243600
     11 O3         -1.4540    1.7830   -0.2170 os        1 3RD     -0.579200
     12 P1         -2.2850    3.2030   -0.4110 p5        1 3RD      1.435800
     13 O4         -2.5400    3.7430    0.9460 o         1 3RD     -0.855500
     14 O5         -1.6480    3.9970   -1.4840 o         1 3RD     -0.855500
     15 O6         -3.6790    2.5970   -0.9820 oh        1 3RD     -0.805400
     16 N3          0.3660   -0.9100    0.3050 nf        1 3RD     -0.177600
     17 H1         -4.0220    1.8490   -0.4930 ho        1 3RD      0.459000
     18 H2         -5.4350   -2.1610    0.8030 ho        1 3RD      0.426000
     19 H3         -3.4820   -4.3890   -1.5840 hc        1 3RD      0.021700
     20 H4         -1.9560   -5.0390   -0.8440 hc        1 3RD      0.021700
     21 H5         -3.4820   -4.9390    0.1410 hc        1 3RD      0.021700
     22 H6         -2.6370    1.4680    1.4540 h1        1 3RD      0.032700
     23 H7         -0.8610    1.0520    1.6120 h1        1 3RD      0.032700
     24 C9          2.6030   -0.9830   -0.2830 ca        1 3RD      0.092400
     25 C10         3.5170   -1.8940   -0.8580 ca        1 3RD     -0.134500
     26 C11         4.8850   -1.7220   -0.6870 ca        1 3RD     -0.125000
     27 C12         5.3930   -0.6440    0.0470 ca        1 3RD     -0.126600
     28 C13         4.4910    0.2730    0.5940 ca        1 3RD     -0.125000
     29 C14         3.1140    0.1120    0.4380 ca        1 3RD     -0.134500
     30 C15         6.8870   -0.4930    0.2430 c         1 3RD      0.906200
     31 O7          7.3200    0.4640    0.9520 o         1 3RD     -0.855300
     32 O8          7.6600   -1.3370   -0.3050 o         1 3RD     -0.855300
     33 H10         3.1450   -2.7520   -1.4380 ha        1 3RD      0.130500
     34 H11         5.6000   -2.4350   -1.1260 ha        1 3RD      0.137000
     35 H12         4.8920    1.1280    1.1600 ha        1 3RD      0.137000
     36 H13         2.4250    0.8510    0.8760 ha        1 3RD      0.130500
     37 O2         -4.8510   -2.8250    0.4040 oh        1 3RD     -0.549100
     38 C7         -2.8720   -4.4330   -0.6480 c3        1 3RD     -0.014900
@<TRIPOS>BOND
     1    1   16 2   
     2    1   24 1   
     3    2    3 2   
     4    2    7 1   
     5    2   37 1   
     6    3    4 1   
     7    3   38 1   
     8    4    5 1   
     9    5    6 2   
    10    5   16 1   
    11    6    7 1   
    12    6   10 1   
    13    7    8 2   
    14    8    9 2   
    15   10   11 1   
    16   10   22 1   
    17   10   23 1   
    18   11   12 1   
    19   12   13 1   
    20   12   14 1   
    21   12   15 1   
    22   15   17 1   
    23   18   37 1   
    24   19   38 1   
    25   20   38 1   
    26   21   38 1   
    27   24   25 ar  
    28   24   29 ar  
    29   25   26 ar  
    30   25   33 1   
    31   26   27 ar  
    32   26   34 1   
    33   27   28 ar  
    34   27   30 1   
    35   28   29 ar  
    36   28   35 1   
    37   29   36 1   
    38   30   31 1   
    39   30   32 1   
@<TRIPOS>SUBSTRUCTURE
     1 3RD         1 TEMP              0 ****  ****    0 ROOT
