@<TRIPOS>MOLECULE
3RE
   48    51     1     0     0
SMALL
bcc


@<TRIPOS>ATOM
      1 N1         -2.2120    3.7790    0.0630 nb        1 3RE     -0.777000
      2 C2         -0.8110    3.7780    0.0350 ca        1 3RE      0.928900
      3 N3         -0.0110    2.6570    0.0170 nb        1 3RE     -0.822000
      4 C4         -0.6430    1.4380   -0.0200 ca        1 3RE      0.633200
      5 C5         -2.0810    1.3570   -0.0210 ca        1 3RE     -0.424400
      6 C6         -2.8090    2.5830    0.0300 ca        1 3RE      0.539600
      7 N7          0.1190    0.2660   -0.0500 n         1 3RE     -0.426300
      8 C8         -0.5080   -1.0100   -0.0200 c         1 3RE      0.715700
      9 C9         -1.9810   -1.0600   -0.0920 cc        1 3RE     -0.233000
     10 C10        -2.7150    0.0810   -0.0800 cd        1 3RE      0.004800
     11 N11        -0.1790    5.0130   -0.0190 nh        1 3RE     -0.940500
     12 C12        -4.3060    2.5290    0.0490 c3        1 3RE     -0.164400
     13 O13         0.2020   -2.0260    0.0790 o         1 3RE     -0.603500
     14 C14         1.5870    0.3350   -0.0900 c3        1 3RE      0.103700
     15 C15         2.1800   -0.3840   -1.3150 c3        1 3RE     -0.093400
     16 C16         3.6750   -0.1570   -1.3700 c3        1 3RE     -0.087900
     17 C17         4.3430   -0.6640   -0.0950 c3        1 3RE      0.137100
     18 C18         3.7390    0.0030    1.1360 c3        1 3RE     -0.087900
     19 C19         2.2420   -0.2150    1.1890 c3        1 3RE     -0.093400
     20 O20         5.7290   -0.3240   -0.2160 os        1 3RE     -0.423600
     21 C21        -2.6140   -2.3620   -0.1610 cc        1 3RE      0.360100
     22 C22        -3.7430   -2.7880    0.6500 cc        1 3RE     -0.285300
     23 C23        -4.0060   -4.0990    0.2370 cd        1 3RE     -0.153300
     24 N24        -3.0750   -4.3860   -0.7670 na        1 3RE     -0.016600
     25 N25        -2.2470   -3.3750   -1.0080 nd        1 3RE     -0.473800
     26 C26         6.5760   -1.1030    0.6090 c3        1 3RE      0.117700
     27 H10        -3.8160    0.0370   -0.1210 ha        1 3RE      0.145000
     28 HN11       -0.7150    5.8230    0.1770 hn        1 3RE      0.441800
     29 HN1A        0.8010    5.0490    0.1290 hn        1 3RE      0.441800
     30 H12        -4.6680    2.0380   -0.8890 hc        1 3RE      0.063700
     31 H12A       -4.6430    1.9290    0.9300 hc        1 3RE      0.063700
     32 H12B       -4.7650    3.5460    0.1160 hc        1 3RE      0.063700
     33 H14         1.8940    1.4210   -0.1760 h1        1 3RE      0.090700
     34 H15         1.9630   -1.4830   -1.2590 hc        1 3RE      0.062450
     35 H15A        1.7130    0.0120   -2.2540 hc        1 3RE      0.062450
     36 H16         4.1080   -0.6970   -2.2520 hc        1 3RE      0.051450
     37 H16A        3.9050    0.9330   -1.4970 hc        1 3RE      0.051450
     38 H17         4.2280   -1.7810   -0.0200 h1        1 3RE      0.045700
     39 H18         4.2080   -0.4210    2.0610 hc        1 3RE      0.051450
     40 H18A        3.9740    1.0990    1.1120 hc        1 3RE      0.051450
     41 H19         1.8230    0.3070    2.0870 hc        1 3RE      0.062450
     42 H19A        2.0190   -1.3100    1.2900 hc        1 3RE      0.062450
     43 H22        -4.2460   -2.2070    1.4130 ha        1 3RE      0.164000
     44 H23        -4.7530   -4.8200    0.5610 h4        1 3RE      0.175000
     45 H26         6.3390   -0.9410    1.6890 h1        1 3RE      0.031033
     46 H26A        6.4840   -2.1900    0.3600 h1        1 3RE      0.031033
     47 H26B        7.6060   -0.7350    0.3760 h1        1 3RE      0.031033
     48 HN24       -2.9650   -5.2450   -1.2520 hn        1 3RE      0.322700
@<TRIPOS>BOND
     1    1    2 ar  
     2    1    6 ar  
     3    2    3 ar  
     4    2   11 1   
     5    3    4 ar  
     6    4    5 ar  
     7    4    7 1   
     8    5    6 ar  
     9    5   10 1   
    10    6   12 1   
    11    7    8 1   
    12    7   14 1   
    13    8    9 1   
    14    8   13 2   
    15    9   10 2   
    16    9   21 1   
    17   10   27 1   
    18   11   28 1   
    19   11   29 1   
    20   12   30 1   
    21   12   31 1   
    22   12   32 1   
    23   14   15 1   
    24   14   19 1   
    25   14   33 1   
    26   15   16 1   
    27   15   34 1   
    28   15   35 1   
    29   16   17 1   
    30   16   36 1   
    31   16   37 1   
    32   17   18 1   
    33   17   20 1   
    34   17   38 1   
    35   18   19 1   
    36   18   39 1   
    37   18   40 1   
    38   19   41 1   
    39   19   42 1   
    40   20   26 1   
    41   21   22 1   
    42   21   25 2   
    43   22   23 2   
    44   22   43 1   
    45   23   24 1   
    46   23   44 1   
    47   24   25 1   
    48   24   48 1   
    49   26   45 1   
    50   26   46 1   
    51   26   47 1   
@<TRIPOS>SUBSTRUCTURE
     1 3RE         1 TEMP              0 ****  ****    0 ROOT
