@<TRIPOS>MOLECULE
3RE
   48    51     1     0     0
SMALL
bcc


@<TRIPOS>ATOM
      1 N1          0.0180   -0.0390   -0.0860 nb        1 3RE     -0.776000
      2 C2          1.4150    0.0120    0.0060 ca        1 3RE      0.927900
      3 N3          2.1410   -0.0050    1.1750 nb        1 3RE     -0.821000
      4 C4          1.4340   -0.0350    2.3510 ca        1 3RE      0.633200
      5 C5         -0.0060   -0.0680    2.3400 ca        1 3RE     -0.424400
      6 C6         -0.6540   -0.0730    1.0700 ca        1 3RE      0.538600
      7 N7          2.1190   -0.0360    3.5700 n         1 3RE     -0.425300
      8 C8          1.4120   -0.0130    4.8040 c         1 3RE      0.715700
      9 C9         -0.0610   -0.0990    4.7600 cc        1 3RE     -0.233000
     10 C10        -0.7200   -0.1150    3.5740 cd        1 3RE      0.004800
     11 N11         2.1230    0.1330   -1.1830 nv        1 3RE     -0.939500
     12 C12        -2.1510   -0.1240    1.0260 c3        1 3RE     -0.164400
     13 O13         2.0550    0.0920    5.8630 o         1 3RE     -0.604500
     14 C14         3.5890   -0.0330    3.5950 c3        1 3RE      0.103700
     15 C15         4.1710   -1.2440    4.3470 c3        1 3RE     -0.093900
     16 C16         5.6780   -1.2550    4.2160 c3        1 3RE     -0.087900
     17 C17         6.2760    0.0370    4.7660 c3        1 3RE      0.137100
     18 C18         5.6790    1.2530    4.0660 c3        1 3RE     -0.087900
     19 C19         4.1710    1.2620    4.1890 c3        1 3RE     -0.093900
     20 O20         7.6840   -0.0440    4.5150 os        1 3RE     -0.423600
     21 C21        -0.7750   -0.1520    6.0200 cc        1 3RE      0.360100
     22 C22        -1.9260    0.6660    6.3640 cc        1 3RE     -0.284300
     23 C23        -2.2730    0.2680    7.6600 cd        1 3RE     -0.153300
     24 N24        -1.3650   -0.7340    8.0170 na        1 3RE     -0.017600
     25 N25        -0.4760   -0.9880    7.0630 nd        1 3RE     -0.473800
     26 C26         8.4550    0.8050    5.3440 c3        1 3RE      0.117700
     27 H10        -1.8210   -0.1670    3.5480 ha        1 3RE      0.145000
     28 HN11        3.1040   -0.0040   -1.1630 hn        1 3RE      0.441300
     29 HN1A        1.6420   -0.0400   -2.0330 hn        1 3RE      0.441300
     30 H12        -2.5440   -0.1200   -0.0200 hc        1 3RE      0.063700
     31 H12A       -2.5030   -1.0560    1.5340 hc        1 3RE      0.063700
     32 H12B       -2.5650    0.7650    1.5640 hc        1 3RE      0.063700
     33 H14         3.9680   -0.1040    2.5300 h1        1 3RE      0.090700
     34 H15         3.8830   -1.1970    5.4310 hc        1 3RE      0.062450
     35 H15A        3.7570   -2.1940    3.9210 hc        1 3RE      0.062450
     36 H16         6.1010   -2.1260    4.7810 hc        1 3RE      0.051450
     37 H16A        5.9800   -1.3710    3.1430 hc        1 3RE      0.051450
     38 H17         6.0880    0.1040    5.8740 h1        1 3RE      0.045700
     39 H18         5.9840    1.2400    2.9860 hc        1 3RE      0.051450
     40 H18A        6.0940    2.1890    4.5210 hc        1 3RE      0.051450
     41 H19         3.7600    2.1500    3.6430 hc        1 3RE      0.062450
     42 H19A        3.8770    1.3520    5.2680 hc        1 3RE      0.062450
     43 H22        -2.3900    1.4230    5.7440 ha        1 3RE      0.164000
     44 H23        -3.0630    0.6030    8.3290 h4        1 3RE      0.175000
     45 H26         8.1990    1.8780    5.1640 h1        1 3RE      0.031033
     46 H26A        8.3020    0.5550    6.4230 h1        1 3RE      0.031033
     47 H26B        9.5130    0.6020    5.0420 h1        1 3RE      0.031033
     48 HN24       -1.3100   -1.2090    8.8870 hn        1 3RE      0.321700
@<TRIPOS>BOND
     1    1    2 ar  
     2    1    6 ar  
     3    2    3 ar  
     4    2   11 1   
     5    3    4 ar  
     6    4    5 ar  
     7    4    7 1   
     8    5    6 ar  
     9    5   10 1   
    10    6   12 1   
    11    7    8 1   
    12    7   14 1   
    13    8    9 1   
    14    8   13 2   
    15    9   10 2   
    16    9   21 1   
    17   10   27 1   
    18   11   28 1   
    19   11   29 1   
    20   12   30 1   
    21   12   31 1   
    22   12   32 1   
    23   14   15 1   
    24   14   19 1   
    25   14   33 1   
    26   15   16 1   
    27   15   34 1   
    28   15   35 1   
    29   16   17 1   
    30   16   36 1   
    31   16   37 1   
    32   17   18 1   
    33   17   20 1   
    34   17   38 1   
    35   18   19 1   
    36   18   39 1   
    37   18   40 1   
    38   19   41 1   
    39   19   42 1   
    40   20   26 1   
    41   21   22 1   
    42   21   25 2   
    43   22   23 2   
    44   22   43 1   
    45   23   24 1   
    46   23   44 1   
    47   24   25 1   
    48   24   48 1   
    49   26   45 1   
    50   26   46 1   
    51   26   47 1   
@<TRIPOS>SUBSTRUCTURE
     1 3RE         1 TEMP              0 ****  ****    0 ROOT
