@<TRIPOS>MOLECULE
3RE
   48    45     1     0     0
SMALL
bcc


@<TRIPOS>ATOM
      1 N1         -2.4580    0.0780   -3.9560 n1        1 3RE     -0.575800
      2 C2         -1.0910    0.2340   -4.0180 c1        1 3RE      0.590600
      3 N3         -0.3380    0.2740   -2.8450 n1        1 3RE     -0.620800
      4 C4         -0.9540    0.1600   -1.6380 c1        1 3RE      0.225000
      5 C5         -2.3380    0.0030   -1.5790 c1        1 3RE     -0.218900
      6 C6         -3.0800   -0.0360   -2.7480 c1        1 3RE      0.469700
      7 N7         -0.1340    0.1540   -0.3660 n         1 3RE     -0.345400
      8 C8         -0.7990    0.1280    0.9300 c         1 3RE      0.679300
      9 C9         -2.2570    0.0170    1.0030 ce        1 3RE     -0.123200
     10 C10        -3.0400   -0.0720   -0.2250 ce        1 3RE     -0.070100
     11 N11        -0.3610    0.0700   -5.2100 n3        1 3RE     -0.802400
     12 C12        -4.4650    0.2060   -3.3810 c3        1 3RE     -0.097000
     13 O13        -0.1270    0.2070    1.9800 o         1 3RE     -0.567100
     14 C14         1.2880    0.0210   -0.4420 c3        1 3RE      0.103700
     15 C15         1.7100   -1.2200    0.3400 c3        1 3RE     -0.093400
     16 C16         3.2180   -1.3370    0.4750 c3        1 3RE     -0.087900
     17 C17         3.8460   -0.0720    1.0140 c3        1 3RE      0.137100
     18 C18         3.4230    1.1700    0.2300 c3        1 3RE     -0.087900
     19 C19         1.9170    1.2840    0.0950 c3        1 3RE     -0.093400
     20 O20         5.2610   -0.1910    0.9520 os        1 3RE     -0.423600
     21 C21        -2.9570   -0.0090    2.3650 cf        1 3RE      0.095900
     22 C22        -3.5780   -1.0790    2.9190 ch        1 3RE     -0.252300
     23 C23        -4.2000   -0.6560    4.0840 cg        1 3RE     -0.077000
     24 N24        -3.9560    0.6590    4.2300 ne        1 3RE     -0.213000
     25 N25        -3.1840    1.0710    3.1670 nf        1 3RE     -0.182600
     26 C26         5.9190    0.0970    2.1800 c3        1 3RE      0.117700
     27 H10        -4.0450   -0.1500   -0.1790 ha        1 3RE      0.145000
     28 HN11       -0.8160   -0.1330   -6.0230 hn        1 3RE      0.441800
     29 HN1A        0.5400    0.1000   -5.1930 hn        1 3RE      0.441800
     30 H12        -5.1140    0.1670   -2.7230 hc        1 3RE      0.063700
     31 H12A       -4.6350   -0.4560   -4.0300 hc        1 3RE      0.063700
     32 H12B       -4.4820    1.1020   -3.8090 hc        1 3RE      0.063700
     33 H14         1.5500   -0.0900   -1.3940 h1        1 3RE      0.090700
     34 H15         1.3790   -2.0020   -0.1180 hc        1 3RE      0.062450
     35 H15A        1.2970   -1.1790    1.2730 hc        1 3RE      0.062450
     36 H16         3.6220   -1.5390   -0.4430 hc        1 3RE      0.051450
     37 H16A        3.4280   -2.0920    1.0960 hc        1 3RE      0.051450
     38 H17         3.5840    0.0360    1.9240 h1        1 3RE      0.045700
     39 H18         3.7640    1.9710    0.6900 hc        1 3RE      0.051450
     40 H18A        3.8200    1.1250   -0.6670 hc        1 3RE      0.051450
     41 H19         1.7080    2.0310   -0.5150 hc        1 3RE      0.062450
     42 H19A        1.5350    1.4740    0.9720 hc        1 3RE      0.062450
     43 H22        -3.5850   -1.9840    2.5630 DU        1 3RE      0.203667
     44 H23        -4.7500   -1.2410    4.7210 DU        1 3RE      0.203667
     45 H26         5.6310   -0.5380    2.8580 h1        1 3RE      0.030700
     46 H26A        5.6890    1.0330    2.4750 h1        1 3RE      0.030700
     47 H26B        6.8620    0.0260    2.0580 h1        1 3RE      0.030700
     48 HN24       -4.2470    1.1810    4.9070 DU        1 3RE      0.203667
@<TRIPOS>BOND
     1    1    6 3   
     2    2    3 3   
     3    2   11 1   
     4    4    5 2   
     5    4    7 2   
     6    5   10 2   
     7    6   12 1   
     8    7    8 1   
     9    7   14 1   
    10    8    9 1   
    11    8   13 2   
    12    9   10 1   
    13    9   21 2   
    14   10   27 1   
    15   11   28 1   
    16   11   29 1   
    17   12   30 1   
    18   12   31 1   
    19   12   32 1   
    20   14   15 1   
    21   14   19 1   
    22   14   33 1   
    23   15   16 1   
    24   15   34 1   
    25   15   35 1   
    26   16   17 1   
    27   16   36 1   
    28   16   37 1   
    29   17   18 1   
    30   17   20 1   
    31   17   38 1   
    32   18   19 1   
    33   18   39 1   
    34   18   40 1   
    35   19   41 1   
    36   19   42 1   
    37   20   26 1   
    38   21   22 1   
    39   21   25 1   
    40   22   23 3   
    41   23   24 1   
    42   24   25 2   
    43   26   45 1   
    44   26   46 1   
    45   26   47 1   
@<TRIPOS>SUBSTRUCTURE
     1 3RE         1 TEMP              0 ****  ****    0 ROOT
