@<TRIPOS>MOLECULE
3RE
   48    51     1     0     0
SMALL
bcc


@<TRIPOS>ATOM
      1 N1         -0.0070    0.0650   -0.0820 nb        1 3RE     -0.776000
      2 C2          1.3920    0.0590    0.0000 ca        1 3RE      0.927900
      3 N3          2.1250    0.0240    1.1650 nb        1 3RE     -0.821000
      4 C4          1.4250    0.0400    2.3460 ca        1 3RE      0.633200
      5 C5         -0.0150    0.0740    2.3450 ca        1 3RE     -0.424400
      6 C6         -0.6710    0.0780    1.0790 ca        1 3RE      0.539600
      7 N7          2.1180    0.0160    3.5610 n         1 3RE     -0.425300
      8 C8          1.4180   -0.0370    4.7970 c         1 3RE      0.715700
      9 C9         -0.0540    0.0690    4.7640 cc        1 3RE     -0.233000
     10 C10        -0.7200    0.1100    3.5840 cd        1 3RE      0.004800
     11 N11         2.0960    0.1350   -1.1940 nh        1 3RE     -0.939500
     12 C12        -2.1690    0.0940    1.0460 c3        1 3RE     -0.164400
     13 O13         2.0650   -0.1840    5.8480 o         1 3RE     -0.603500
     14 C14         3.5880    0.0200    3.5770 c3        1 3RE      0.103700
     15 C15         4.1800   -1.2930    4.1200 c3        1 3RE     -0.093400
     16 C16         5.6860   -1.2760    3.9830 c3        1 3RE     -0.087900
     17 C17         6.2820   -0.0860    4.7290 c3        1 3RE      0.137100
     18 C18         5.6760    1.2240    4.2340 c3        1 3RE     -0.087900
     19 C19         4.1690    1.2050    4.3690 c3        1 3RE     -0.093400
     20 O20         7.6880   -0.1190    4.4600 os        1 3RE     -0.423600
     21 C21        -0.7600    0.1140    6.0300 cc        1 3RE      0.360100
     22 C22        -1.9280   -0.6820    6.3640 cc        1 3RE     -0.284300
     23 C23        -2.2580   -0.3020    7.6710 cd        1 3RE     -0.153300
     24 N24        -1.3240    0.6690    8.0420 na        1 3RE     -0.016600
     25 N25        -0.4330    0.9210    7.0880 nd        1 3RE     -0.474800
     26 C26         8.4610    0.5940    5.4080 c3        1 3RE      0.117700
     27 H10        -1.8210    0.1770    3.5660 ha        1 3RE      0.145000
     28 HN11        3.0710   -0.0420   -1.1790 hn        1 3RE      0.441800
     29 HN1A        1.6030   -0.0290   -2.0390 hn        1 3RE      0.441800
     30 H12        -2.5600   -0.7970    1.5970 hc        1 3RE      0.063700
     31 H12A       -2.5700    0.0700    0.0020 hc        1 3RE      0.063700
     32 H12B       -2.5370    1.0240    1.5450 hc        1 3RE      0.063700
     33 H14         3.9600    0.1330    2.5130 h1        1 3RE      0.090700
     34 H15         3.8940   -1.4220    5.1970 hc        1 3RE      0.062450
     35 H15A        3.7680   -2.1630    3.5460 hc        1 3RE      0.062450
     36 H16         5.9830   -1.2190    2.9040 hc        1 3RE      0.051450
     37 H16A        6.1150   -2.2240    4.4010 hc        1 3RE      0.051450
     38 H17         6.1010   -0.1960    5.8350 h1        1 3RE      0.045700
     39 H18         6.0900    2.0780    4.8290 hc        1 3RE      0.051450
     40 H18A        5.9720    1.3830    3.1650 hc        1 3RE      0.051450
     41 H19         3.7500    2.1680    3.9770 hc        1 3RE      0.062450
     42 H19A        3.8850    1.1200    5.4510 hc        1 3RE      0.062450
     43 H22        -2.4130   -1.4150    5.7320 ha        1 3RE      0.164000
     44 H23        -3.0530   -0.6310    8.3380 h4        1 3RE      0.175000
     45 H26         8.2000    1.6810    5.4000 h1        1 3RE      0.031033
     46 H26A        9.5180    0.4450    5.0730 h1        1 3RE      0.031033
     47 H26B        8.3150    0.1770    6.4360 h1        1 3RE      0.031033
     48 HN24       -1.2520    1.1260    8.9210 hn        1 3RE      0.321700
@<TRIPOS>BOND
     1    1    2 ar  
     2    1    6 ar  
     3    2    3 ar  
     4    2   11 1   
     5    3    4 ar  
     6    4    5 ar  
     7    4    7 1   
     8    5    6 ar  
     9    5   10 1   
    10    6   12 1   
    11    7    8 1   
    12    7   14 1   
    13    8    9 1   
    14    8   13 2   
    15    9   10 2   
    16    9   21 1   
    17   10   27 1   
    18   11   28 1   
    19   11   29 1   
    20   12   30 1   
    21   12   31 1   
    22   12   32 1   
    23   14   15 1   
    24   14   19 1   
    25   14   33 1   
    26   15   16 1   
    27   15   34 1   
    28   15   35 1   
    29   16   17 1   
    30   16   36 1   
    31   16   37 1   
    32   17   18 1   
    33   17   20 1   
    34   17   38 1   
    35   18   19 1   
    36   18   39 1   
    37   18   40 1   
    38   19   41 1   
    39   19   42 1   
    40   20   26 1   
    41   21   22 1   
    42   21   25 2   
    43   22   23 2   
    44   22   43 1   
    45   23   24 1   
    46   23   44 1   
    47   24   25 1   
    48   24   48 1   
    49   26   45 1   
    50   26   46 1   
    51   26   47 1   
@<TRIPOS>SUBSTRUCTURE
     1 3RE         1 TEMP              0 ****  ****    0 ROOT
