@<TRIPOS>MOLECULE
3RE
   49    52     1     0     0
SMALL
bcc


@<TRIPOS>ATOM
      1 N1          0.0070   -0.0430   -0.0870 nb        1 3RE     -0.716000
      2 C2          1.3670   -0.0550    0.0410 ca        1 3RE      0.734900
      3 N3          2.1270   -0.0460    1.1650 nb        1 3RE     -0.741000
      4 C4          1.4290   -0.0150    2.3610 ca        1 3RE      0.612200
      5 C5         -0.0210    0.0100    2.3370 ca        1 3RE     -0.297400
      6 C6         -0.6820   -0.0090    1.0830 ca        1 3RE      0.524600
      7 N7          2.1120   -0.0100    3.5640 n         1 3RE     -0.415300
      8 C8          1.3970   -0.1490    4.8000 c         1 3RE      0.700700
      9 C9         -0.0760    0.0320    4.7630 cc        1 3RE     -0.120000
     10 C10        -0.7340    0.0800    3.5790 cd        1 3RE     -0.079200
     11 N11         2.1350   -0.0870   -1.2450 n4        1 3RE     -0.818300
     12 C12        -2.1750    0.0120    1.0250 c3        1 3RE     -0.171400
     13 O13         2.0330   -0.4270    5.8210 o         1 3RE     -0.525500
     14 C14         3.5850    0.0560    3.6000 c3        1 3RE      0.096700
     15 C15         4.2300   -1.2840    3.9930 c3        1 3RE     -0.092400
     16 C16         5.7330   -1.1850    3.8520 c3        1 3RE     -0.092400
     17 C17         6.2930   -0.0530    4.7110 c3        1 3RE      0.138100
     18 C18         5.6080    1.2730    4.3920 c3        1 3RE     -0.092400
     19 C19         4.1050    1.1620    4.5350 c3        1 3RE     -0.092400
     20 O20         7.6830    0.0290    4.3870 os        1 3RE     -0.421600
     21 C21        -0.7760    0.1330    6.0230 cc        1 3RE      0.305100
     22 C22        -2.0930   -0.4100    6.3010 cc        1 3RE     -0.268300
     23 C23        -2.3480   -0.0600    7.6330 cd        1 3RE     -0.135300
     24 N24        -1.2280    0.6560    8.0710 na        1 3RE      0.008400
     25 N25        -0.2950    0.7740    7.1400 nd        1 3RE     -0.453800
     26 C26         8.4750    0.5910    5.4210 c3        1 3RE      0.114700
     27 H10        -1.8320    0.1860    3.5510 ha        1 3RE      0.169000
     28 HN11        2.7730   -0.8920   -1.2390 hn        1 3RE      0.478800
     29 HN1A        2.6800    0.7790   -1.3290 hn        1 3RE      0.478800
     30 H12        -2.5790   -0.8610    1.5980 hc        1 3RE      0.083700
     31 H12A       -2.5490    0.9590    1.4910 hc        1 3RE      0.083700
     32 H12B       -2.5620   -0.0430   -0.0240 hc        1 3RE      0.083700
     33 H14         3.9550    0.3190    2.5640 h1        1 3RE      0.075700
     34 H15         3.8500   -2.1060    3.3330 hc        1 3RE      0.065200
     35 H15A        3.9600   -1.5380    5.0520 hc        1 3RE      0.065200
     36 H16         6.2050   -2.1520    4.1690 hc        1 3RE      0.058450
     37 H16A        6.0180   -1.0080    2.7820 hc        1 3RE      0.058450
     38 H17         6.1590   -0.2990    5.8010 h1        1 3RE      0.052700
     39 H18         5.9870    2.0650    5.0890 hc        1 3RE      0.058450
     40 H18A        5.8820    1.5850    3.3510 hc        1 3RE      0.058450
     41 H19         3.6320    2.1430    4.2750 hc        1 3RE      0.065200
     42 H19A        3.8440    0.9240    5.6010 hc        1 3RE      0.065200
     43 H22        -2.7220   -0.9780    5.6260 ha        1 3RE      0.169000
     44 H23        -3.2040   -0.2540    8.2800 h4        1 3RE      0.193000
     45 H26         8.1580    1.6400    5.6360 h1        1 3RE      0.039033
     46 H26A        8.4080   -0.0270    6.3500 h1        1 3RE      0.039033
     47 H26B        9.5150    0.5710    5.0100 h1        1 3RE      0.039033
     48 HN24       -1.0800    1.0440    8.9770 hn        1 3RE      0.338700
     49 H113        1.4840   -0.1660   -2.0370 hn        1 3RE      0.478800
@<TRIPOS>BOND
     1    1    2 ar  
     2    1    6 ar  
     3    2    3 ar  
     4    2   11 1   
     5    3    4 ar  
     6    4    5 ar  
     7    4    7 1   
     8    5    6 ar  
     9    5   10 1   
    10    6   12 1   
    11    7    8 1   
    12    7   14 1   
    13    8    9 1   
    14    8   13 2   
    15    9   10 2   
    16    9   21 1   
    17   10   27 1   
    18   11   28 1   
    19   11   29 1   
    20   11   49 1   
    21   12   30 1   
    22   12   31 1   
    23   12   32 1   
    24   14   15 1   
    25   14   19 1   
    26   14   33 1   
    27   15   16 1   
    28   15   34 1   
    29   15   35 1   
    30   16   17 1   
    31   16   36 1   
    32   16   37 1   
    33   17   18 1   
    34   17   20 1   
    35   17   38 1   
    36   18   19 1   
    37   18   39 1   
    38   18   40 1   
    39   19   41 1   
    40   19   42 1   
    41   20   26 1   
    42   21   22 1   
    43   21   25 2   
    44   22   23 2   
    45   22   43 1   
    46   23   24 1   
    47   23   44 1   
    48   24   25 1   
    49   24   48 1   
    50   26   45 1   
    51   26   46 1   
    52   26   47 1   
@<TRIPOS>SUBSTRUCTURE
     1 3RE         1 TEMP              0 ****  ****    0 ROOT
