@<TRIPOS>MOLECULE
3RF
   46    46     1     0     0
SMALL
bcc


@<TRIPOS>ATOM
      1 C13         1.1840    0.6400   -6.3440 c1        1 3RF     -0.177000
      2 C15         2.4200    0.2160   -4.0940 c2        1 3RF     -0.031000
      3 C17         3.8740   -0.5210   -0.0410 c2        1 3RF      0.196000
      4 C22         4.5150    0.3280    4.5300 c2        1 3RF     -0.110000
      5 C24         5.8320    2.6260    6.1930 c1        1 3RF     -0.057000
      6 C26         3.6120    0.7260    3.4780 c2        1 3RF     -0.277000
      7 C02         3.5130    4.8170    1.7450 c2        1 3RF      0.064000
      8 C03         5.4300   -6.7510   -3.1990 c3        1 3RF     -0.096000
      9 C04         5.4580   -5.6240   -2.3300 c1        1 3RF     -0.150000
     10 C05         4.3760    5.6220    2.5390 c1        1 3RF     -0.221000
     11 C06         5.0950    6.3180    3.1950 c1        1 3RF     -0.136000
     12 C07         5.4950   -4.6810   -1.5900 c1        1 3RF     -0.087000
     13 C09         4.7170   -2.5000   -0.9510 c2        1 3RF      0.180000
     14 N10         4.0800   -2.3400   -2.1640 n2        1 3RF     -0.205000
     15 C11         3.3340   -1.2120   -2.3020 c2        1 3RF      0.104000
     16 C12         3.1900   -0.2670   -1.2720 c2        1 3RF     -0.316000
     17 C14         1.7510    0.4320   -5.3090 c1        1 3RF     -0.148000
     18 C16         2.6380   -1.0070   -3.5810 c2        1 3RF     -0.106000
     19 N18         3.7780    0.4320    0.9760 nu        1 3RF     -0.240000
     20 C19         4.2090    0.2370    2.2860 c2        1 3RF      0.062000
     21 N20         5.4180   -0.3780    2.6810 na        1 3RF     -0.141000
     22 N21         5.5730   -0.3600    4.0020 n2        1 3RF     -0.090000
     23 C23         4.3110    0.5970    5.9710 c3        1 3RF     -0.112000
     24 C25         5.4940    1.2890    6.6210 c3        1 3RF     -0.249000
     25 N27         4.6320   -1.6430    0.1340 n2        1 3RF     -0.293000
     26 H131        2.5700    0.6260   -1.4090 ha        1 3RF      0.160000
     27 H151        2.3150   -1.9210   -4.1090 ha        1 3RF      0.159000
     28 H241        5.2710    3.0300    5.3350 ha        1 3RF      0.036000
     29 H242        3.3930    1.2330    6.0870 hc        1 3RF      0.094000
     30 H261        2.6790    1.2650    3.5800 ha        1 3RF      0.170000
     31 H011        3.8760    3.0300    2.4420 hn        1 3RF      0.155000
     32 H012        2.7710    1.1330   -3.5820 ha        1 3RF      0.143000
     33 H031        4.9120   -7.6170   -2.7110 hc        1 3RF      0.094333
     34 H041        4.8790   -6.4940   -4.1420 hc        1 3RF      0.094333
     35 H051        6.4710   -7.0670   -3.4710 hc        1 3RF      0.094333
     36 H061        5.7340    6.9310    3.7800 ha        1 3RF      0.230000
     37 H081        5.8500   -3.8160    0.1630 hn        1 3RF      0.244000
     38 H141        0.6830    0.8260   -7.2600 ha        1 3RF      0.227000
     39 H161        2.9150    5.3910    1.0000 h4        1 3RF      0.155000
     40 H181        3.0650    1.1240    0.8660 hn        1 3RF      0.270000
     41 H211        6.0060   -0.9520    2.1180 hn        1 3RF      0.290000
     42 H231        4.1130   -0.3760    6.4990 hc        1 3RF      0.094000
     43 H251        6.4370    0.6790    6.4660 hc        1 3RF      0.152500
     44 H252        5.3350    1.3250    7.7390 hc        1 3RF      0.152500
     45 N08         5.6060   -3.6000   -0.7870 nu        1 3RF     -0.131000
     46 N01         3.3410    3.5510    1.7760 n2        1 3RF     -0.248000
@<TRIPOS>BOND
     1    1   17 1   
     2    1   38 1   
     3    2   17 1   
     4    2   18 1   
     5    2   32 1   
     6    3   16 1   
     7    3   19 1   
     8    3   25 1   
     9    4    6 1   
    10    4   22 1   
    11    4   23 1   
    12    5   24 1   
    13    5   28 1   
    14    6   20 1   
    15    6   30 1   
    16    7   10 1   
    17    7   39 1   
    18    7   46 1   
    19    8    9 1   
    20    8   33 1   
    21    8   34 1   
    22    8   35 1   
    23    9   12 1   
    24   10   11 1   
    25   11   36 1   
    26   12   45 1   
    27   13   14 1   
    28   13   25 1   
    29   13   45 1   
    30   14   15 1   
    31   15   16 1   
    32   15   18 1   
    33   16   26 1   
    34   18   27 1   
    35   19   20 1   
    36   19   40 1   
    37   20   21 1   
    38   21   22 1   
    39   21   41 1   
    40   23   24 1   
    41   23   29 1   
    42   23   42 1   
    43   24   43 1   
    44   24   44 1   
    45   31   46 1   
    46   37   45 1   
@<TRIPOS>SUBSTRUCTURE
     1 3RF         1 TEMP              0 ****  ****    0 ROOT
