@<TRIPOS>MOLECULE
3RF
   46    45     1     0     0
SMALL
bcc


@<TRIPOS>ATOM
      1 C13        -3.9710    1.0050   -1.7530 c1        1 3RF      0.378000
      2 C15        -1.6200    0.6340   -1.5320 c1        1 3RF     -0.031000
      3 C17         1.6730   -0.1180    0.9800 c2        1 3RF      0.149000
      4 C22         4.2810   -0.5960    4.5800 c2        1 3RF     -0.168000
      5 C24         6.7580   -0.6220    7.3690 c2        1 3RF     -0.219000
      6 C26         3.6630   -1.0240    3.3480 c2        1 3RF     -0.189000
      7 C02         9.9680    0.4040   -3.5160 c3        1 3RF      0.020000
      8 C03         4.6700   -3.5020   -1.2030 c1        1 3RF     -0.131000
      9 C04         4.8750   -2.3340   -1.3690 c1        1 3RF     -0.202000
     10 C05         8.6790    0.8850   -3.0640 c1        1 3RF     -0.229000
     11 C06         7.6040    1.2680   -2.7030 c1        1 3RF     -0.202000
     12 C07         5.1540   -0.9600   -1.5750 c2        1 3RF      0.096000
     13 C09         3.0820   -0.0020   -0.8730 c2        1 3RF      0.107000
     14 N10         2.0580    0.1950   -1.7710 n2        1 3RF     -0.198000
     15 C11         0.8070    0.2570   -1.2470 c2        1 3RF      0.059000
     16 C12         0.5520    0.1160    0.1240 c2        1 3RF     -0.265000
     17 C14        -2.7790    0.8580   -2.3200 c2        1 3RF     -0.543000
     18 C16        -0.3340    0.4810   -2.2050 c3        1 3RF     -0.169000
     19 N18         1.4200   -0.3660    2.3450 nh        1 3RF     -0.215000
     20 C19         2.4440   -0.3130    3.2950 c2        1 3RF      0.026000
     21 N20         2.4330    0.5280    4.4500 na        1 3RF     -0.185000
     22 N21         3.4910    0.2980    5.2260 n2        1 3RF     -0.097000
     23 C23         7.4370   -0.8600    6.2370 c2        1 3RF     -0.252000
     24 C25         6.2320    0.6060    7.8010 c1        1 3RF     -0.024000
     25 N27         2.9450   -0.1800    0.4880 n2        1 3RF     -0.210000
     26 H131       -0.4780    0.1810    0.5030 ha        1 3RF      0.186000
     27 H151       -0.3760   -0.3900   -2.9260 hc        1 3RF      0.136000
     28 H241        6.6850   -1.4080    8.1530 ha        1 3RF      0.165000
     29 H242        7.9570   -1.8090    6.0630 ha        1 3RF      0.116500
     30 H261        4.0550   -1.7180    2.6150 ha        1 3RF      0.180000
     31 H011       11.1970    1.0920   -2.0530 hn        1 3RF      0.147000
     32 H012       11.1140    2.0720   -3.3500 hn        1 3RF      0.147000
     33 H031        4.4890   -4.5380   -1.0560 ha        1 3RF      0.229000
     34 H041        9.9790    0.4260   -4.6470 h1        1 3RF      0.107500
     35 H051       10.0760   -0.6770   -3.1970 h1        1 3RF      0.107500
     36 H061        6.1770   -0.7440   -1.9710 h4        1 3RF      0.176000
     37 H081        6.6510    1.6140   -2.3840 ha        1 3RF      0.236000
     38 H141       -2.7180    0.9160   -3.4310 ha        1 3RF      0.174000
     39 H161       -0.1140    1.3960   -2.8320 hc        1 3RF      0.136000
     40 H181        0.5250   -0.0380    2.6480 hn        1 3RF      0.224000
     41 H211        1.6320    0.9680    4.8410 hn        1 3RF      0.257000
     42 H231        5.2470   -0.9130    4.9850 h4        1 3RF      0.186000
     43 H251        5.3560    1.0590    7.3260 ha        1 3RF      0.099000
     44 H252        7.5660   -0.1040    5.4540 ha        1 3RF      0.116500
     45 N08         4.4220    0.0780   -1.3880 n2        1 3RF     -0.105000
     46 N01        11.1320    1.1160   -3.0510 n3        1 3RF     -0.333000
@<TRIPOS>BOND
     1    1   17 1   
     2    2   17 1   
     3    2   18 1   
     4    3   16 1   
     5    3   19 1   
     6    3   25 1   
     7    4    6 1   
     8    4   22 1   
     9    4   42 1   
    10    5   23 1   
    11    5   24 1   
    12    5   28 1   
    13    6   20 1   
    14    6   30 1   
    15    7   10 1   
    16    7   34 1   
    17    7   35 1   
    18    7   46 1   
    19    8    9 1   
    20    8   33 1   
    21    9   12 1   
    22   10   11 1   
    23   11   37 1   
    24   12   36 1   
    25   12   45 1   
    26   13   14 1   
    27   13   25 1   
    28   13   45 1   
    29   14   15 1   
    30   15   16 1   
    31   15   18 1   
    32   16   26 1   
    33   17   38 1   
    34   18   27 1   
    35   18   39 1   
    36   19   20 1   
    37   19   40 1   
    38   20   21 1   
    39   21   22 1   
    40   21   41 1   
    41   23   29 1   
    42   23   44 1   
    43   24   43 1   
    44   31   46 1   
    45   32   46 1   
@<TRIPOS>SUBSTRUCTURE
     1 3RF         1 TEMP              0 ****  ****    0 ROOT
