@<TRIPOS>MOLECULE
3RG
   21    17     1     0     0
SMALL
bcc


@<TRIPOS>ATOM
      1 C           2.0470    2.7960   -0.5420 c1        1 3RG      0.328000
      2 N           0.5470    1.1380    0.3240 n3        1 3RG     -0.287000
      3 O           2.0000    3.7660    0.2590 o         1 3RG     -0.614000
      4 CA          0.8060    1.9690   -0.8010 c3        1 3RG     -0.097000
      5 OAB         1.8360   -1.8940    1.9510 o         1 3RG     -0.585000
      6 OAD         2.2820   -2.1080   -0.1730 o         1 3RG     -0.585000
      7 CAE        -2.5700   -0.7980   -0.1340 c1        1 3RG     -0.180000
      8 CAF        -2.1110   -2.0910    0.0640 c1        1 3RG     -0.180000
      9 CAG        -1.6880    0.2690   -0.0630 c1        1 3RG     -0.180000
     10 CAH        -0.7700   -2.3170    0.3330 c1        1 3RG     -0.180000
     11 CAL         1.4880   -1.7780    0.7460 c2        1 3RG      0.360000
     12 CAM        -0.3470    0.0430    0.2060 c1        1 3RG      0.158000
     13 CAN         0.1120   -1.2500    0.4040 c1        1 3RG     -0.185000
     14 OXT         3.1300    2.5000   -1.1100 os        1 3RG     -0.556000
     15 HN          0.9520    1.3120    1.1230 hn        1 3RG      0.284000
     16 HA          0.0430    2.5640   -0.9510 h1        1 3RG      0.049000
     17 HAA         0.9460    1.4110   -1.5930 h1        1 3RG      0.049000
     18 HAE        -3.5120   -0.6400   -0.3310 ha        1 3RG      0.100250
     19 HAF        -2.7320   -2.8430    0.0140 ha        1 3RG      0.100250
     20 HAG        -2.0130    1.1800   -0.1920 ha        1 3RG      0.100250
     21 HAH        -0.4460   -3.2280    0.4650 ha        1 3RG      0.100250
@<TRIPOS>BOND
     1    1    3 1   
     2    1    4 1   
     3    2    4 1   
     4    2   12 1   
     5    2   15 1   
     6    4   16 1   
     7    4   17 1   
     8    5   11 1   
     9    6   11 1   
    10    7    9 1   
    11    7   18 1   
    12    8   10 1   
    13    8   19 1   
    14    9   20 1   
    15   10   21 1   
    16   11   13 1   
    17   12   13 1   
@<TRIPOS>SUBSTRUCTURE
     1 3RG         1 TEMP              0 ****  ****    0 ROOT
