@<TRIPOS>MOLECULE
3RG
   21    21     1     0     0
SMALL
bcc


@<TRIPOS>ATOM
      1 C          -0.0780   -0.0810   -0.1330 c         1 3RG      0.908600
      2 N           0.2220   -0.1730    2.3960 nh        1 3RG     -0.731600
      3 O           1.1630    0.0010   -0.3270 o         1 3RG     -0.850300
      4 CA         -0.6780    0.0110    1.2940 c3        1 3RG      0.089800
      5 OAB         2.8160   -0.7430    5.6380 o         1 3RG     -0.850300
      6 OAD         2.7540    0.2990    3.6780 o         1 3RG     -0.850300
      7 CAE        -2.0920    0.1330    5.2750 ca        1 3RG     -0.105000
      8 CAF        -1.2210    0.0440    6.3520 ca        1 3RG     -0.265000
      9 CAG        -1.6170    0.0920    3.9710 ca        1 3RG     -0.276000
     10 CAH         0.1490   -0.0790    6.0990 ca        1 3RG     -0.073000
     11 CAL         2.1750   -0.1990    4.6860 c         1 3RG      0.911200
     12 CAM        -0.2250   -0.0450    3.6890 ca        1 3RG      0.239600
     13 CAN         0.6660   -0.1110    4.8110 ca        1 3RG     -0.205600
     14 OXT        -0.9300   -0.2100   -1.0650 o         1 3RG     -0.850300
     15 HN          1.2070   -0.0770    2.2200 hn        1 3RG      0.488800
     16 HA         -1.4900   -0.7700    1.3570 h1        1 3RG      0.010200
     17 HAA        -1.1810    1.0210    1.3610 h1        1 3RG      0.010200
     18 HAE        -3.1730    0.2380    5.4480 ha        1 3RG      0.077000
     19 HAF        -1.5950    0.0690    7.3820 ha        1 3RG      0.083000
     20 HAG        -2.3410    0.1670    3.1470 ha        1 3RG      0.112000
     21 HAH         0.8600   -0.1610    6.9380 ha        1 3RG      0.129000
@<TRIPOS>BOND
     1    1    3 1   
     2    1    4 1   
     3    1   14 1   
     4    2    4 1   
     5    2   12 1   
     6    2   15 1   
     7    4   16 1   
     8    4   17 1   
     9    5   11 1   
    10    6   11 1   
    11    7    8 ar  
    12    7    9 ar  
    13    7   18 1   
    14    8   10 ar  
    15    8   19 1   
    16    9   12 ar  
    17    9   20 1   
    18   10   13 ar  
    19   10   21 1   
    20   11   13 1   
    21   12   13 ar  
@<TRIPOS>SUBSTRUCTURE
     1 3RG         1 TEMP              0 ****  ****    0 ROOT
