@<TRIPOS>MOLECULE
3RG
   22    22     1     0     0
SMALL
bcc


@<TRIPOS>ATOM
      1 C           0.1650   -0.2990    1.0320 c         1 3RG      0.912600
      2 N          -2.3300   -0.0670    0.6310 n4        1 3RG     -0.647400
      3 O           1.2680    0.2510    1.2480 o         1 3RG     -0.802800
      4 CA         -1.0540    0.6670    0.8350 c3        1 3RG     -0.046200
      5 OAB        -6.2440    1.6110    0.8910 o         1 3RG     -0.807300
      6 OAD        -4.5740    1.0120   -0.4540 o         1 3RG     -0.807300
      7 CAE        -3.3520   -0.8910    4.1340 ca        1 3RG     -0.142000
      8 CAF        -4.6450   -0.3650    4.1800 ca        1 3RG     -0.134000
      9 CAG        -2.5990   -0.7870    2.9720 ca        1 3RG     -0.123000
     10 CAH        -5.1840    0.2570    3.0600 ca        1 3RG     -0.105000
     11 CAL        -5.1380    1.0510    0.6870 c         1 3RG      0.911200
     12 CAM        -3.1480   -0.1500    1.8400 ca        1 3RG      0.002600
     13 CAN        -4.4530    0.3750    1.8690 ca        1 3RG     -0.118600
     14 OXT        -0.0700   -1.5380    0.9540 o         1 3RG     -0.802800
     15 HN         -2.0710   -1.0340    0.3630 hn        1 3RG      0.478300
     16 HA         -1.1340    1.3340    1.7320 hx        1 3RG      0.080200
     17 HAA        -0.8650    1.2950   -0.0750 hx        1 3RG      0.080200
     18 HAE        -2.9240   -1.3880    5.0160 ha        1 3RG      0.127000
     19 HAF        -5.2370   -0.4450    5.1040 ha        1 3RG      0.121000
     20 HAG        -1.5750   -1.2040    2.9220 ha        1 3RG      0.177000
     21 HAH        -6.2030    0.6810    3.0750 ha        1 3RG      0.167000
     22 H2         -2.9010    0.3770   -0.1290 hn        1 3RG      0.478300
@<TRIPOS>BOND
     1    1    3 1   
     2    1    4 1   
     3    1   14 1   
     4    2    4 1   
     5    2   12 1   
     6    2   15 1   
     7    2   22 1   
     8    4   16 1   
     9    4   17 1   
    10    5   11 1   
    11    6   11 1   
    12    7    8 ar  
    13    7    9 ar  
    14    7   18 1   
    15    8   10 ar  
    16    8   19 1   
    17    9   12 ar  
    18    9   20 1   
    19   10   13 ar  
    20   10   21 1   
    21   11   13 1   
    22   12   13 ar  
@<TRIPOS>SUBSTRUCTURE
     1 3RG         1 TEMP              0 ****  ****    0 ROOT
