@<TRIPOS>MOLECULE
3RG
   21    21     1     0     0
SMALL
bcc


@<TRIPOS>ATOM
      1 C          -3.3470    0.0880    0.0730 c         1 3RG      0.908600
      2 N          -0.8010   -0.0010    0.1200 nh        1 3RG     -0.731600
      3 O          -3.4400   -1.1480   -0.1430 o         1 3RG     -0.850300
      4 CA         -1.9780    0.8140    0.0200 c3        1 3RG      0.089800
      5 OAB         2.6570   -2.3460    0.4470 o         1 3RG     -0.850300
      6 OAD         0.6820   -2.3670   -0.5690 o         1 3RG     -0.850300
      7 CAE         1.8660    2.5680   -0.0170 ca        1 3RG     -0.105000
      8 CAF         3.0150    1.7880   -0.0100 ca        1 3RG     -0.265000
      9 CAG         0.6080    1.9820   -0.0050 ca        1 3RG     -0.276000
     10 CAH         2.8800    0.3960    0.0010 ca        1 3RG     -0.074000
     11 CAL         1.6450   -1.7470   -0.0330 c         1 3RG      0.911200
     12 CAM         0.4470    0.5640    0.0180 ca        1 3RG      0.239600
     13 CAN         1.6410   -0.2310    0.0020 ca        1 3RG     -0.205600
     14 OXT        -4.3430    0.8390    0.3130 o         1 3RG     -0.850300
     15 HN         -0.8950   -0.9860   -0.0600 hn        1 3RG      0.488800
     16 HA         -1.9700    1.4020   -0.9450 h1        1 3RG      0.009700
     17 HAA        -1.9710    1.5620    0.8650 h1        1 3RG      0.009700
     18 HAE         1.9470    3.6650   -0.0340 ha        1 3RG      0.077000
     19 HAF         4.0090    2.2500   -0.0130 ha        1 3RG      0.083000
     20 HAG        -0.2740    2.6360   -0.0130 ha        1 3RG      0.112000
     21 HAH         3.7770   -0.2450    0.0170 ha        1 3RG      0.129000
@<TRIPOS>BOND
     1    1    3 1   
     2    1    4 1   
     3    1   14 1   
     4    2    4 1   
     5    2   12 1   
     6    2   15 1   
     7    4   16 1   
     8    4   17 1   
     9    5   11 1   
    10    6   11 1   
    11    7    8 ar  
    12    7    9 ar  
    13    7   18 1   
    14    8   10 ar  
    15    8   19 1   
    16    9   12 ar  
    17    9   20 1   
    18   10   13 ar  
    19   10   21 1   
    20   11   13 1   
    21   12   13 ar  
@<TRIPOS>SUBSTRUCTURE
     1 3RG         1 TEMP              0 ****  ****    0 ROOT
