@<TRIPOS>MOLECULE
3RH
   37    40     1     0     0
SMALL
bcc


@<TRIPOS>ATOM
      1 C1          0.0010    0.1380    0.0710 ca        1 3RH      0.554800
      2 C2          1.4250    0.0400    0.0000 ca        1 3RH     -0.221900
      3 N3         -0.6290    0.2870    1.2680 nb        1 3RH     -0.677000
      4 C4          0.1870    0.3390    2.3650 ca        1 3RH      0.675900
      5 N5         -0.5010    0.5000    3.6810 n4        1 3RH     -0.812300
      6 N6          1.5540    0.2580    2.4090 nb        1 3RH     -0.666000
      7 C7          2.1480    0.1060    1.2080 ca        1 3RH      0.447200
      8 C8          2.1030   -0.1080   -1.3040 c3        1 3RH     -0.041100
      9 C9          1.2790   -0.9110   -2.3110 c3        1 3RH      0.023900
     10 C10         1.4310   -2.3840   -2.0770 ca        1 3RH     -0.104300
     11 C11        -0.1480   -0.4560   -2.3250 ca        1 3RH     -0.031300
     12 C12        -0.7720    0.0610   -1.1710 ca        1 3RH     -0.200500
     13 C13         2.6480   -2.9900   -2.4210 ca        1 3RH     -0.126500
     14 C14         2.8330   -4.3570   -2.2300 ca        1 3RH     -0.122000
     15 C15         1.8040   -5.1350   -1.6950 ca        1 3RH     -0.115000
     16 C16         0.5910   -4.5390   -1.3560 ca        1 3RH     -0.122000
     17 C17         0.4050   -3.1690   -1.5450 ca        1 3RH     -0.126500
     18 C18        -0.8750   -0.5350   -3.5170 ca        1 3RH     -0.125000
     19 C19        -2.2000   -0.1030   -3.5700 ca        1 3RH     -0.076000
     20 C20        -2.8130    0.4140   -2.4290 ca        1 3RH     -0.136000
     21 C21        -2.1050    0.4960   -1.2330 ca        1 3RH     -0.071000
     22 HN5        -1.5200    0.5340    3.5440 hn        1 3RH      0.478133
     23 HN5A       -0.2600   -0.2970    4.2830 hn        1 3RH      0.478133
     24 H7          3.2550    0.0340    1.2300 h4        1 3RH      0.071100
     25 H8          3.1050   -0.6010   -1.1730 hc        1 3RH      0.084700
     26 H8A         2.2860    0.9230   -1.7230 hc        1 3RH      0.084700
     27 H9          1.7180   -0.6910   -3.3330 hc        1 3RH      0.088700
     28 H13         3.4590   -2.3850   -2.8550 ha        1 3RH      0.133000
     29 H14         3.7900   -4.8250   -2.5070 ha        1 3RH      0.142500
     30 H15         1.9490   -6.2160   -1.5500 ha        1 3RH      0.145000
     31 H16        -0.2270   -5.1500   -0.9450 ha        1 3RH      0.142500
     32 H17        -0.5630   -2.7120   -1.2860 ha        1 3RH      0.133000
     33 H18        -0.3960   -0.9440   -4.4210 ha        1 3RH      0.157000
     34 H19        -2.7610   -0.1690   -4.5170 ha        1 3RH      0.156000
     35 H20        -3.8580    0.7600   -2.4720 ha        1 3RH      0.154000
     36 H21        -2.6020    0.9100   -0.3420 ha        1 3RH      0.146000
     37 H53        -0.1810    1.3700    4.1210 hn        1 3RH      0.478133
@<TRIPOS>BOND
     1    1    2 ar  
     2    1    3 ar  
     3    1   12 1   
     4    2    7 ar  
     5    2    8 1   
     6    3    4 ar  
     7    4    5 1   
     8    4    6 ar  
     9    5   22 1   
    10    5   23 1   
    11    5   37 1   
    12    6    7 ar  
    13    7   24 1   
    14    8    9 1   
    15    8   25 1   
    16    8   26 1   
    17    9   10 1   
    18    9   11 1   
    19    9   27 1   
    20   10   13 ar  
    21   10   17 ar  
    22   11   12 ar  
    23   11   18 ar  
    24   12   21 ar  
    25   13   14 ar  
    26   13   28 1   
    27   14   15 ar  
    28   14   29 1   
    29   15   16 ar  
    30   15   30 1   
    31   16   17 ar  
    32   16   31 1   
    33   17   32 1   
    34   18   19 ar  
    35   18   33 1   
    36   19   20 ar  
    37   19   34 1   
    38   20   21 ar  
    39   20   35 1   
    40   21   36 1   
@<TRIPOS>SUBSTRUCTURE
     1 3RH         1 TEMP              0 ****  ****    0 ROOT
