@<TRIPOS>MOLECULE
3RH
   36    39     1     0     0
SMALL
bcc


@<TRIPOS>ATOM
      1 C1          0.0020    0.1530    0.0890 ca        1 3RH      0.539800
      2 C2          1.4150    0.0560    0.0080 ca        1 3RH     -0.353900
      3 N3         -0.6390    0.3200    1.2690 nb        1 3RH     -0.751000
      4 C4          0.1540    0.4180    2.4030 ca        1 3RH      0.860900
      5 N5         -0.4840    0.7110    3.6160 nh        1 3RH     -0.922500
      6 N6          1.5430    0.3070    2.4130 nb        1 3RH     -0.744000
      7 C7          2.1260    0.1360    1.2210 ca        1 3RH      0.467200
      8 C8          2.1020   -0.1100   -1.2890 c3        1 3RH     -0.007100
      9 C9          1.2800   -0.9100   -2.3010 c3        1 3RH      0.025900
     10 C10         1.4400   -2.3840   -2.0800 ca        1 3RH     -0.077300
     11 C11        -0.1520   -0.4720   -2.3110 ca        1 3RH     -0.049300
     12 C12        -0.7740    0.0500   -1.1600 ca        1 3RH     -0.154500
     13 C13         2.5870   -3.0180   -2.5780 ca        1 3RH     -0.123000
     14 C14         2.7760   -4.3850   -2.3900 ca        1 3RH     -0.129000
     15 C15         1.8210   -5.1350   -1.7020 ca        1 3RH     -0.130000
     16 C16         0.6790   -4.5110   -1.2030 ca        1 3RH     -0.129000
     17 C17         0.4890   -3.1420   -1.3900 ca        1 3RH     -0.123000
     18 C18        -0.8820   -0.5700   -3.5010 ca        1 3RH     -0.134000
     19 C19        -2.2100   -0.1510   -3.5550 ca        1 3RH     -0.112000
     20 C20        -2.8220    0.3720   -2.4170 ca        1 3RH     -0.144000
     21 C21        -2.1090    0.4730   -1.2240 ca        1 3RH     -0.083000
     22 HN5         0.0320    0.5100    4.4410 hn        1 3RH      0.423300
     23 HN5A       -1.4590    0.5210    3.6570 hn        1 3RH      0.423300
     24 H7          3.2290    0.0500    1.2370 h4        1 3RH      0.026100
     25 H8          3.0940   -0.6160   -1.1430 hc        1 3RH      0.055700
     26 H8A         2.3040    0.9100   -1.7210 hc        1 3RH      0.055700
     27 H9          1.7110   -0.6780   -3.3230 hc        1 3RH      0.063700
     28 H13         3.3430   -2.4310   -3.1210 ha        1 3RH      0.135500
     29 H14         3.6790   -4.8730   -2.7850 ha        1 3RH      0.131000
     30 H15         1.9700   -6.2150   -1.5540 ha        1 3RH      0.131000
     31 H16        -0.0760   -5.0970   -0.6600 ha        1 3RH      0.131000
     32 H17        -0.4150   -2.6540   -0.9930 ha        1 3RH      0.135500
     33 H18        -0.4010   -0.9820   -4.4000 ha        1 3RH      0.137000
     34 H19        -2.7720   -0.2320   -4.4970 ha        1 3RH      0.134000
     35 H20        -3.8690    0.7080   -2.4580 ha        1 3RH      0.135000
     36 H21        -2.6020    0.8900   -0.3320 ha        1 3RH      0.155000
@<TRIPOS>BOND
     1    1    2 ar  
     2    1    3 ar  
     3    1   12 1   
     4    2    7 ar  
     5    2    8 1   
     6    3    4 ar  
     7    4    5 1   
     8    4    6 ar  
     9    5   22 1   
    10    5   23 1   
    11    6    7 ar  
    12    7   24 1   
    13    8    9 1   
    14    8   25 1   
    15    8   26 1   
    16    9   10 1   
    17    9   11 1   
    18    9   27 1   
    19   10   13 ar  
    20   10   17 ar  
    21   11   12 ar  
    22   11   18 ar  
    23   12   21 ar  
    24   13   14 ar  
    25   13   28 1   
    26   14   15 ar  
    27   14   29 1   
    28   15   16 ar  
    29   15   30 1   
    30   16   17 ar  
    31   16   31 1   
    32   17   32 1   
    33   18   19 ar  
    34   18   33 1   
    35   19   20 ar  
    36   19   34 1   
    37   20   21 ar  
    38   20   35 1   
    39   21   36 1   
@<TRIPOS>SUBSTRUCTURE
     1 3RH         1 TEMP              0 ****  ****    0 ROOT
