@<TRIPOS>MOLECULE
3RH
   36    39     1     0     0
SMALL
bcc


@<TRIPOS>ATOM
      1 C1         -1.4950    0.3790    0.2500 ca        1 3RH      0.539800
      2 C2         -1.0620   -0.5470    1.2330 ca        1 3RH     -0.353900
      3 N3         -2.6680    0.2310   -0.4090 nb        1 3RH     -0.751000
      4 C4         -3.4460   -0.8640   -0.0600 ca        1 3RH      0.860900
      5 N5         -4.7150   -0.9680   -0.6450 nh        1 3RH     -0.922500
      6 N6         -3.0830   -1.8320    0.8740 nb        1 3RH     -0.744000
      7 C7         -1.9110   -1.6410    1.4910 ca        1 3RH      0.467200
      8 C8          0.2120   -0.3620    1.9560 c3        1 3RH     -0.007100
      9 C9          1.2860    0.3200    1.1070 c3        1 3RH      0.025900
     10 C10         1.9850   -0.6710    0.2240 ca        1 3RH     -0.077300
     11 C11         0.7270    1.4850    0.3500 ca        1 3RH     -0.049300
     12 C12        -0.6200    1.5240   -0.0600 ca        1 3RH     -0.154500
     13 C13         2.9990   -1.4660    0.7760 ca        1 3RH     -0.123000
     14 C14         3.6680   -2.4010   -0.0100 ca        1 3RH     -0.129000
     15 C15         3.3330   -2.5530   -1.3550 ca        1 3RH     -0.130000
     16 C16         2.3250   -1.7660   -1.9100 ca        1 3RH     -0.129000
     17 C17         1.6530   -0.8300   -1.1250 ca        1 3RH     -0.123000
     18 C18         1.5630    2.5700    0.0620 ca        1 3RH     -0.134000
     19 C19         1.0740    3.6820   -0.6200 ca        1 3RH     -0.112000
     20 C20        -0.2610    3.7210   -1.0190 ca        1 3RH     -0.144000
     21 C21        -1.1050    2.6480   -0.7410 ca        1 3RH     -0.083000
     22 HN5        -4.8560   -0.4540   -1.4840 hn        1 3RH      0.423300
     23 HN5A       -5.1410   -1.8660   -0.6090 hn        1 3RH      0.423300
     24 H7         -1.6300   -2.4130    2.2320 h4        1 3RH      0.026100
     25 H8          0.0200    0.2730    2.8650 hc        1 3RH      0.055700
     26 H8A         0.6050   -1.3510    2.3140 hc        1 3RH      0.055700
     27 H9          2.0600    0.7250    1.8290 hc        1 3RH      0.063700
     28 H13         3.2670   -1.3500    1.8370 ha        1 3RH      0.135500
     29 H14         4.4630   -3.0200    0.4320 ha        1 3RH      0.131000
     30 H15         3.8620   -3.2910   -1.9760 ha        1 3RH      0.131000
     31 H16         2.0550   -1.8820   -2.9700 ha        1 3RH      0.131000
     32 H17         0.8560   -0.2120   -1.5680 ha        1 3RH      0.135500
     33 H18         2.6180    2.5400    0.3770 ha        1 3RH      0.137000
     34 H19         1.7420    4.5280   -0.8400 ha        1 3RH      0.134000
     35 H20        -0.6510    4.6000   -1.5540 ha        1 3RH      0.135000
     36 H21        -2.1580    2.6910   -1.0600 ha        1 3RH      0.155000
@<TRIPOS>BOND
     1    1    2 ar  
     2    1    3 ar  
     3    1   12 1   
     4    2    7 ar  
     5    2    8 1   
     6    3    4 ar  
     7    4    5 1   
     8    4    6 ar  
     9    5   22 1   
    10    5   23 1   
    11    6    7 ar  
    12    7   24 1   
    13    8    9 1   
    14    8   25 1   
    15    8   26 1   
    16    9   10 1   
    17    9   11 1   
    18    9   27 1   
    19   10   13 ar  
    20   10   17 ar  
    21   11   12 ar  
    22   11   18 ar  
    23   12   21 ar  
    24   13   14 ar  
    25   13   28 1   
    26   14   15 ar  
    27   14   29 1   
    28   15   16 ar  
    29   15   30 1   
    30   16   17 ar  
    31   16   31 1   
    32   17   32 1   
    33   18   19 ar  
    34   18   33 1   
    35   19   20 ar  
    36   19   34 1   
    37   20   21 ar  
    38   20   35 1   
    39   21   36 1   
@<TRIPOS>SUBSTRUCTURE
     1 3RH         1 TEMP              0 ****  ****    0 ROOT
