@<TRIPOS>MOLECULE
3RH
   36    39     1     0     0
SMALL
bcc


@<TRIPOS>ATOM
      1 C1         -0.0080    0.1340    0.0990 ca        1 3RH      0.538800
      2 C2          1.4070    0.0450    0.0340 ca        1 3RH     -0.354900
      3 N3         -0.6640    0.2980    1.2710 nb        1 3RH     -0.752000
      4 C4          0.1130    0.3650    2.4180 ca        1 3RH      0.862900
      5 N5         -0.5530    0.4200    3.6490 nv        1 3RH     -0.924500
      6 N6          1.5060    0.3150    2.4390 nb        1 3RH     -0.745000
      7 C7          2.1040    0.1490    1.2540 ca        1 3RH      0.467200
      8 C8          2.1120   -0.1190   -1.2530 c3        1 3RH     -0.007100
      9 C9          1.3030   -0.9040   -2.2850 c3        1 3RH      0.026900
     10 C10         1.4550   -2.3820   -2.0810 ca        1 3RH     -0.078300
     11 C11        -0.1300   -0.4690   -2.3080 ca        1 3RH     -0.047300
     12 C12        -0.7680    0.0410   -1.1610 ca        1 3RH     -0.155500
     13 C13         2.5340   -3.0420   -2.6840 ca        1 3RH     -0.121500
     14 C14         2.7100   -4.4120   -2.5080 ca        1 3RH     -0.129000
     15 C15         1.8110   -5.1390   -1.7280 ca        1 3RH     -0.130000
     16 C16         0.7350   -4.4890   -1.1250 ca        1 3RH     -0.129000
     17 C17         0.5570   -3.1170   -1.3000 ca        1 3RH     -0.121500
     18 C18        -0.8450   -0.5590   -3.5080 ca        1 3RH     -0.133000
     19 C19        -2.1750   -0.1470   -3.5750 ca        1 3RH     -0.112000
     20 C20        -2.8030    0.3620   -2.4390 ca        1 3RH     -0.144000
     21 C21        -2.1040    0.4560   -1.2370 ca        1 3RH     -0.083000
     22 HN5        -1.5020    0.7130    3.6250 hn        1 3RH      0.424800
     23 HN5A       -0.0170    0.7300    4.4260 hn        1 3RH      0.424800
     24 H7          3.2090    0.0990    1.2790 h4        1 3RH      0.026100
     25 H8          2.3320    0.9010   -1.6740 hc        1 3RH      0.055200
     26 H8A         3.0970   -0.6350   -1.0930 hc        1 3RH      0.055200
     27 H9          1.7470   -0.6580   -3.2980 hc        1 3RH      0.062700
     28 H13         3.2470   -2.4740   -3.3000 ha        1 3RH      0.135500
     29 H14         3.5600   -4.9210   -2.9860 ha        1 3RH      0.131500
     30 H15         1.9500   -6.2210   -1.5900 ha        1 3RH      0.131000
     31 H16         0.0230   -5.0570   -0.5080 ha        1 3RH      0.131500
     32 H17        -0.2930   -2.6070   -0.8200 ha        1 3RH      0.135500
     33 H18        -0.3510   -0.9630   -4.4050 ha        1 3RH      0.137000
     34 H19        -2.7250   -0.2240   -4.5240 ha        1 3RH      0.134000
     35 H20        -3.8520    0.6900   -2.4900 ha        1 3RH      0.135000
     36 H21        -2.6130    0.8580   -0.3470 ha        1 3RH      0.153000
@<TRIPOS>BOND
     1    1    2 ar  
     2    1    3 ar  
     3    1   12 1   
     4    2    7 ar  
     5    2    8 1   
     6    3    4 ar  
     7    4    5 1   
     8    4    6 ar  
     9    5   22 1   
    10    5   23 1   
    11    6    7 ar  
    12    7   24 1   
    13    8    9 1   
    14    8   25 1   
    15    8   26 1   
    16    9   10 1   
    17    9   11 1   
    18    9   27 1   
    19   10   13 ar  
    20   10   17 ar  
    21   11   12 ar  
    22   11   18 ar  
    23   12   21 ar  
    24   13   14 ar  
    25   13   28 1   
    26   14   15 ar  
    27   14   29 1   
    28   15   16 ar  
    29   15   30 1   
    30   16   17 ar  
    31   16   31 1   
    32   17   32 1   
    33   18   19 ar  
    34   18   33 1   
    35   19   20 ar  
    36   19   34 1   
    37   20   21 ar  
    38   20   35 1   
    39   21   36 1   
@<TRIPOS>SUBSTRUCTURE
     1 3RH         1 TEMP              0 ****  ****    0 ROOT
