@<TRIPOS>MOLECULE
3RH
   36    31     1     0     0
SMALL
bcc


@<TRIPOS>ATOM
      1 C1         -0.5950    0.6850    1.8180 c1        1 3RH      0.103000
      2 C2          0.7980    0.8590    1.7620 c1        1 3RH     -0.217000
      3 N3         -1.1950    0.4570    3.0000 n1        1 3RH     -0.226000
      4 C4         -0.4400    0.3950    4.1540 c1        1 3RH      0.144000
      5 N5         -1.1410    0.1700    5.3660 n3        1 3RH     -0.322000
      6 N6          0.9330    0.5660    4.0970 n1        1 3RH     -0.219000
      7 C7          1.5410    0.7960    2.9090 c1        1 3RH      0.002000
      8 C8          1.5230    0.8130    0.4260 c3        1 3RH     -0.093000
      9 C9          0.7330    0.8100   -0.8110 c3        1 3RH     -0.027000
     10 C10         1.1000   -0.5610   -1.6170 c2        1 3RH     -0.071000
     11 C11        -0.7860    0.8910   -0.7080 c2        1 3RH     -0.041000
     12 C12        -1.4180    0.7010    0.5430 c1        1 3RH     -0.048000
     13 C13         0.7830   -1.8990   -1.3950 c2        1 3RH     -0.112000
     14 C14         1.2870   -2.8860   -2.2430 c1        1 3RH     -0.127000
     15 C15         2.1040   -2.5360   -3.3090 c1        1 3RH     -0.129250
     16 C16         2.4220   -1.1980   -3.5320 c1        1 3RH     -0.129250
     17 C17         1.9190   -0.2090   -2.6840 c1        1 3RH     -0.131000
     18 C18        -1.5590    1.0490   -1.8640 c1        1 3RH     -0.133000
     19 C19        -2.9690    1.0200   -1.7810 c1        1 3RH     -0.129250
     20 C20        -3.5980    0.8310   -0.5340 c1        1 3RH     -0.129250
     21 C21        -2.8240    0.6720    0.6250 c1        1 3RH     -0.083000
     22 HN5        -2.0460    0.2040    5.3780 hn        1 3RH      0.220000
     23 HN5A       -0.6840    0.0420    6.1350 hn        1 3RH      0.220000
     24 H7          2.5000    0.9160    2.8700 ha        1 3RH      0.163000
     25 H8          2.1140    1.5770    0.3900 hc        1 3RH      0.094500
     26 H8A         2.0670    0.0200    0.4200 hc        1 3RH      0.094500
     27 H9          1.0350    1.5720   -1.3590 hc        1 3RH      0.102000
     28 H13         0.2030   -2.1490   -0.6380 ha        1 3RH      0.144000
     29 H14         1.0660   -3.8210   -2.0880 ha        1 3RH      0.133000
     30 H15         2.4620   -3.2390   -3.9130 ha        1 3RH      0.132500
     31 H16         2.9990   -0.9510   -4.2840 ha        1 3RH      0.132500
     32 H17         2.1450    0.7420   -2.8440 ha        1 3RH      0.127000
     33 H18        -1.1130    1.1830   -2.7480 ha        1 3RH      0.137000
     34 H19        -3.5020    1.1290   -2.5790 ha        1 3RH      0.132500
     35 H20        -4.5930    0.8110   -0.4760 ha        1 3RH      0.132500
     36 H21        -3.2710    0.5370    1.5120 ha        1 3RH      0.153000
@<TRIPOS>BOND
     1    1    3 1   
     2    2    7 1   
     3    2    8 1   
     4    4    5 1   
     5    4    6 1   
     6    5   22 1   
     7    5   23 1   
     8    7   24 1   
     9    8    9 1   
    10    8   25 1   
    11    8   26 1   
    12    9   10 1   
    13    9   11 1   
    14    9   27 1   
    15   10   13 1   
    16   10   17 1   
    17   11   12 1   
    18   11   18 1   
    19   12   21 1   
    20   13   14 1   
    21   13   28 1   
    22   14   29 1   
    23   15   16 1   
    24   15   30 1   
    25   16   31 1   
    26   17   32 1   
    27   18   33 1   
    28   19   20 1   
    29   19   34 1   
    30   20   35 1   
    31   21   36 1   
@<TRIPOS>SUBSTRUCTURE
     1 3RH         1 TEMP              0 ****  ****    0 ROOT
