@<TRIPOS>MOLECULE
3RI
   31    31     1     0     0
SMALL
bcc


@<TRIPOS>ATOM
      1 OAA         3.7500    0.2820   -1.4700 oh        1 3RI     -0.596800
      2 OAB        -1.3720    2.7830    0.3190 oh        1 3RI     -0.606300
      3 OAC        -0.6170   -2.8760    0.5590 oh        1 3RI     -0.606300
      4 OAD        -2.8380    0.8900   -1.0600 oh        1 3RI     -0.578300
      5 OAE        -2.5740   -1.6720   -0.5430 oh        1 3RI     -0.578300
      6 CAF         3.7380   -0.1650   -0.1320 c3        1 3RI      0.131400
      7 CAG         2.7060    0.5790    0.7250 c3        1 3RI      0.136800
      8 CAH         0.3760    1.2330    0.9200 c3        1 3RI      0.148800
      9 CAI         0.9890   -1.1120    0.5300 c3        1 3RI      0.148800
     10 CAJ        -0.7540    1.5610   -0.0760 c3        1 3RI      0.099100
     11 CAK        -0.5000   -1.4610    0.6810 c3        1 3RI      0.099100
     12 CAL        -1.8930    0.5280   -0.0660 c3        1 3RI      0.160100
     13 CAM        -1.4010   -0.8830   -0.4270 c3        1 3RI      0.160100
     14 NAN         1.3260    0.2880    0.3650 n3        1 3RI     -0.755600
     15 HOAA        2.8640    0.1490   -1.8290 ho        1 3RI      0.412000
     16 HOAB       -0.7550    3.4920    0.1050 ho        1 3RI      0.409000
     17 HOAC       -0.2650   -3.2600    1.3700 ho        1 3RI      0.409000
     18 HOAD       -3.1900    1.7500   -0.7950 ho        1 3RI      0.416000
     19 HOAE       -2.2910   -2.5610   -0.7980 ho        1 3RI      0.416000
     20 HAF         3.5750   -1.2750   -0.0930 h1        1 3RI      0.047200
     21 HAFA        4.7670    0.0720    0.2550 h1        1 3RI      0.047200
     22 HAG         2.9170    0.3340    1.8070 h1        1 3RI      0.043700
     23 HAGA        2.8780    1.6830    0.5770 h1        1 3RI      0.043700
     24 HAH         0.9000    2.2040    1.1580 h1        1 3RI      0.041200
     25 HAHA       -0.0840    0.8720    1.8840 h1        1 3RI      0.041200
     26 HAI         1.5200   -1.5630    1.4220 h1        1 3RI      0.041200
     27 HAIA        1.3720   -1.6430   -0.3900 h1        1 3RI      0.041200
     28 HAJ        -0.3530    1.6610   -1.1230 h1        1 3RI      0.057700
     29 HAK        -0.8840   -1.1390    1.6890 h1        1 3RI      0.057700
     30 HAL        -2.3880    0.5140    0.9450 h1        1 3RI      0.058200
     31 HAM        -0.8480   -0.8660   -1.4050 h1        1 3RI      0.058200
@<TRIPOS>BOND
     1    1    6 1   
     2    1   15 1   
     3    2   10 1   
     4    2   16 1   
     5    3   11 1   
     6    3   17 1   
     7    4   12 1   
     8    4   18 1   
     9    5   13 1   
    10    5   19 1   
    11    6    7 1   
    12    6   20 1   
    13    6   21 1   
    14    7   14 1   
    15    7   22 1   
    16    7   23 1   
    17    8   10 1   
    18    8   14 1   
    19    8   24 1   
    20    8   25 1   
    21    9   11 1   
    22    9   14 1   
    23    9   26 1   
    24    9   27 1   
    25   10   12 1   
    26   10   28 1   
    27   11   13 1   
    28   11   29 1   
    29   12   13 1   
    30   12   30 1   
    31   13   31 1   
@<TRIPOS>SUBSTRUCTURE
     1 3RI         1 TEMP              0 ****  ****    0 ROOT
