@<TRIPOS>MOLECULE
3RI
   31    31     1     0     0
SMALL
bcc


@<TRIPOS>ATOM
      1 OAA        -0.0310    0.2620   -0.0150 oh        1 3RI     -0.598800
      2 OAB         0.6290   -1.0920    5.4940 oh        1 3RI     -0.603800
      3 OAC         2.3940   -4.7600    1.4160 oh        1 3RI     -0.603800
      4 OAD        -0.5920   -3.5550    4.9170 oh        1 3RI     -0.616800
      5 OAE         0.4570   -5.2160    3.0850 oh        1 3RI     -0.616800
      6 CAF         1.3620    0.0590   -0.1090 c3        1 3RI      0.130400
      7 CAG         2.0350   -0.0180    1.2690 c3        1 3RI      0.138800
      8 CAH         1.8100   -1.0720    3.4550 c3        1 3RI      0.174800
      9 CAI         2.3290   -2.4080    1.4710 c3        1 3RI      0.174800
     10 CAJ         0.5790   -1.6480    4.1880 c3        1 3RI      0.132100
     11 CAK         2.1440   -3.6830    2.3120 c3        1 3RI      0.132100
     12 CAL         0.6210   -3.1820    4.2800 c3        1 3RI      0.099600
     13 CAM         0.7280   -3.8300    2.8930 c3        1 3RI      0.099600
     14 NAN         1.6950   -1.2200    2.0150 n3        1 3RI     -0.765600
     15 HOAA       -0.3960   -0.4600    0.5100 ho        1 3RI      0.410000
     16 HOAB       -0.1020   -1.4900    5.9870 ho        1 3RI      0.419000
     17 HOAC        2.4840   -5.5530    1.9620 ho        1 3RI      0.419000
     18 HOAD       -0.6420   -4.5200    4.8910 ho        1 3RI      0.424000
     19 HOAE        0.2090   -5.5710    2.2230 ho        1 3RI      0.424000
     20 HAF         1.5790   -0.8540   -0.7250 h1        1 3RI      0.046700
     21 HAFA        1.7450    0.9680   -0.6470 h1        1 3RI      0.046700
     22 HAG         1.6880    0.8790    1.8570 h1        1 3RI      0.046700
     23 HAGA        3.1490    0.0750    1.1140 h1        1 3RI      0.046700
     24 HAH         2.7350   -1.5720    3.8620 h1        1 3RI      0.051950
     25 HAHA        1.8730    0.0170    3.7430 h1        1 3RI      0.051950
     26 HAI         1.8760   -2.5940    0.4550 h1        1 3RI      0.051950
     27 HAIA        3.4400   -2.2650    1.3260 h1        1 3RI      0.051950
     28 HAJ        -0.3780   -1.3340    3.6850 h1        1 3RI      0.054200
     29 HAK         2.9000   -3.7080    3.1460 h1        1 3RI      0.054200
     30 HAL         1.4860   -3.5080    4.9230 h1        1 3RI      0.062200
     31 HAM        -0.0350   -3.3850    2.1980 h1        1 3RI      0.062200
@<TRIPOS>BOND
     1    1    6 1   
     2    1   15 1   
     3    2   10 1   
     4    2   16 1   
     5    3   11 1   
     6    3   17 1   
     7    4   12 1   
     8    4   18 1   
     9    5   13 1   
    10    5   19 1   
    11    6    7 1   
    12    6   20 1   
    13    6   21 1   
    14    7   14 1   
    15    7   22 1   
    16    7   23 1   
    17    8   10 1   
    18    8   14 1   
    19    8   24 1   
    20    8   25 1   
    21    9   11 1   
    22    9   14 1   
    23    9   26 1   
    24    9   27 1   
    25   10   12 1   
    26   10   28 1   
    27   11   13 1   
    28   11   29 1   
    29   12   13 1   
    30   12   30 1   
    31   13   31 1   
@<TRIPOS>SUBSTRUCTURE
     1 3RI         1 TEMP              0 ****  ****    0 ROOT
