@<TRIPOS>MOLECULE
3RI
   31    31     1     0     0
SMALL
bcc


@<TRIPOS>ATOM
      1 OAA         0.0900    0.2230   -0.1050 oh        1 3RI     -0.596800
      2 OAB         0.5490   -1.4840    5.6070 oh        1 3RI     -0.594300
      3 OAC         2.3730   -4.8370    1.3980 oh        1 3RI     -0.594300
      4 OAD        -0.4910   -3.9660    4.8970 oh        1 3RI     -0.565300
      5 OAE         0.3770   -5.3610    2.8330 oh        1 3RI     -0.565300
      6 CAF         1.4920    0.1030   -0.0270 c3        1 3RI      0.131400
      7 CAG         1.9910   -0.0180    1.4190 c3        1 3RI      0.135800
      8 CAH         1.7310   -1.2080    3.5210 c3        1 3RI      0.146800
      9 CAI         2.1680   -2.4300    1.4390 c3        1 3RI      0.146800
     10 CAJ         0.5420   -1.8790    4.2390 c3        1 3RI      0.099600
     11 CAK         2.0990   -3.7350    2.2490 c3        1 3RI      0.099600
     12 CAL         0.6520   -3.4120    4.2680 c3        1 3RI      0.139100
     13 CAM         0.6990   -3.9900    2.8420 c3        1 3RI      0.139100
     14 NAN         1.5980   -1.2560    2.0760 n3        1 3RI     -0.753600
     15 HOAA       -0.2930   -0.5660    0.2980 ho        1 3RI      0.412000
     16 HOAB        0.2740   -0.5600    5.6350 ho        1 3RI      0.405000
     17 HOAC        3.2250   -4.6640    0.9800 ho        1 3RI      0.405000
     18 HOAD       -0.5560   -3.5420    5.7640 ho        1 3RI      0.408500
     19 HOAE        1.0840   -5.8290    3.2940 ho        1 3RI      0.408500
     20 HAF         1.8470   -0.7570   -0.6550 h1        1 3RI      0.047200
     21 HAFA        1.8830    1.0630   -0.4630 h1        1 3RI      0.047200
     22 HAG         1.5460    0.8390    1.9990 h1        1 3RI      0.043700
     23 HAGA        3.1130    0.1110    1.4080 h1        1 3RI      0.043700
     24 HAH         2.6860   -1.6880    3.8810 h1        1 3RI      0.041700
     25 HAHA        1.7610   -0.1340    3.8680 h1        1 3RI      0.041700
     26 HAI         3.2520   -2.2660    1.1590 h1        1 3RI      0.041700
     27 HAIA        1.5910   -2.5910    0.4820 h1        1 3RI      0.041700
     28 HAJ        -0.4340   -1.5840    3.7620 h1        1 3RI      0.051200
     29 HAK         2.8730   -3.7160    3.0690 h1        1 3RI      0.051200
     30 HAL         1.5710   -3.7100    4.8480 h1        1 3RI      0.071200
     31 HAM        -0.1000   -3.5200    2.2030 h1        1 3RI      0.071200
@<TRIPOS>BOND
     1    1    6 1   
     2    1   15 1   
     3    2   10 1   
     4    2   16 1   
     5    3   11 1   
     6    3   17 1   
     7    4   12 1   
     8    4   18 1   
     9    5   13 1   
    10    5   19 1   
    11    6    7 1   
    12    6   20 1   
    13    6   21 1   
    14    7   14 1   
    15    7   22 1   
    16    7   23 1   
    17    8   10 1   
    18    8   14 1   
    19    8   24 1   
    20    8   25 1   
    21    9   11 1   
    22    9   14 1   
    23    9   26 1   
    24    9   27 1   
    25   10   12 1   
    26   10   28 1   
    27   11   13 1   
    28   11   29 1   
    29   12   13 1   
    30   12   30 1   
    31   13   31 1   
@<TRIPOS>SUBSTRUCTURE
     1 3RI         1 TEMP              0 ****  ****    0 ROOT
