@<TRIPOS>MOLECULE
3RI
   31    31     1     0     0
SMALL
bcc


@<TRIPOS>ATOM
      1 OAA        -0.0380    0.2880    0.0150 oh        1 3RI     -0.598800
      2 OAB         0.6260   -1.1270    5.5030 oh        1 3RI     -0.603800
      3 OAC         2.4010   -4.7470    1.3870 oh        1 3RI     -0.603800
      4 OAD        -0.5900   -3.5860    4.8980 oh        1 3RI     -0.616800
      5 OAE         0.4630   -5.2240    3.0500 oh        1 3RI     -0.616800
      6 CAF         1.3550    0.0860   -0.0850 c3        1 3RI      0.130400
      7 CAG         2.0310   -0.0050    1.2900 c3        1 3RI      0.138800
      8 CAH         1.8080   -1.0820    3.4660 c3        1 3RI      0.175300
      9 CAI         2.3320   -2.3960    1.4680 c3        1 3RI      0.175300
     10 CAJ         0.5780   -1.6680    4.1910 c3        1 3RI      0.131600
     11 CAK         2.1480   -3.6800    2.2940 c3        1 3RI      0.131600
     12 CAL         0.6230   -3.2030    4.2660 c3        1 3RI      0.099600
     13 CAM         0.7320   -3.8350    2.8720 c3        1 3RI      0.099600
     14 NAN         1.6950   -1.2150    2.0240 n3        1 3RI     -0.765600
     15 HOAA       -0.4020   -0.4410    0.5330 ho        1 3RI      0.410000
     16 HOAB       -0.1040   -1.5310    5.9920 ho        1 3RI      0.419000
     17 HOAC        2.4920   -5.5450    1.9240 ho        1 3RI      0.419000
     18 HOAD       -0.6380   -4.5500    4.8620 ho        1 3RI      0.424000
     19 HOAE        0.2170   -5.5700    2.1830 ho        1 3RI      0.424000
     20 HAF         1.7360    1.0010   -0.6150 h1        1 3RI      0.046700
     21 HAFA        1.5710   -0.8200   -0.7110 h1        1 3RI      0.046700
     22 HAG         3.1450    0.0910    1.1330 h1        1 3RI      0.046700
     23 HAGA        1.6850    0.8860    1.8890 h1        1 3RI      0.046700
     24 HAH         1.8680    0.0040    3.7650 h1        1 3RI      0.051950
     25 HAHA        2.7340   -1.5850    3.8680 h1        1 3RI      0.051950
     26 HAI         3.4430   -2.2490    1.3270 h1        1 3RI      0.051950
     27 HAIA        1.8820   -2.5710    0.4490 h1        1 3RI      0.051950
     28 HAJ        -0.3790   -1.3500    3.6910 h1        1 3RI      0.054200
     29 HAK         2.9040   -3.7130    3.1290 h1        1 3RI      0.054200
     30 HAL         1.4880   -3.5350    4.9060 h1        1 3RI      0.062200
     31 HAM        -0.0310   -3.3840    2.1820 h1        1 3RI      0.062200
@<TRIPOS>BOND
     1    1    6 1   
     2    1   15 1   
     3    2   10 1   
     4    2   16 1   
     5    3   11 1   
     6    3   17 1   
     7    4   12 1   
     8    4   18 1   
     9    5   13 1   
    10    5   19 1   
    11    6    7 1   
    12    6   20 1   
    13    6   21 1   
    14    7   14 1   
    15    7   22 1   
    16    7   23 1   
    17    8   10 1   
    18    8   14 1   
    19    8   24 1   
    20    8   25 1   
    21    9   11 1   
    22    9   14 1   
    23    9   26 1   
    24    9   27 1   
    25   10   12 1   
    26   10   28 1   
    27   11   13 1   
    28   11   29 1   
    29   12   13 1   
    30   12   30 1   
    31   13   31 1   
@<TRIPOS>SUBSTRUCTURE
     1 3RI         1 TEMP              0 ****  ****    0 ROOT
