@<TRIPOS>MOLECULE
3RI
   31    31     1     0     0
SMALL
bcc


@<TRIPOS>ATOM
      1 OAA        -4.2180   -0.8060   -1.3020 oh        1 3RI     -0.602800
      2 OAB         1.1090   -1.8950    2.2990 oh        1 3RI     -0.604800
      3 OAC         1.4210    2.6990   -0.9700 oh        1 3RI     -0.604800
      4 OAD         3.0900   -1.3760    0.3030 oh        1 3RI     -0.617300
      5 OAE         2.9450    0.7210   -1.2300 oh        1 3RI     -0.617300
      6 CAF        -2.7910   -0.7180   -1.2990 c3        1 3RI      0.126400
      7 CAG        -2.3210   -0.0220   -0.0050 c3        1 3RI      0.175800
      8 CAH        -0.3770   -0.3550    1.2710 c3        1 3RI      0.173800
      9 CAI        -0.4930    1.4510   -0.2840 c3        1 3RI      0.173800
     10 CAJ         0.8290   -1.2740    1.0930 c3        1 3RI      0.131600
     11 CAK         0.9990    1.6250   -0.1450 c3        1 3RI      0.131600
     12 CAL         2.0560   -0.4790    0.6380 c3        1 3RI      0.099100
     13 CAM         1.7300    0.3640   -0.5570 c3        1 3RI      0.099100
     14 NAN        -0.8840    0.0770   -0.0050 n3        1 3RI     -0.754600
     15 HOAA       -4.4810   -1.3570   -1.9570 ho        1 3RI      0.404000
     16 HOAB        0.9500   -2.7820    2.2240 ho        1 3RI      0.418000
     17 HOAC        1.5340    3.4470   -0.4620 ho        1 3RI      0.418000
     18 HOAD        3.7320   -1.3570    0.9540 ho        1 3RI      0.423000
     19 HOAE        2.9300    0.3870   -2.0890 ho        1 3RI      0.423000
     20 HAF        -2.4910   -0.1940   -2.0830 h1        1 3RI      0.030200
     21 HAFA       -2.4030   -1.6290   -1.3430 h1        1 3RI      0.030200
     22 HAG        -2.7020    0.8550    0.0420 h1        1 3RI      0.050700
     23 HAGA       -2.6140   -0.5510    0.7770 h1        1 3RI      0.050700
     24 HAH        -0.1060    0.4460    1.8050 h1        1 3RI      0.051450
     25 HAHA       -1.0950   -0.8460    1.7590 h1        1 3RI      0.051450
     26 HAI        -0.7630    1.6850   -1.2080 h1        1 3RI      0.051450
     27 HAIA       -0.9480    2.0520    0.3500 h1        1 3RI      0.051450
     28 HAJ         0.6190   -1.9570    0.4200 h1        1 3RI      0.055200
     29 HAK         1.2170    1.8360    0.8030 h1        1 3RI      0.055200
     30 HAL         2.3520    0.0910    1.3590 h1        1 3RI      0.063700
     31 HAM         1.1750   -0.1380   -1.1550 h1        1 3RI      0.063700
@<TRIPOS>BOND
     1    1    6 1   
     2    1   15 1   
     3    2   10 1   
     4    2   16 1   
     5    3   11 1   
     6    3   17 1   
     7    4   12 1   
     8    4   18 1   
     9    5   13 1   
    10    5   19 1   
    11    6    7 1   
    12    6   20 1   
    13    6   21 1   
    14    7   14 1   
    15    7   22 1   
    16    7   23 1   
    17    8   10 1   
    18    8   14 1   
    19    8   24 1   
    20    8   25 1   
    21    9   11 1   
    22    9   14 1   
    23    9   26 1   
    24    9   27 1   
    25   10   12 1   
    26   10   28 1   
    27   11   13 1   
    28   11   29 1   
    29   12   13 1   
    30   12   30 1   
    31   13   31 1   
@<TRIPOS>SUBSTRUCTURE
     1 3RI         1 TEMP              0 ****  ****    0 ROOT
