@<TRIPOS>MOLECULE
3RJ
   50    55     1     0     0
SMALL
bcc


@<TRIPOS>ATOM
      1 C13         0.6210    0.1920    0.1730 cy        1 3RJ     -0.058000
      2 C15         1.1720    0.7900    2.2070 cy        1 3RJ     -0.172000
      3 C17        -0.5910    0.3490   -2.1020 c2        1 3RJ     -0.191000
      4 C21        -3.6260   -4.5200   -4.4890 c2        1 3RJ      0.116000
      5 C22        -4.3690   -4.6590   -5.7920 c3        1 3RJ     -0.088000
      6 C28        -3.7800   -6.9570   -3.9450 c1        1 3RJ      0.004000
      7 C01        -4.0000   -0.6280   -6.3930 c2        1 3RJ      0.122000
      8 C02        -4.7220   -0.4170   -7.6960 c3        1 3RJ     -0.128000
      9 C03        -4.7610    0.9870   -8.1650 c2        1 3RJ     -0.104000
     10 C04        -4.1990    2.0120   -7.4920 c2        1 3RJ     -0.174000
     11 C05        -3.5100    1.8190   -6.2500 c1        1 3RJ     -0.117000
     12 C06        -3.4240    0.5100   -5.7550 c2        1 3RJ     -0.309000
     13 C07        -2.7240    0.2590   -4.5030 c2        1 3RJ      0.284000
     14 C09        -1.4930    1.2850   -2.6480 c2        1 3RJ      0.026000
     15 N10        -1.7120    2.2560   -1.6280 na        1 3RJ     -0.173000
     16 N11        -0.9620    2.0200   -0.5570 n2        1 3RJ     -0.066000
     17 C12        -0.2870    0.8520   -0.7780 c2        1 3RJ     -0.097000
     18 C14         1.7260    1.0840    0.7980 cy        1 3RJ     -0.160500
     19 C16         0.0490   -0.0690    1.5920 cy        1 3RJ     -0.160500
     20 N18        -2.6510   -0.9990   -3.9690 n2        1 3RJ     -0.301000
     21 C19        -3.2630   -2.0160   -4.6780 c2        1 3RJ      0.244000
     22 N20        -3.1590   -3.2730   -4.0730 nh        1 3RJ     -0.243000
     23 C23        -4.7620   -6.0550   -6.0470 c2        1 3RJ     -0.073000
     24 N24        -5.4470   -6.5760   -7.1270 na        1 3RJ     -0.202000
     25 C25        -5.5680   -7.9650   -6.8820 c2        1 3RJ     -0.107000
     26 N26        -5.0020   -8.3320   -5.7210 n2        1 3RJ     -0.051000
     27 C27        -4.4810   -7.1530   -5.1630 c2        1 3RJ     -0.156000
     28 C29        -3.3860   -5.6150   -3.6800 c2        1 3RJ     -0.277000
     29 N30        -3.9380   -1.8730   -5.8910 n2        1 3RJ     -0.290000
     30 H131        1.0340   -0.7330   -0.2990 hc        1 3RJ      0.104000
     31 H152        1.8700    0.2240    2.8590 hc        1 3RJ      0.089000
     32 H151        0.8080    1.6900    2.7450 hc        1 3RJ      0.089000
     33 H171       -0.2140   -0.5570   -2.5610 ha        1 3RJ      0.178000
     34 H221       -5.2940   -4.0140   -5.7650 hc        1 3RJ      0.146000
     35 H281       -3.7160   -4.2970   -6.6380 hc        1 3RJ      0.146000
     36 H021       -5.7810   -0.7930   -7.5920 hc        1 3RJ      0.137500
     37 H031       -4.2270   -1.0480   -8.4900 hc        1 3RJ      0.137500
     38 H041       -5.2930    1.1370   -9.1200 ha        1 3RJ      0.132000
     39 H051       -4.2510    3.0440   -7.8760 ha        1 3RJ      0.148000
     40 H081       -2.2590    2.2210   -4.3480 hn        1 3RJ      0.294000
     41 H111       -2.1550    3.1390   -1.7380 hn        1 3RJ      0.269000
     42 H142        1.6700    2.1530    0.5040 hc        1 3RJ      0.094000
     43 H141        2.7530    0.7000    0.6220 hc        1 3RJ      0.094000
     44 H161       -0.9710    0.3370    1.7540 hc        1 3RJ      0.094000
     45 H162        0.0790   -1.1390    1.8890 hc        1 3RJ      0.094000
     46 H201       -2.6720   -3.2800   -3.1930 hn        1 3RJ      0.269000
     47 H241       -5.7850   -6.0850   -7.9110 hn        1 3RJ      0.252000
     48 H251       -6.0750   -8.6300   -7.5890 h5        1 3RJ      0.202000
     49 H291       -2.8410   -5.4900   -2.7260 ha        1 3RJ      0.146000
     50 N08        -2.1140    1.3310   -3.8960 nh        1 3RJ     -0.212000
@<TRIPOS>BOND
     1    1   17 1   
     2    1   18 1   
     3    1   19 1   
     4    1   30 1   
     5    2   18 1   
     6    2   19 1   
     7    2   31 1   
     8    2   32 1   
     9    3   14 1   
    10    3   17 1   
    11    3   33 1   
    12    4    5 1   
    13    4   22 1   
    14    4   28 1   
    15    5   23 1   
    16    5   34 1   
    17    5   35 1   
    18    6   27 1   
    19    6   28 1   
    20    7    8 1   
    21    7   12 1   
    22    7   29 1   
    23    8    9 1   
    24    8   36 1   
    25    8   37 1   
    26    9   10 1   
    27    9   38 1   
    28   10   11 1   
    29   10   39 1   
    30   11   12 1   
    31   12   13 1   
    32   13   20 1   
    33   13   50 1   
    34   14   15 1   
    35   14   50 1   
    36   15   16 1   
    37   15   41 1   
    38   16   17 1   
    39   18   42 1   
    40   18   43 1   
    41   19   44 1   
    42   19   45 1   
    43   20   21 1   
    44   21   22 1   
    45   21   29 1   
    46   22   46 1   
    47   23   24 1   
    48   23   27 1   
    49   24   25 1   
    50   24   47 1   
    51   25   26 1   
    52   25   48 1   
    53   26   27 1   
    54   28   49 1   
    55   40   50 1   
@<TRIPOS>SUBSTRUCTURE
     1 3RJ         1 TEMP              0 ****  ****    0 ROOT
