@<TRIPOS>MOLECULE
3RJ
   50    53     1     0     0
SMALL
bcc


@<TRIPOS>ATOM
      1 C13        -0.3890    1.4640    0.6580 c2        1 3RJ     -0.108000
      2 C15         0.6150   -2.3460    0.1020 c2        1 3RJ     -0.222000
      3 C17        -1.3090    1.2770   -1.7200 c2        1 3RJ     -0.188000
      4 C21        -3.0350   -4.1610   -4.1050 c2        1 3RJ      0.115000
      5 C22        -3.6230   -4.5000   -5.4500 c3        1 3RJ     -0.088000
      6 C28        -2.7640   -6.5550   -3.4310 c1        1 3RJ      0.004000
      7 C01        -3.9300   -0.5060   -6.2850 c2        1 3RJ      0.123000
      8 C02        -4.5330   -0.4980   -7.6630 c3        1 3RJ     -0.128000
      9 C03        -4.7820    0.8500   -8.2250 c2        1 3RJ     -0.103000
     10 C04        -4.4970    1.9940   -7.5690 c2        1 3RJ     -0.174000
     11 C05        -3.9230    1.9930   -6.2570 c1        1 3RJ     -0.117000
     12 C06        -3.6480    0.7500   -5.6700 c2        1 3RJ     -0.309000
     13 C07        -3.0540    0.6960   -4.3420 c2        1 3RJ      0.283000
     14 C09        -2.2580    2.0280   -2.4430 c2        1 3RJ      0.029000
     15 N10        -2.7300    3.0290   -1.5450 na        1 3RJ     -0.171000
     16 N11        -2.0950    2.9850   -0.3810 n2        1 3RJ     -0.064000
     17 C12        -1.2420    1.9140   -0.4200 c2        1 3RJ     -0.082000
     18 C14         1.2440   -1.8250   -0.9430 c2        1 3RJ     -0.222000
     19 C16        -0.2740    2.0610    1.8450 c2        1 3RJ     -0.189000
     20 N18        -2.8060   -0.4980   -3.7210 n2        1 3RJ     -0.301000
     21 C19        -3.1340   -1.6460   -4.4200 c2        1 3RJ      0.245000
     22 N20        -2.8600   -2.8300   -3.7280 nu        1 3RJ     -0.242000
     23 C23        -3.7250   -5.9560   -5.6470 c2        1 3RJ     -0.073000
     24 N24        -4.2080   -6.6480   -6.7400 na        1 3RJ     -0.202000
     25 C25        -4.0830   -8.0220   -6.4210 c2        1 3RJ     -0.107000
     26 N26        -3.5540   -8.2190   -5.2030 n2        1 3RJ     -0.051000
     27 C27        -3.3140   -6.9380   -4.6810 c2        1 3RJ     -0.156000
     28 C29        -2.6590   -5.1520   -3.2170 c2        1 3RJ     -0.276000
     29 N30        -3.6900   -1.6910   -5.6990 n2        1 3RJ     -0.290000
     30 H131        0.1840    0.5490    0.4180 ha        1 3RJ      0.130000
     31 H152       -0.1220   -1.7840    0.6920 ha        1 3RJ      0.111000
     32 H151        0.7890   -3.3740    0.4470 ha        1 3RJ      0.111000
     33 H171       -0.7550    0.4060   -2.0500 ha        1 3RJ      0.179000
     34 H221       -4.6500   -4.0420   -5.5370 hc        1 3RJ      0.146000
     35 H281       -2.9750   -4.0620   -6.2630 hc        1 3RJ      0.146000
     36 H021       -5.5080   -1.0640   -7.6380 hc        1 3RJ      0.137500
     37 H031       -3.8470   -1.0580   -8.3620 hc        1 3RJ      0.137500
     38 H041       -5.2260    0.8500   -9.2350 ha        1 3RJ      0.132000
     39 H051       -4.6980    2.9770   -8.0240 ha        1 3RJ      0.148000
     40 H081       -2.9820    2.7150   -4.2760 hn        1 3RJ      0.294000
     41 H111       -3.2780    3.8240   -1.7810 hn        1 3RJ      0.270000
     42 H142        1.0700   -0.7960   -1.2880 ha        1 3RJ      0.111000
     43 H141        1.9820   -2.3850   -1.5320 ha        1 3RJ      0.111000
     44 H161        0.3940    1.6680    2.6240 ha        1 3RJ      0.120500
     45 H162       -0.8270    2.9690    2.1190 ha        1 3RJ      0.120500
     46 H201       -2.4660   -2.7030   -2.8110 hn        1 3RJ      0.270000
     47 H241       -4.5680   -6.2680   -7.5750 hn        1 3RJ      0.252000
     48 H251       -4.3970   -8.8030   -7.1210 h5        1 3RJ      0.202000
     49 H291       -2.2300   -4.8800   -2.2340 ha        1 3RJ      0.147000
     50 N08        -2.7230    1.8930   -3.7510 nu        1 3RJ     -0.212000
@<TRIPOS>BOND
     1    1   17 1   
     2    1   19 1   
     3    1   30 1   
     4    2   18 1   
     5    2   31 1   
     6    2   32 1   
     7    3   14 1   
     8    3   17 1   
     9    3   33 1   
    10    4    5 1   
    11    4   22 1   
    12    4   28 1   
    13    5   23 1   
    14    5   34 1   
    15    5   35 1   
    16    6   27 1   
    17    6   28 1   
    18    7    8 1   
    19    7   12 1   
    20    7   29 1   
    21    8    9 1   
    22    8   36 1   
    23    8   37 1   
    24    9   10 1   
    25    9   38 1   
    26   10   11 1   
    27   10   39 1   
    28   11   12 1   
    29   12   13 1   
    30   13   20 1   
    31   13   50 1   
    32   14   15 1   
    33   14   50 1   
    34   15   16 1   
    35   15   41 1   
    36   16   17 1   
    37   18   42 1   
    38   18   43 1   
    39   19   44 1   
    40   19   45 1   
    41   20   21 1   
    42   21   22 1   
    43   21   29 1   
    44   22   46 1   
    45   23   24 1   
    46   23   27 1   
    47   24   25 1   
    48   24   47 1   
    49   25   26 1   
    50   25   48 1   
    51   26   27 1   
    52   28   49 1   
    53   40   50 1   
@<TRIPOS>SUBSTRUCTURE
     1 3RJ         1 TEMP              0 ****  ****    0 ROOT
