@<TRIPOS>MOLECULE
3RK
   24    24     1     0     0
SMALL
bcc


@<TRIPOS>ATOM
      1 OAA        -0.0920    0.6340   -0.0390 oh        1 3RK     -0.597800
      2 OAB         5.5310    0.3270    1.3770 oh        1 3RK     -0.597800
      3 OAC         0.9770   -0.8140    2.0950 oh        1 3RK     -0.614800
      4 OAD         3.5620   -0.7780    2.6860 oh        1 3RK     -0.614800
      5 CAE         2.0100    0.8930   -1.0830 c3        1 3RK      0.160800
      6 CAF         4.4160    0.6580   -0.6840 c3        1 3RK      0.160800
      7 NAG         3.2720    0.3330   -1.4960 n7        1 3RK     -0.815200
      8 CAH         1.1980    0.0480   -0.0800 c3        1 3RK      0.098100
      9 CAI         4.2430    0.6150    0.8470 c3        1 3RK      0.098100
     10 CAJ         1.8100    0.0470    1.3310 c3        1 3RK      0.095100
     11 CAK         3.2590   -0.4620    1.3300 c3        1 3RK      0.095100
     12 HOAA       -0.5940    0.1490    0.6310 ho        1 3RK      0.416500
     13 HOAC        1.3840   -0.9080    2.9660 ho        1 3RK      0.425500
     14 HOAD        4.3420   -1.3470    2.6700 ho        1 3RK      0.425500
     15 HAE         2.1660    1.9190   -0.6500 h1        1 3RK      0.069700
     16 HAEA        1.3760    1.0030   -2.0100 h1        1 3RK      0.069700
     17 HAF         5.2630   -0.0320   -0.9640 h1        1 3RK      0.069700
     18 HAFA        4.7310    1.7080   -0.9500 h1        1 3RK      0.069700
     19 HNAG        3.1920   -0.6590   -1.6270 hn        1 3RK      0.363800
     20 HAH         1.1100   -1.0180   -0.4370 h1        1 3RK      0.046700
     21 HAI         3.8980    1.6210    1.2170 h1        1 3RK      0.046700
     22 HAJ         1.7690    1.0830    1.7700 h1        1 3RK      0.056700
     23 HAK         3.3440   -1.3910    0.7020 h1        1 3RK      0.056700
     24 HOAB        5.5080    0.5770    2.3100 ho        1 3RK      0.416500
@<TRIPOS>BOND
     1    1    8 1   
     2    1   12 1   
     3    2    9 1   
     4    2   24 1   
     5    3   10 1   
     6    3   13 1   
     7    4   11 1   
     8    4   14 1   
     9    5    7 1   
    10    5    8 1   
    11    5   15 1   
    12    5   16 1   
    13    6    7 1   
    14    6    9 1   
    15    6   17 1   
    16    6   18 1   
    17    7   19 1   
    18    8   10 1   
    19    8   20 1   
    20    9   11 1   
    21    9   21 1   
    22   10   11 1   
    23   10   22 1   
    24   11   23 1   
@<TRIPOS>SUBSTRUCTURE
     1 3RK         1 TEMP              0 ****  ****    0 ROOT
