@<TRIPOS>MOLECULE
3RK
   24    24     1     0     0
SMALL
bcc


@<TRIPOS>ATOM
      1 OAA        -0.0530    0.2520   -0.2220 oh        1 3RK     -0.605800
      2 OAB         5.4880    0.1470    1.4100 oh        1 3RK     -0.605800
      3 OAC         0.9040   -0.9780    1.9760 oh        1 3RK     -0.615300
      4 OAD         3.4300   -0.4770    2.9510 oh        1 3RK     -0.615300
      5 CAE         2.0060    1.2300   -0.8270 c3        1 3RK      0.145800
      6 CAF         4.2670    0.2650   -0.6630 c3        1 3RK      0.145800
      7 NAG         3.2880    0.9950   -1.4370 n3        1 3RK     -0.820200
      8 CAH         1.3440    0.0350   -0.1110 c3        1 3RK      0.112600
      9 CAI         4.2180    0.4840    0.8590 c3        1 3RK      0.112600
     10 CAJ         1.7630   -0.0240    1.3660 c3        1 3RK      0.115100
     11 CAK         3.2240   -0.4680    1.5450 c3        1 3RK      0.115100
     12 HOAA       -0.4890   -0.3950    0.3500 ho        1 3RK      0.421000
     13 HOAC        1.1820   -1.0560    2.8980 ho        1 3RK      0.431500
     14 HOAD        4.3630   -0.6790    3.1030 ho        1 3RK      0.431500
     15 HAE         2.1240    2.0700   -0.0840 h1        1 3RK      0.054450
     16 HAEA        1.2950    1.5890   -1.6260 h1        1 3RK      0.054450
     17 HAF         5.2780    0.6090   -1.0310 h1        1 3RK      0.054450
     18 HAFA        4.2150   -0.8490   -0.8490 h1        1 3RK      0.054450
     19 HNAG        3.1780    0.5460   -2.3290 hn        1 3RK      0.368800
     20 HAH         1.6040   -0.9420   -0.6080 h1        1 3RK      0.052700
     21 HAI         3.9690    1.5500    1.1150 h1        1 3RK      0.052700
     22 HAJ         1.6100    0.9780    1.8560 h1        1 3RK      0.059700
     23 HAK         3.3610   -1.5120    1.1470 h1        1 3RK      0.059700
     24 HOAB        6.1060    0.8330    1.1320 ho        1 3RK      0.421000
@<TRIPOS>BOND
     1    1    8 1   
     2    1   12 1   
     3    2    9 1   
     4    2   24 1   
     5    3   10 1   
     6    3   13 1   
     7    4   11 1   
     8    4   14 1   
     9    5    7 1   
    10    5    8 1   
    11    5   15 1   
    12    5   16 1   
    13    6    7 1   
    14    6    9 1   
    15    6   17 1   
    16    6   18 1   
    17    7   19 1   
    18    8   10 1   
    19    8   20 1   
    20    9   11 1   
    21    9   21 1   
    22   10   11 1   
    23   10   22 1   
    24   11   23 1   
@<TRIPOS>SUBSTRUCTURE
     1 3RK         1 TEMP              0 ****  ****    0 ROOT
