@<TRIPOS>MOLECULE
3RK
   24    24     1     0     0
SMALL
bcc


@<TRIPOS>ATOM
      1 OAA         2.8710    0.0210   -0.1870 oh        1 3RK     -0.606800
      2 OAB        -2.8570    0.0850    0.1030 oh        1 3RK     -0.606800
      3 OAC         1.3100   -2.0560    0.4080 oh        1 3RK     -0.587300
      4 OAD        -1.3450   -2.0280   -0.3600 oh        1 3RK     -0.587300
      5 CAE         1.0680    1.5840   -0.5940 c3        1 3RK      0.129800
      6 CAF        -1.0720    1.6190    0.5940 c3        1 3RK      0.129800
      7 NAG         0.0240    2.3680    0.0170 n3        1 3RK     -0.814200
      8 CAH         1.5260    0.3270    0.1670 c3        1 3RK      0.085600
      9 CAI        -1.4920    0.3680   -0.1940 c3        1 3RK      0.085600
     10 CAJ         0.7290   -0.9290   -0.2310 c3        1 3RK      0.156100
     11 CAK        -0.7330   -0.8990    0.2450 c3        1 3RK      0.156100
     12 HOAA        3.4270    0.7060    0.2010 ho        1 3RK      0.410500
     13 HOAC        2.2100   -2.1340    0.0640 ho        1 3RK      0.419500
     14 HOAD       -2.2520   -2.0630   -0.0280 ho        1 3RK      0.419500
     15 HAE         0.7110    1.2720   -1.6170 h1        1 3RK      0.050950
     16 HAEA        1.9630    2.2520   -0.7500 h1        1 3RK      0.050950
     17 HAF        -0.8630    1.3020    1.6580 h1        1 3RK      0.050950
     18 HAFA       -1.9530    2.3250    0.6300 h1        1 3RK      0.050950
     19 HNAG        0.4040    2.9800    0.7170 hn        1 3RK      0.362800
     20 HAH         1.4570    0.4740    1.2810 h1        1 3RK      0.054700
     21 HAI        -1.3730    0.5160   -1.3030 h1        1 3RK      0.054700
     22 HAJ         0.7620   -1.0620   -1.3480 h1        1 3RK      0.061200
     23 HAK        -0.7700   -0.9980    1.3650 h1        1 3RK      0.061200
     24 HOAB       -3.3870    0.7480   -0.3540 ho        1 3RK      0.410500
@<TRIPOS>BOND
     1    1    8 1   
     2    1   12 1   
     3    2    9 1   
     4    2   24 1   
     5    3   10 1   
     6    3   13 1   
     7    4   11 1   
     8    4   14 1   
     9    5    7 1   
    10    5    8 1   
    11    5   15 1   
    12    5   16 1   
    13    6    7 1   
    14    6    9 1   
    15    6   17 1   
    16    6   18 1   
    17    7   19 1   
    18    8   10 1   
    19    8   20 1   
    20    9   11 1   
    21    9   21 1   
    22   10   11 1   
    23   10   22 1   
    24   11   23 1   
@<TRIPOS>SUBSTRUCTURE
     1 3RK         1 TEMP              0 ****  ****    0 ROOT
