@<TRIPOS>MOLECULE
3RK
   24    24     1     0     0
SMALL
bcc


@<TRIPOS>ATOM
      1 OAA        -2.8050   -0.1350   -0.3720 oh        1 3RK     -0.605800
      2 OAB         2.7530    0.0720    0.3730 oh        1 3RK     -0.605800
      3 OAC        -1.6550   -1.0570    1.8160 oh        1 3RK     -0.615300
      4 OAD         1.0580   -0.2720    2.4200 oh        1 3RK     -0.615300
      5 CAE        -0.8970    1.0890   -1.1180 c3        1 3RK      0.145800
      6 CAF         1.0680   -0.1720   -1.2960 c3        1 3RK      0.145800
      7 NAG         0.2170    0.7620   -1.9410 n3        1 3RK     -0.820200
      8 CAH        -1.3960   -0.1350   -0.3720 c3        1 3RK      0.112600
      9 CAI         1.3790    0.2690    0.1180 c3        1 3RK      0.112600
     10 CAJ        -0.8980   -0.1350    1.0610 c3        1 3RK      0.115100
     11 CAK         0.5660   -0.5250    1.1230 c3        1 3RK      0.115100
     12 HOAA       -3.1010   -0.7000   -0.9900 ho        1 3RK      0.421000
     13 HOAB        3.1600    0.8590    0.4240 ho        1 3RK      0.421000
     14 HOAC       -1.4590   -1.8830    1.5570 ho        1 3RK      0.431500
     15 HOAD        1.3050   -1.0370    2.7960 ho        1 3RK      0.431500
     16 HAE        -0.6300    1.7720   -0.4730 h1        1 3RK      0.054450
     17 HAEA       -1.6170    1.4400   -1.6770 h1        1 3RK      0.054450
     18 HAF         0.6280   -1.0430   -1.2710 h1        1 3RK      0.054450
     19 HAFA        1.9010   -0.2480   -1.8000 h1        1 3RK      0.054450
     20 HNAG        0.6870    1.5200   -2.1320 hn        1 3RK      0.368800
     21 HAH        -1.0750   -0.9390   -0.8230 h1        1 3RK      0.052700
     22 HAI         1.1680    1.2180    0.2120 h1        1 3RK      0.052700
     23 HAJ        -1.0090    0.7580    1.4390 h1        1 3RK      0.059700
     24 HAK         0.6530   -1.4770    0.9260 h1        1 3RK      0.059700
@<TRIPOS>BOND
     1    1    8 1   
     2    1   12 1   
     3    2    9 1   
     4    2   13 1   
     5    3   10 1   
     6    3   14 1   
     7    4   11 1   
     8    4   15 1   
     9    5    7 1   
    10    5    8 1   
    11    5   16 1   
    12    5   17 1   
    13    6    7 1   
    14    6    9 1   
    15    6   18 1   
    16    6   19 1   
    17    7   20 1   
    18    8   10 1   
    19    8   21 1   
    20    9   11 1   
    21    9   22 1   
    22   10   11 1   
    23   10   23 1   
    24   11   24 1   
@<TRIPOS>SUBSTRUCTURE
     1 3RK         1 TEMP              0 ****  ****    0 ROOT
