@<TRIPOS>MOLECULE
3RK
   24    24     1     0     0
SMALL
bcc


@<TRIPOS>ATOM
      1 OAA         0.0150    0.0660    0.0650 oh        1 3RK     -0.598300
      2 OAB         5.7290    0.3000    0.9640 oh        1 3RK     -0.598300
      3 OAC         1.2980   -0.9400    2.2470 oh        1 3RK     -0.614800
      4 OAD         3.9370   -0.3380    2.8290 oh        1 3RK     -0.614800
      5 CAE         1.9160    1.2050   -0.7860 c3        1 3RK      0.160800
      6 CAF         4.2220    0.3230   -0.8330 c3        1 3RK      0.160800
      7 NAG         3.1650    1.0630   -1.4880 n3        1 3RK     -0.820200
      8 CAH         1.4310   -0.0210    0.0140 c3        1 3RK      0.117100
      9 CAI         4.3620    0.5570    0.6820 c3        1 3RK      0.117100
     10 CAJ         1.9930    0.0080    1.4430 c3        1 3RK      0.093600
     11 CAK         3.4700   -0.4050    1.4890 c3        1 3RK      0.093600
     12 HOAA       -0.3020   -0.7920    0.3760 ho        1 3RK      0.416500
     13 HOAC        0.4560   -0.5350    2.4850 ho        1 3RK      0.421000
     14 HOAD        3.3700   -0.9220    3.3500 ho        1 3RK      0.421000
     15 HAE         1.1110    1.4780   -1.5270 h1        1 3RK      0.058200
     16 HAEA        2.0230    2.0740   -0.0750 h1        1 3RK      0.058200
     17 HAF         4.1300   -0.7910   -1.0000 h1        1 3RK      0.058200
     18 HAFA        5.1880    0.6550   -1.3150 h1        1 3RK      0.058200
     19 HNAG        3.0160    0.6710   -2.4000 hn        1 3RK      0.367800
     20 HAH         1.7320   -0.9820   -0.4890 h1        1 3RK      0.052200
     21 HAI         4.1200    1.6200    0.9640 h1        1 3RK      0.052200
     22 HAJ         1.8740    1.0370    1.8850 h1        1 3RK      0.061200
     23 HAK         3.5840   -1.4580    1.1090 h1        1 3RK      0.061200
     24 HOAB        5.8320    0.3320    1.9250 ho        1 3RK      0.416500
@<TRIPOS>BOND
     1    1    8 1   
     2    1   12 1   
     3    2    9 1   
     4    2   24 1   
     5    3   10 1   
     6    3   13 1   
     7    4   11 1   
     8    4   14 1   
     9    5    7 1   
    10    5    8 1   
    11    5   15 1   
    12    5   16 1   
    13    6    7 1   
    14    6    9 1   
    15    6   17 1   
    16    6   18 1   
    17    7   19 1   
    18    8   10 1   
    19    8   20 1   
    20    9   11 1   
    21    9   21 1   
    22   10   11 1   
    23   10   22 1   
    24   11   23 1   
@<TRIPOS>SUBSTRUCTURE
     1 3RK         1 TEMP              0 ****  ****    0 ROOT
