@<TRIPOS>MOLECULE
3RL
   35    36     1     0     0
SMALL
bcc


@<TRIPOS>ATOM
      1 CAA         0.1020   -0.0010   -0.1910 c3        1 3RL      0.113700
      2 OAM         1.5140   -0.0840   -0.0420 os        1 3RL     -0.326900
      3 CAR         1.9980   -0.0770    1.2520 ca        1 3RL      0.156600
      4 CAJ         3.3940   -0.1600    1.3540 ca        1 3RL     -0.183000
      5 CAL         1.1850    0.0040    2.3900 ca        1 3RL     -0.275000
      6 CAS         1.8080   -0.0000    3.6440 ca        1 3RL      0.156600
      7 OAN         1.1280    0.0710    4.8450 os        1 3RL     -0.326900
      8 CAB        -0.2900    0.1440    4.7650 c3        1 3RL      0.113700
      9 CAK         3.2040   -0.0800    3.7700 ca        1 3RL     -0.183000
     10 CAQ         3.9980   -0.1550    2.6200 ca        1 3RL      0.008200
     11 CAE         5.4480   -0.2420    2.6970 ce        1 3RL     -0.117200
     12 CAD         6.1780    0.1540    3.7530 cf        1 3RL     -0.087200
     13 CAP         7.6250    0.0760    3.8390 ca        1 3RL     -0.094800
     14 CAH         8.2360    0.1550    5.1040 ca        1 3RL     -0.080500
     15 CAF         9.6160    0.0840    5.2400 ca        1 3RL     -0.186500
     16 CAO        10.4090   -0.0630    4.0890 ca        1 3RL      0.129100
     17 OAC        11.7690   -0.1270    4.2850 oh        1 3RL     -0.496100
     18 CAG         9.8210   -0.1360    2.8200 ca        1 3RL     -0.186500
     19 CAI         8.4350   -0.0660    2.7040 ca        1 3RL     -0.080500
     20 HAC        -0.0440   -0.0230   -1.3010 h1        1 3RL      0.044200
     21 HAB        -0.3980   -0.8770    0.2890 h1        1 3RL      0.044200
     22 HAA        -0.2850    0.9550    0.2380 h1        1 3RL      0.044200
     23 HAM         4.0000   -0.2230    0.4400 ha        1 3RL      0.150500
     24 HAO         0.0940    0.0680    2.3020 ha        1 3RL      0.143000
     25 HAD        -0.7060   -0.7660    4.2680 h1        1 3RL      0.044200
     26 HAE        -0.6090    1.0670    4.2220 h1        1 3RL      0.044200
     27 HAF        -0.6090    0.1880    5.8380 h1        1 3RL      0.044200
     28 HAN         3.6510   -0.0920    4.7740 ha        1 3RL      0.150500
     29 HAH         5.9330   -0.6630    1.7980 ha        1 3RL      0.129000
     30 HAG         5.6840    0.5740    4.6490 ha        1 3RL      0.130000
     31 HAK         7.6100    0.2710    6.0020 ha        1 3RL      0.136000
     32 HAI        10.0970    0.1400    6.2270 ha        1 3RL      0.143000
     33 HAP        12.1910   -0.2270    3.4190 ho        1 3RL      0.420000
     34 HAJ        10.4470   -0.2450    1.9230 ha        1 3RL      0.143000
     35 HAL         7.9780   -0.1140    1.7040 ha        1 3RL      0.136000
@<TRIPOS>BOND
     1    1    2 1   
     2    1   20 1   
     3    1   21 1   
     4    1   22 1   
     5    2    3 1   
     6    3    4 ar  
     7    3    5 ar  
     8    4   10 ar  
     9    4   23 1   
    10    5    6 ar  
    11    5   24 1   
    12    6    7 1   
    13    6    9 ar  
    14    7    8 1   
    15    8   25 1   
    16    8   26 1   
    17    8   27 1   
    18    9   10 ar  
    19    9   28 1   
    20   10   11 1   
    21   11   12 2   
    22   11   29 1   
    23   12   13 1   
    24   12   30 1   
    25   13   14 ar  
    26   13   19 ar  
    27   14   15 ar  
    28   14   31 1   
    29   15   16 ar  
    30   15   32 1   
    31   16   17 1   
    32   16   18 ar  
    33   17   33 1   
    34   18   19 ar  
    35   18   34 1   
    36   19   35 1   
@<TRIPOS>SUBSTRUCTURE
     1 3RL         1 TEMP              0 ****  ****    0 ROOT
