@<TRIPOS>MOLECULE
3RM
   42    44     1     0     0
SMALL
bcc


@<TRIPOS>ATOM
      1 C1         -0.7250    0.8290   -0.1080 ca        1 3RM     -0.179500
      2 N1         -4.4440   -1.8420    2.5960 n3        1 3RM     -0.733600
      3 O1         -2.1150   -0.1540    1.5120 os        1 3RM     -0.350900
      4 BR1         3.3730    1.2160   -0.5930 br        1 3RM     -0.069100
      5 C2          0.5320    1.1450   -0.6100 ca        1 3RM     -0.068000
      6 N2         -6.3380   -3.5680    1.2740 nh        1 3RM     -0.703300
      7 C3          1.6880    0.7860    0.0940 ca        1 3RM     -0.057900
      8 N3         -8.2650   -5.1610    1.3450 nc        1 3RM     -0.363000
      9 C4          1.5790    0.1080    1.3110 ca        1 3RM     -0.068000
     10 N4         -8.8130   -5.9710    0.5200 nc        1 3RM     -0.186000
     11 C5          0.3250   -0.2180    1.8280 ca        1 3RM     -0.179500
     12 N5         -6.9760   -5.0990   -0.5690 na        1 3RM     -0.442700
     13 C6         -0.8240    0.1410    1.1150 ca        1 3RM      0.125100
     14 N6         -8.4050   -6.7940   -1.8250 n4        1 3RM     -0.743300
     15 C7         -2.2610   -0.6440    2.8510 c3        1 3RM      0.124400
     16 C8         -3.7670   -0.6720    3.1370 c3        1 3RM      0.167800
     17 C9         -5.7610   -2.0450    3.1820 c3        1 3RM      0.156800
     18 C10        -6.4110   -3.3640    2.7190 c3        1 3RM      0.197300
     19 C11        -5.1210   -3.1550    0.5920 c3        1 3RM      0.197300
     20 C12        -4.5200   -1.8460    1.1460 c3        1 3RM      0.156800
     21 C13        -7.1270   -4.5400    0.7250 cd        1 3RM      0.704400
     22 C14        -8.1170   -5.9620   -0.6820 cd        1 3RM      0.200400
     23 H1         -1.6380    1.1130   -0.6490 ha        1 3RM      0.146000
     24 H2          0.6090    1.6870   -1.5670 ha        1 3RM      0.154000
     25 H4          2.4820   -0.1750    1.8750 ha        1 3RM      0.154000
     26 H5          0.2600   -0.7510    2.7870 ha        1 3RM      0.146000
     27 HN5        -6.5240   -4.6590   -1.3330 hn        1 3RM      0.321700
     28 HN6        -7.6290   -7.4480   -1.9900 hn        1 3RM      0.470467
     29 HN6A       -8.5510   -6.2100   -2.6560 hn        1 3RM      0.470467
     30 H7         -1.7670    0.0630    3.5680 h1        1 3RM      0.059200
     31 H7A        -1.7940   -1.6600    2.9290 h1        1 3RM      0.059200
     32 H8         -4.2200    0.2890    2.7530 h1        1 3RM      0.059700
     33 H8A        -3.8840   -0.6960    4.2580 h1        1 3RM      0.059700
     34 H9         -6.4630   -1.1920    2.9520 h1        1 3RM      0.066200
     35 H9A        -5.6510   -2.1150    4.3010 h1        1 3RM      0.066200
     36 H10        -7.4930   -3.3370    3.0340 h1        1 3RM      0.069950
     37 H10A       -5.9040   -4.2310    3.2340 h1        1 3RM      0.069950
     38 H11        -5.3460   -2.9720   -0.4970 h1        1 3RM      0.069950
     39 H11A       -4.3520   -3.9780    0.6710 h1        1 3RM      0.069950
     40 H12        -3.4740   -1.7570    0.7330 h1        1 3RM      0.066200
     41 H12A       -5.1250   -0.9770    0.7520 h1        1 3RM      0.066200
     42 H63        -9.2650   -7.3280   -1.6280 hn        1 3RM      0.470467
@<TRIPOS>BOND
     1    1    5 ar  
     2    1   13 ar  
     3    1   23 1   
     4    2   16 1   
     5    2   17 1   
     6    2   20 1   
     7    3   13 1   
     8    3   15 1   
     9    4    7 1   
    10    5    7 ar  
    11    5   24 1   
    12    6   18 1   
    13    6   19 1   
    14    6   21 1   
    15    7    9 ar  
    16    8   10 1   
    17    8   21 2   
    18    9   11 ar  
    19    9   25 1   
    20   10   22 2   
    21   11   13 ar  
    22   11   26 1   
    23   12   21 1   
    24   12   22 1   
    25   12   27 1   
    26   14   22 1   
    27   14   28 1   
    28   14   29 1   
    29   14   42 1   
    30   15   16 1   
    31   15   30 1   
    32   15   31 1   
    33   16   32 1   
    34   16   33 1   
    35   17   18 1   
    36   17   34 1   
    37   17   35 1   
    38   18   36 1   
    39   18   37 1   
    40   19   20 1   
    41   19   38 1   
    42   19   39 1   
    43   20   40 1   
    44   20   41 1   
@<TRIPOS>SUBSTRUCTURE
     1 3RM         1 TEMP              0 ****  ****    0 ROOT
