@<TRIPOS>MOLECULE
3RM
   41    43     1     0     0
SMALL
bcc


@<TRIPOS>ATOM
      1 C1          0.0660    0.6380    0.1480 ca        1 3RM     -0.184000
      2 N1         -4.5090   -1.4480    1.6360 n3        1 3RM     -0.739600
      3 O1         -1.9180    0.2790    1.3510 os        1 3RM     -0.322900
      4 Br1         4.1060    0.4930    1.0620 br        1 3RM     -0.091100
      5 C2          1.4500    0.6970    0.0650 ca        1 3RM     -0.068500
      6 N2         -6.3610   -3.5960    1.0330 nh        1 3RM     -0.697300
      7 C3          2.2400    0.4110    1.1860 ca        1 3RM     -0.064900
      8 N3         -6.2670   -6.0730    0.4590 nc        1 3RM     -0.361000
      9 C4          1.6330    0.0650    2.3950 ca        1 3RM     -0.068500
     10 N4         -7.1070   -6.9310   -0.0580 nc        1 3RM     -0.364000
     11 C5          0.2440    0.0030    2.4960 ca        1 3RM     -0.184000
     12 N5         -8.1370   -4.9170   -0.0860 na        1 3RM     -0.426700
     13 C6         -0.5400    0.2890    1.3710 ca        1 3RM      0.144100
     14 N6         -9.4220   -6.7820   -1.0850 nv        1 3RM     -0.871500
     15 C7         -2.5610   -0.1880    2.5430 c3        1 3RM      0.127400
     16 C8         -4.0630   -0.1970    2.2220 c3        1 3RM      0.173800
     17 C9         -4.8420   -2.4560    2.6310 c3        1 3RM      0.173300
     18 C10        -5.2870   -3.7930    2.0050 c3        1 3RM      0.172800
     19 C11        -6.0100   -2.6080    0.0140 c3        1 3RM      0.172800
     20 C12        -5.5550   -1.2740    0.6410 c3        1 3RM      0.173300
     21 C13        -6.8470   -4.8140    0.4800 cd        1 3RM      0.535400
     22 C14        -8.2740   -6.2820   -0.4250 cd        1 3RM      0.504400
     23 H1         -0.5650    0.8570   -0.7250 ha        1 3RM      0.147500
     24 H2          1.9220    0.9690   -0.8920 ha        1 3RM      0.147000
     25 H4          2.2450   -0.1630    3.2820 ha        1 3RM      0.147000
     26 H5         -0.2150   -0.2700    3.4550 ha        1 3RM      0.147500
     27 HN5        -8.7960   -4.1960   -0.2190 hn        1 3RM      0.320700
     28 HN6        -9.1720   -7.5590   -1.6680 hn        1 3RM      0.387300
     29 HN6A      -10.1110   -7.0610   -0.4120 hn        1 3RM      0.387300
     30 H7         -2.3600    0.5390    3.3740 h1        1 3RM      0.046700
     31 H7A        -2.1700   -1.2010    2.8180 h1        1 3RM      0.046700
     32 H8         -4.2630    0.6480    1.5020 h1        1 3RM      0.050700
     33 H8A        -4.6100    0.0340    3.1830 h1        1 3RM      0.050700
     34 H9         -3.9170   -2.6590    3.2400 h1        1 3RM      0.040200
     35 H9A        -5.6500   -2.0970    3.3350 h1        1 3RM      0.040200
     36 H10        -5.6780   -4.4550    2.8260 h1        1 3RM      0.057200
     37 H10A       -4.3900   -4.2950    1.5410 h1        1 3RM      0.057200
     38 H11        -6.9240   -2.4010   -0.6090 h1        1 3RM      0.057200
     39 H11A       -5.1960   -2.9870   -0.6690 h1        1 3RM      0.057200
     40 H12        -6.4580   -0.7490    1.0690 h1        1 3RM      0.040200
     41 H12A       -5.1400   -0.6370   -0.1900 h1        1 3RM      0.040200
@<TRIPOS>BOND
     1    1    5 ar  
     2    1   13 ar  
     3    1   23 1   
     4    2   16 1   
     5    2   17 1   
     6    2   20 1   
     7    3   13 1   
     8    3   15 1   
     9    4    7 1   
    10    5    7 ar  
    11    5   24 1   
    12    6   18 1   
    13    6   19 1   
    14    6   21 1   
    15    7    9 ar  
    16    8   10 1   
    17    8   21 2   
    18    9   11 ar  
    19    9   25 1   
    20   10   22 2   
    21   11   13 ar  
    22   11   26 1   
    23   12   21 1   
    24   12   22 1   
    25   12   27 1   
    26   14   22 1   
    27   14   28 1   
    28   14   29 1   
    29   15   16 1   
    30   15   30 1   
    31   15   31 1   
    32   16   32 1   
    33   16   33 1   
    34   17   18 1   
    35   17   34 1   
    36   17   35 1   
    37   18   36 1   
    38   18   37 1   
    39   19   20 1   
    40   19   38 1   
    41   19   39 1   
    42   20   40 1   
    43   20   41 1   
@<TRIPOS>SUBSTRUCTURE
     1 3RM         1 TEMP              0 ****  ****    0 ROOT
