@<TRIPOS>MOLECULE
3RM
   41    43     1     0     0
SMALL
bcc


@<TRIPOS>ATOM
      1 C1          3.1290   -0.5600    1.5700 ca        1 3RM     -0.184000
      2 N1         -1.7500   -1.5780   -0.0640 n3        1 3RM     -0.739600
      3 O1          1.3050   -1.6750    0.6000 os        1 3RM     -0.322900
      4 BR1         6.7410    0.9090    0.1660 br        1 3RM     -0.091100
      5 C2          4.3820    0.0330    1.4890 ca        1 3RM     -0.068500
      6 N2         -4.4120   -0.4380   -0.2140 nh        1 3RM     -0.697300
      7 C3          5.0540    0.1060    0.2620 ca        1 3RM     -0.064900
      8 N3         -5.4860    1.7970   -0.7840 nc        1 3RM     -0.361000
      9 C4          4.4620   -0.4210   -0.8870 ca        1 3RM     -0.068500
     10 N4         -6.6620    2.3320   -0.5850 nc        1 3RM     -0.364000
     11 C5          3.2050   -1.0220   -0.8230 ca        1 3RM     -0.184000
     12 N5         -6.6810    0.3160    0.4440 na        1 3RM     -0.426700
     13 C6          2.5390   -1.0910    0.4060 ca        1 3RM      0.144100
     14 N6         -8.7460    1.6580    0.6950 nh        1 3RM     -0.871500
     15 C7          0.6270   -2.1170   -0.5820 c3        1 3RM      0.127400
     16 C8         -0.7430   -2.6230   -0.1040 c3        1 3RM      0.173800
     17 C9         -2.4110   -1.3750   -1.3440 c3        1 3RM      0.173300
     18 C10        -3.4590   -0.2450   -1.3060 c3        1 3RM      0.172800
     19 C11        -3.7460   -0.6070    1.0770 c3        1 3RM      0.172800
     20 C12        -2.6890   -1.7300    1.0350 c3        1 3RM      0.173300
     21 C13        -5.4370    0.5480   -0.1840 cd        1 3RM      0.535400
     22 C14        -7.4430    1.4760    0.1730 cd        1 3RM      0.504400
     23 H1          2.5900   -0.6210    2.5260 ha        1 3RM      0.147500
     24 H2          4.8410    0.4490    2.4000 ha        1 3RM      0.147000
     25 H4          4.9810   -0.3680   -1.8570 ha        1 3RM      0.147000
     26 H5          2.7570   -1.4320   -1.7380 ha        1 3RM      0.147500
     27 HN5        -6.9570   -0.4770    0.9590 hn        1 3RM      0.320700
     28 HN6        -8.9220    2.6330    0.8480 hn        1 3RM      0.387300
     29 HN6A       -9.4250    1.2770    0.0630 hn        1 3RM      0.387300
     30 H7          0.5450   -1.2740   -1.3160 h1        1 3RM      0.046700
     31 H7A         1.2030   -2.9660   -1.0370 h1        1 3RM      0.046700
     32 H8         -0.6050   -3.0520    0.9300 h1        1 3RM      0.050700
     33 H8A        -1.0430   -3.4680   -0.7910 h1        1 3RM      0.050700
     34 H9         -1.6250   -1.0820   -2.0960 h1        1 3RM      0.040200
     35 H9A        -2.9080   -2.3210   -1.7130 h1        1 3RM      0.040200
     36 H10        -4.0320   -0.2620   -2.2740 h1        1 3RM      0.057200
     37 H10A       -2.9250    0.7450   -1.2260 h1        1 3RM      0.057200
     38 H11        -3.2500    0.3480    1.4160 h1        1 3RM      0.057200
     39 H11A       -4.5210   -0.8920    1.8410 h1        1 3RM      0.057200
     40 H12        -3.2210   -2.7250    0.9980 h1        1 3RM      0.040200
     41 H12A       -2.1070   -1.6800    1.9980 h1        1 3RM      0.040200
@<TRIPOS>BOND
     1    1    5 ar  
     2    1   13 ar  
     3    1   23 1   
     4    2   16 1   
     5    2   17 1   
     6    2   20 1   
     7    3   13 1   
     8    3   15 1   
     9    4    7 1   
    10    5    7 ar  
    11    5   24 1   
    12    6   18 1   
    13    6   19 1   
    14    6   21 1   
    15    7    9 ar  
    16    8   10 1   
    17    8   21 2   
    18    9   11 ar  
    19    9   25 1   
    20   10   22 2   
    21   11   13 ar  
    22   11   26 1   
    23   12   21 1   
    24   12   22 1   
    25   12   27 1   
    26   14   22 1   
    27   14   28 1   
    28   14   29 1   
    29   15   16 1   
    30   15   30 1   
    31   15   31 1   
    32   16   32 1   
    33   16   33 1   
    34   17   18 1   
    35   17   34 1   
    36   17   35 1   
    37   18   36 1   
    38   18   37 1   
    39   19   20 1   
    40   19   38 1   
    41   19   39 1   
    42   20   40 1   
    43   20   41 1   
@<TRIPOS>SUBSTRUCTURE
     1 3RM         1 TEMP              0 ****  ****    0 ROOT
