@<TRIPOS>MOLECULE
3RM
   41    39     1     0     0
SMALL
bcc


@<TRIPOS>ATOM
      1 C1          3.9650    0.5580   -2.3890 c1        1 3RM     -0.079500
      2 N1          0.1760    0.5040    1.5820 n3        1 3RM     -0.725600
      3 O1          2.6760   -0.7410   -0.7670 os        1 3RM     -0.315400
      4 BR1         7.8790    0.1940   -3.9430 br        1 3RM     -0.183800
      5 C2          5.0860    0.6790   -3.1980 c1        1 3RM     -0.079500
      6 N2         -2.6600    0.2200    1.5240 nh        1 3RM     -0.143400
      7 C3          6.2120   -0.0970   -2.9480 c1        1 3RM      0.028800
      8 N3         -3.8700   -1.0160   -0.2630 nc        1 3RM     -0.350000
      9 C4          6.2170   -0.9980   -1.8840 c1        1 3RM     -0.014500
     10 N4         -5.1660   -1.1350   -0.6520 nd        1 3RM     -0.371000
     11 C5          5.1000   -1.1210   -1.0740 c1        1 3RM     -0.101500
     12 N5         -5.1260    0.0690    1.1770 nc        1 3RM     -0.713000
     13 C6          3.9670   -0.3400   -1.3250 c1        1 3RM      0.126600
     14 N6         -7.3410   -0.2020    0.0220 nh        1 3RM     -0.872500
     15 C7          2.1050    0.2100    0.0720 c3        1 3RM      0.127400
     16 C8          0.6270   -0.1870    0.3780 c3        1 3RM      0.154800
     17 C9         -0.4990   -0.4310    2.4490 c3        1 3RM      0.164800
     18 C10        -1.8360   -0.8740    1.8900 c3        1 3RM     -0.043200
     19 C11        -1.9860    1.1530    0.6560 c3        1 3RM     -0.043200
     20 C12        -0.6430    1.5970    1.2170 c3        1 3RM      0.164800
     21 C13        -3.8420   -0.2720    0.8670 cc        1 3RM      0.493000
     22 C14        -5.9360   -0.4620    0.2440 cd        1 3RM      0.687900
     23 H1          3.1790    1.1010   -2.5660 ha        1 3RM      0.087500
     24 H2          5.0850    1.3050   -3.9370 ha        1 3RM      0.087500
     25 H4          6.9980   -1.5340   -1.7120 ha        1 3RM      0.091500
     26 H5          5.1050   -1.7320   -0.3510 ha        1 3RM      0.097500
     27 HN5        -5.3980    0.5880    1.9200 DU        1 3RM      0.274000
     28 HN6        -7.7290   -0.4710   -0.7320 hn        1 3RM      0.389800
     29 HN6A       -7.8450    0.2750    0.6710 hn        1 3RM      0.389800
     30 H7          2.1240    1.0940   -0.3720 h1        1 3RM      0.047700
     31 H7A         2.6070    0.2540    0.8990 h1        1 3RM      0.047700
     32 H8          0.0750    0.0610   -0.3560 h1        1 3RM      0.053200
     33 H8A         0.5700   -1.1420    0.5150 h1        1 3RM      0.053200
     34 H9         -0.6430   -0.0040    3.3250 h1        1 3RM      0.062450
     35 H9A         0.0740   -1.2250    2.5700 h1        1 3RM      0.062450
     36 H10        -2.2830   -1.3930    2.5450 h1        1 3RM      0.054700
     37 H10A       -1.6800   -1.4270    1.1010 h1        1 3RM      0.054700
     38 H11        -2.5430    1.9270    0.5350 h1        1 3RM      0.054700
     39 H11A       -1.8420    0.7350   -0.2020 h1        1 3RM      0.054700
     40 H12        -0.7920    2.1340    1.9870 h1        1 3RM      0.062450
     41 H12A       -0.1670    2.1440    0.5250 h1        1 3RM      0.062450
@<TRIPOS>BOND
     1    1    5 3   
     2    1   23 1   
     3    2   16 1   
     4    2   17 1   
     5    2   20 1   
     6    3   13 1   
     7    3   15 1   
     8    4    7 1   
     9    5   24 1   
    10    6   18 1   
    11    6   19 1   
    12    6   21 2   
    13    7    9 3   
    14    8   10 2   
    15    8   21 1   
    16    9   25 1   
    17   10   22 1   
    18   11   13 3   
    19   11   26 1   
    20   12   21 1   
    21   12   22 2   
    22   14   22 1   
    23   14   28 1   
    24   14   29 1   
    25   15   16 1   
    26   15   30 1   
    27   15   31 1   
    28   16   32 1   
    29   16   33 1   
    30   17   18 1   
    31   17   34 1   
    32   17   35 1   
    33   18   36 1   
    34   18   37 1   
    35   19   20 1   
    36   19   38 1   
    37   19   39 1   
    38   20   40 1   
    39   20   41 1   
@<TRIPOS>SUBSTRUCTURE
     1 3RM         1 TEMP              0 ****  ****    0 ROOT
