@<TRIPOS>MOLECULE
3RM
   41    43     1     0     0
SMALL
bcc


@<TRIPOS>ATOM
      1 C1          0.0650    0.6350    0.1490 ca        1 3RM     -0.184000
      2 N1         -4.5100   -1.4480    1.6380 n3        1 3RM     -0.739600
      3 O1         -1.9180    0.2790    1.3530 os        1 3RM     -0.322900
      4 BR1         4.1050    0.4870    1.0620 br        1 3RM     -0.091100
      5 C2          1.4500    0.6920    0.0660 ca        1 3RM     -0.068500
      6 N2         -6.3620   -3.5950    1.0320 nh        1 3RM     -0.697300
      7 C3          2.2400    0.4070    1.1870 ca        1 3RM     -0.064900
      8 N3         -6.2670   -6.0710    0.4560 nc        1 3RM     -0.361000
      9 C4          1.6330    0.0620    2.3960 ca        1 3RM     -0.068500
     10 N4         -7.1060   -6.9290   -0.0620 nc        1 3RM     -0.364000
     11 C5          0.2440    0.0020    2.4970 ca        1 3RM     -0.184000
     12 N5         -8.1360   -4.9150   -0.0890 na        1 3RM     -0.426700
     13 C6         -0.5400    0.2880    1.3730 ca        1 3RM      0.144100
     14 N6         -9.4190   -6.7800   -1.0910 nh        1 3RM     -0.871500
     15 C7         -2.5610   -0.1870    2.5460 c3        1 3RM      0.127400
     16 C8         -4.0640   -0.1960    2.2250 c3        1 3RM      0.173800
     17 C9         -4.8440   -2.4550    2.6320 c3        1 3RM      0.173300
     18 C10        -5.2880   -3.7920    2.0050 c3        1 3RM      0.172800
     19 C11        -6.0100   -2.6060    0.0140 c3        1 3RM      0.172800
     20 C12        -5.5540   -1.2730    0.6420 c3        1 3RM      0.173300
     21 C13        -6.8460   -4.8120    0.4780 cd        1 3RM      0.535400
     22 C14        -8.2720   -6.2800   -0.4290 cd        1 3RM      0.504400
     23 H1         -0.5660    0.8540   -0.7240 ha        1 3RM      0.147500
     24 H2          1.9220    0.9630   -0.8920 ha        1 3RM      0.147000
     25 H4          2.2450   -0.1650    3.2830 ha        1 3RM      0.147000
     26 H5         -0.2160   -0.2700    3.4580 ha        1 3RM      0.147500
     27 HN5        -8.7950   -4.1950   -0.2230 hn        1 3RM      0.320700
     28 HN6       -10.1100   -7.0590   -0.4180 hn        1 3RM      0.387300
     29 HN6A       -9.1690   -7.5560   -1.6740 hn        1 3RM      0.387300
     30 H7         -2.3600    0.5400    3.3760 h1        1 3RM      0.046700
     31 H7A        -2.1710   -1.2010    2.8200 h1        1 3RM      0.046700
     32 H8         -4.2640    0.6490    1.5050 h1        1 3RM      0.050700
     33 H8A        -4.6110    0.0330    3.1870 h1        1 3RM      0.050700
     34 H9         -3.9200   -2.6590    3.2420 h1        1 3RM      0.040200
     35 H9A        -5.6520   -2.0970    3.3360 h1        1 3RM      0.040200
     36 H10        -5.6800   -4.4540    2.8250 h1        1 3RM      0.057200
     37 H10A       -4.3900   -4.2940    1.5420 h1        1 3RM      0.057200
     38 H11        -5.1950   -2.9840   -0.6680 h1        1 3RM      0.057200
     39 H11A       -6.9230   -2.3990   -0.6090 h1        1 3RM      0.057200
     40 H12        -6.4580   -0.7470    1.0700 h1        1 3RM      0.040200
     41 H12A       -5.1390   -0.6350   -0.1880 h1        1 3RM      0.040200
@<TRIPOS>BOND
     1    1    5 ar  
     2    1   13 ar  
     3    1   23 1   
     4    2   16 1   
     5    2   17 1   
     6    2   20 1   
     7    3   13 1   
     8    3   15 1   
     9    4    7 1   
    10    5    7 ar  
    11    5   24 1   
    12    6   18 1   
    13    6   19 1   
    14    6   21 1   
    15    7    9 ar  
    16    8   10 1   
    17    8   21 2   
    18    9   11 ar  
    19    9   25 1   
    20   10   22 2   
    21   11   13 ar  
    22   11   26 1   
    23   12   21 1   
    24   12   22 1   
    25   12   27 1   
    26   14   22 1   
    27   14   28 1   
    28   14   29 1   
    29   15   16 1   
    30   15   30 1   
    31   15   31 1   
    32   16   32 1   
    33   16   33 1   
    34   17   18 1   
    35   17   34 1   
    36   17   35 1   
    37   18   36 1   
    38   18   37 1   
    39   19   20 1   
    40   19   38 1   
    41   19   39 1   
    42   20   40 1   
    43   20   41 1   
@<TRIPOS>SUBSTRUCTURE
     1 3RM         1 TEMP              0 ****  ****    0 ROOT
