@<TRIPOS>MOLECULE
3RN
   16    16     1     0     0
SMALL
bcc


@<TRIPOS>ATOM
      1 C1          0.0310   -0.0260   -0.0230 c         1 3RN      0.570300
      2 O1         -0.6950   -0.0790   -1.0140 o         1 3RN     -0.526100
      3 C2          1.5180    0.0270    0.0020 ce        1 3RN     -0.227400
      4 O2          3.6820    0.0730   -0.9390 oh        1 3RN     -0.604800
      5 C3          1.9640    0.0780    1.2750 c2        1 3RN     -0.080200
      6 C4          0.8400    0.0660    2.2670 c3        1 3RN     -0.070200
      7 C5         -0.4380   -0.0020    1.4220 c3        1 3RN     -0.190400
      8 C6          2.2960    0.0190   -1.2540 c3        1 3RN      0.189600
      9 HO2         4.1490    0.0650   -1.7820 ho        1 3RN      0.405000
     10 H3          3.0100    0.1230    1.5920 ha        1 3RN      0.161000
     11 H4          0.8620    0.9910    2.8970 hc        1 3RN      0.065700
     12 H5         -1.0310   -0.9220    1.6450 hc        1 3RN      0.078700
     13 H6          2.0120    0.9080   -1.8840 h1        1 3RN      0.042700
     14 H6A         2.0720   -0.9200   -1.8350 h1        1 3RN      0.042700
     15 H7          0.9250   -0.8180    2.9480 hc        1 3RN      0.065700
     16 H8         -1.0940    0.8860    1.5940 hc        1 3RN      0.078700
@<TRIPOS>BOND
     1    1    2 2   
     2    1    3 1   
     3    1    7 1   
     4    3    5 2   
     5    3    8 1   
     6    4    8 1   
     7    4    9 1   
     8    5    6 1   
     9    5   10 1   
    10    6    7 1   
    11    6   11 1   
    12    6   15 1   
    13    7   12 1   
    14    7   16 1   
    15    8   13 1   
    16    8   14 1   
@<TRIPOS>SUBSTRUCTURE
     1 3RN         1 TEMP              0 ****  ****    0 ROOT
