@<TRIPOS>MOLECULE
3RN
   16    14     1     0     0
SMALL
bcc


@<TRIPOS>ATOM
      1 C1         -1.1530   -0.0730   -0.3810 c1        1 3RN      0.265000
      2 O1         -1.8670   -0.3110   -1.3350 o         1 3RN     -0.294000
      3 C2          0.2470   -0.0730   -0.3810 c2        1 3RN     -0.228000
      4 O2          1.0020   -0.5360   -2.6060 oh        1 3RN     -0.325000
      5 C3          0.8210   -0.0730    0.8120 c1        1 3RN     -0.093000
      6 C4         -0.0850   -0.0730    1.9540 c2        1 3RN     -0.184500
      7 C5         -1.5790   -0.0730    1.1900 c2        1 3RN     -0.184500
      8 C6          1.0070    0.4460   -1.5910 c3        1 3RN      0.038000
      9 HO2         1.5500   -0.2890   -3.2590 ho        1 3RN      0.220000
     10 H3          1.7350   -0.4020    0.9140 ha        1 3RN      0.149000
     11 H4          0.0960    0.6970    2.5260 ha        1 3RN      0.113500
     12 H5         -2.2750    0.5820    1.3860 ha        1 3RN      0.113500
     13 H6          1.9280    0.6460   -1.3360 h1        1 3RN      0.091500
     14 H6A         0.5770    1.2570   -1.9210 h1        1 3RN      0.091500
     15 H7          0.0180   -0.8230    2.5700 ha        1 3RN      0.113500
     16 H8         -2.0220   -0.9010    1.4550 ha        1 3RN      0.113500
@<TRIPOS>BOND
     1    1    2 1   
     2    1    3 1   
     3    3    5 1   
     4    3    8 1   
     5    4    8 1   
     6    4    9 1   
     7    5   10 1   
     8    6    7 1   
     9    6   11 1   
    10    6   15 1   
    11    7   12 1   
    12    7   16 1   
    13    8   13 1   
    14    8   14 1   
@<TRIPOS>SUBSTRUCTURE
     1 3RN         1 TEMP              0 ****  ****    0 ROOT
