@<TRIPOS>MOLECULE
3RN
   16    16     1     0     0
SMALL
bcc


@<TRIPOS>ATOM
      1 C1         -0.8910    0.7330    0.0000 c         1 3RN      0.570300
      2 O1         -1.0270    1.9540   -0.0000 o         1 3RN     -0.526100
      3 C2          0.3870   -0.0300   -0.0000 ce        1 3RN     -0.227400
      4 O2          2.7320   -0.2940   -0.0010 oh        1 3RN     -0.604800
      5 C3          0.1400   -1.3580    0.0000 c2        1 3RN     -0.080200
      6 C4         -1.3290   -1.6580    0.0010 c3        1 3RN     -0.070200
      7 C5         -2.0170   -0.2870    0.0010 c3        1 3RN     -0.190400
      8 C6          1.6880    0.6710   -0.0010 c3        1 3RN      0.189600
      9 HO2         3.5580    0.2040   -0.0010 ho        1 3RN      0.405000
     10 H3          0.8880   -2.1550    0.0000 ha        1 3RN      0.161000
     11 H4         -1.6090   -2.2540   -0.9040 hc        1 3RN      0.065700
     12 H5         -2.6560   -0.1470    0.9060 hc        1 3RN      0.078700
     13 H6          1.7680    1.3220   -0.9150 h1        1 3RN      0.042700
     14 H6A         1.7680    1.3230    0.9140 h1        1 3RN      0.042700
     15 H7         -1.6090   -2.2530    0.9060 hc        1 3RN      0.065700
     16 H8         -2.6570   -0.1470   -0.9050 hc        1 3RN      0.078700
@<TRIPOS>BOND
     1    1    2 2   
     2    1    3 1   
     3    1    7 1   
     4    3    5 2   
     5    3    8 1   
     6    4    8 1   
     7    4    9 1   
     8    5    6 1   
     9    5   10 1   
    10    6    7 1   
    11    6   11 1   
    12    6   15 1   
    13    7   12 1   
    14    7   16 1   
    15    8   13 1   
    16    8   14 1   
@<TRIPOS>SUBSTRUCTURE
     1 3RN         1 TEMP              0 ****  ****    0 ROOT
