@<TRIPOS>MOLECULE
3RN
   16    16     1     0     0
SMALL
bcc


@<TRIPOS>ATOM
      1 C1          0.0230   -0.0210   -0.0110 c         1 3RN      0.570300
      2 O1         -0.7040   -0.0690   -1.0020 o         1 3RN     -0.526100
      3 C2          1.5100    0.0240    0.0130 ce        1 3RN     -0.227400
      4 O2          3.6740    0.0620   -0.9280 oh        1 3RN     -0.604800
      5 C3          1.9570    0.0710    1.2860 c2        1 3RN     -0.080200
      6 C4          0.8330    0.0650    2.2790 c3        1 3RN     -0.070200
      7 C5         -0.4450    0.0050    1.4340 c3        1 3RN     -0.190400
      8 C6          2.2880    0.0130   -1.2430 c3        1 3RN      0.189600
      9 HO2         4.1410    0.0530   -1.7720 ho        1 3RN      0.405000
     10 H3          3.0030    0.1110    1.6030 ha        1 3RN      0.161000
     11 H4          0.8610    0.9890    2.9100 hc        1 3RN      0.065700
     12 H5         -1.0960    0.8960    1.6070 hc        1 3RN      0.078700
     13 H6          2.0600   -0.9250   -1.8230 h1        1 3RN      0.042700
     14 H6A         2.0060    0.9030   -1.8730 h1        1 3RN      0.042700
     15 H7          0.9140   -0.8200    2.9590 hc        1 3RN      0.065700
     16 H8         -1.0430   -0.9130    1.6570 hc        1 3RN      0.078700
@<TRIPOS>BOND
     1    1    2 2   
     2    1    3 1   
     3    1    7 1   
     4    3    5 2   
     5    3    8 1   
     6    4    8 1   
     7    4    9 1   
     8    5    6 1   
     9    5   10 1   
    10    6    7 1   
    11    6   11 1   
    12    6   15 1   
    13    7   12 1   
    14    7   16 1   
    15    8   13 1   
    16    8   14 1   
@<TRIPOS>SUBSTRUCTURE
     1 3RN         1 TEMP              0 ****  ****    0 ROOT
