@<TRIPOS>MOLECULE
3RO
   30    24     1     0     0
SMALL
bcc


@<TRIPOS>ATOM
      1 OAA         3.1390   -0.8650    2.0740 o         1 3RO     -0.527500
      2 CAN         3.2150   -0.5640    0.8520 c1        1 3RO      0.370000
      3 OAD         3.7010   -1.3890    0.0280 o         1 3RO     -0.527500
      4 CAQ         2.7910    0.8190    0.3840 c1        1 3RO      0.061000
      5 NAL         3.7570    1.8520    0.2530 n3        1 3RO     -0.279000
      6 CAS         3.3310    3.2170   -0.0530 c1        1 3RO      0.382000
      7 OAB         4.1460    4.1210   -0.0590 o         1 3RO     -0.420000
      8 NAM         1.9300    3.4940   -0.3780 n2        1 3RO     -0.372000
      9 CAT         0.9610    2.4580   -0.2840 c1        1 3RO      0.356000
     10 OAC        -0.2120    2.7010   -0.4950 o         1 3RO     -0.392000
     11 CAR         1.3710    1.1060    0.1290 c1        1 3RO     -0.269000
     12 CAK         0.3160    0.0440    0.4130 c2        1 3RO     -0.088000
     13 CAJ        -0.7660    0.1040   -0.6590 c3        1 3RO     -0.124000
     14 CAP        -1.7950   -1.0030   -0.4090 c1        1 3RO     -0.046000
     15 CAI        -2.5600   -0.9890    0.7450 c1        1 3RO     -0.132000
     16 CAO        -3.5490   -1.9440    0.9340 c1        1 3RO     -0.069000
     17 CL1        -4.4790   -1.9550    2.4070 cl        1 3RO     -0.061000
     18 CAG        -3.7710   -2.9130   -0.0310 c2        1 3RO     -0.145000
     19 CAF        -3.0070   -2.9280   -1.1840 c1        1 3RO     -0.131000
     20 CAH        -2.0180   -1.9720   -1.3740 c1        1 3RO     -0.115000
     21 H2          1.6660    4.3490   -0.5690 hn        1 3RO      0.245000
     22 H4          0.7340   -0.8390    0.4050 ha        1 3RO      0.108000
     23 H5         -0.0860    0.2090    1.2940 ha        1 3RO      0.108000
     24 H6         -0.3580   -0.0230   -1.5450 hc        1 3RO      0.094500
     25 H7         -1.2080    0.9710   -0.6260 hc        1 3RO      0.094500
     26 H8         -2.4120   -0.2960    1.4210 ha        1 3RO      0.140000
     27 H9         -4.4570   -3.5900    0.1080 ha        1 3RO      0.129000
     28 H10        -3.1560   -3.6220   -1.8620 ha        1 3RO      0.129000
     29 H11        -1.8680   -2.2210   -2.3020 ha        1 3RO      0.200000
     30 H12         4.6430    1.6680    0.3830 hn        1 3RO      0.279000
@<TRIPOS>BOND
     1    1    2 1   
     2    2    3 1   
     3    4    5 1   
     4    4   11 1   
     5    5    6 1   
     6    5   30 1   
     7    6    7 1   
     8    8    9 1   
     9    8   21 1   
    10    9   10 1   
    11   12   13 1   
    12   12   22 1   
    13   12   23 1   
    14   13   14 1   
    15   13   24 1   
    16   13   25 1   
    17   14   20 1   
    18   15   16 1   
    19   15   26 1   
    20   16   18 1   
    21   18   19 1   
    22   18   27 1   
    23   19   28 1   
    24   20   29 1   
@<TRIPOS>SUBSTRUCTURE
     1 3RO         1 TEMP              0 ****  ****    0 ROOT
