@<TRIPOS>MOLECULE
3RO
   30    31     1     0     0
SMALL
bcc


@<TRIPOS>ATOM
      1 OAA         0.1650    0.2090    0.1560 o         1 3RO     -0.793800
      2 CAN         1.3400   -0.2380    0.1650 c         1 3RO      0.921800
      3 OAD         1.9330   -0.7610    1.1390 o         1 3RO     -0.793800
      4 CAQ         2.1130   -0.1480   -1.1860 cc        1 3RO      0.045400
      5 NAL         1.3370   -0.3300   -2.3210 n         1 3RO     -0.436100
      6 CAS         1.8670   -0.2150   -3.6120 c         1 3RO      0.791500
      7 OAB         1.1440   -0.3490   -4.6310 o         1 3RO     -0.694500
      8 NAM         3.2410    0.0350   -3.7380 n         1 3RO     -0.592500
      9 CAT         4.0820    0.2170   -2.6210 c         1 3RO      0.716700
     10 OAC         5.2840    0.4610   -2.8510 o         1 3RO     -0.667500
     11 CAR         3.4580    0.1090   -1.2970 cd        1 3RO     -0.293400
     12 CAK         4.3410    0.2960   -0.1200 c3        1 3RO      0.009800
     13 CAJ         4.9380   -1.0270    0.3430 c3        1 3RO     -0.041100
     14 CAP         5.5590   -0.9020    1.6900 ca        1 3RO     -0.049300
     15 CAI         6.9460   -0.9450    1.8520 ca        1 3RO     -0.133000
     16 CAO         7.4920   -0.8410    3.1350 ca        1 3RO      0.009400
     17 CL1         9.1890   -0.8970    3.3340 cl        1 3RO     -0.139400
     18 CAG         6.6750   -0.6930    4.2560 ca        1 3RO     -0.146000
     19 CAF         5.2900   -0.6500    4.0840 ca        1 3RO     -0.133000
     20 CAH         4.7310   -0.7540    2.8140 ca        1 3RO     -0.116000
     21 H2          3.6130    0.1040   -4.6570 hn        1 3RO      0.331500
     22 H4          5.1670    1.0100   -0.3810 hc        1 3RO      0.058700
     23 H5          3.7400    0.7350    0.7240 hc        1 3RO      0.058700
     24 H6          5.6880   -1.3850   -0.4090 hc        1 3RO      0.061200
     25 H7          4.1050   -1.7830    0.4030 hc        1 3RO      0.061200
     26 H8          7.6010   -1.0560    0.9750 ha        1 3RO      0.142000
     27 H9          7.1120   -0.6110    5.2610 ha        1 3RO      0.129000
     28 H10         4.6370   -0.5320    4.9610 ha        1 3RO      0.128000
     29 H11         3.6330   -0.7220    2.6640 ha        1 3RO      0.197000
     30 H12         0.3450   -0.3950   -2.2140 hn        1 3RO      0.366500
@<TRIPOS>BOND
     1    1    2 1   
     2    2    3 1   
     3    2    4 1   
     4    4    5 1   
     5    4   11 2   
     6    5    6 1   
     7    5   30 1   
     8    6    7 2   
     9    6    8 1   
    10    8    9 1   
    11    8   21 1   
    12    9   10 2   
    13    9   11 1   
    14   11   12 1   
    15   12   13 1   
    16   12   22 1   
    17   12   23 1   
    18   13   14 1   
    19   13   24 1   
    20   13   25 1   
    21   14   15 ar  
    22   14   20 ar  
    23   15   16 ar  
    24   15   26 1   
    25   16   17 1   
    26   16   18 ar  
    27   18   19 ar  
    28   18   27 1   
    29   19   20 ar  
    30   19   28 1   
    31   20   29 1   
@<TRIPOS>SUBSTRUCTURE
     1 3RO         1 TEMP              0 ****  ****    0 ROOT
