@<TRIPOS>MOLECULE
3RO
   30    31     1     0     0
SMALL
bcc


@<TRIPOS>ATOM
      1 OAA        -2.9720   -2.9650    0.4870 o         1 3RO     -0.793800
      2 CAN        -2.1070   -2.1600    0.0560 c         1 3RO      0.921800
      3 OAD        -0.9650   -2.4500   -0.3730 o         1 3RO     -0.793800
      4 CAQ        -2.5240   -0.6580    0.0380 cc        1 3RO      0.045400
      5 NAL        -3.8590   -0.4220   -0.2520 n         1 3RO     -0.436100
      6 CAS        -4.4060    0.8670   -0.2430 c         1 3RO      0.791500
      7 OAB        -5.6260    1.0630   -0.4740 o         1 3RO     -0.694500
      8 NAM        -3.5450    1.9450    0.0100 n         1 3RO     -0.592500
      9 CAT        -2.1770    1.7670    0.3000 c         1 3RO      0.716700
     10 OAC        -1.5090    2.7950    0.5360 o         1 3RO     -0.667500
     11 CAR        -1.6730    0.3890    0.2990 cd        1 3RO     -0.293400
     12 CAK        -0.2320    0.1990    0.5990 c3        1 3RO      0.009800
     13 CAJ         0.6070    0.2270   -0.6720 c3        1 3RO     -0.041100
     14 CAP         1.9870   -0.2710   -0.4230 ca        1 3RO     -0.049300
     15 CAI         3.0830    0.5980   -0.4340 ca        1 3RO     -0.133000
     16 CAO         4.3660    0.0900   -0.2130 ca        1 3RO      0.009400
     17 CL1         5.7050    1.1520   -0.2300 cl        1 3RO     -0.139400
     18 CAG         4.5720   -1.2700    0.0220 ca        1 3RO     -0.146000
     19 CAF         3.4720   -2.1300    0.0340 ca        1 3RO     -0.133000
     20 CAH         2.1880   -1.6400   -0.1880 ca        1 3RO     -0.116000
     21 H2         -3.9380    2.8580    0.0040 hn        1 3RO      0.331500
     22 H4          0.1150    1.0060    1.2970 hc        1 3RO      0.058700
     23 H5         -0.0900   -0.7970    1.1020 hc        1 3RO      0.058700
     24 H6          0.1160   -0.4460   -1.4300 hc        1 3RO      0.061200
     25 H7          0.6300    1.2690   -1.0840 hc        1 3RO      0.061200
     26 H8          2.9310    1.6730   -0.6140 ha        1 3RO      0.142000
     27 H9          5.5840   -1.6610    0.1960 ha        1 3RO      0.129000
     28 H10         3.6240   -3.2030    0.2190 ha        1 3RO      0.128000
     29 H11         1.3070   -2.3120   -0.1820 ha        1 3RO      0.197000
     30 H12        -4.4780   -1.2040   -0.3180 hn        1 3RO      0.366500
@<TRIPOS>BOND
     1    1    2 1   
     2    2    3 1   
     3    2    4 1   
     4    4    5 1   
     5    4   11 2   
     6    5    6 1   
     7    5   30 1   
     8    6    7 2   
     9    6    8 1   
    10    8    9 1   
    11    8   21 1   
    12    9   10 2   
    13    9   11 1   
    14   11   12 1   
    15   12   13 1   
    16   12   22 1   
    17   12   23 1   
    18   13   14 1   
    19   13   24 1   
    20   13   25 1   
    21   14   15 ar  
    22   14   20 ar  
    23   15   16 ar  
    24   15   26 1   
    25   16   17 1   
    26   16   18 ar  
    27   18   19 ar  
    28   18   27 1   
    29   19   20 ar  
    30   19   28 1   
    31   20   29 1   
@<TRIPOS>SUBSTRUCTURE
     1 3RO         1 TEMP              0 ****  ****    0 ROOT
