@<TRIPOS>MOLECULE
3RO
   30    31     1     0     0
SMALL
bcc


@<TRIPOS>ATOM
      1 OAA         0.1670    0.2250    0.1630 o         1 3RO     -0.793800
      2 CAN         1.3400   -0.2270    0.1690 c         1 3RO      0.921800
      3 OAD         1.9330   -0.7570    1.1390 o         1 3RO     -0.793800
      4 CAQ         2.1130   -0.1330   -1.1830 cc        1 3RO      0.045400
      5 NAL         1.3340   -0.3080   -2.3170 n         1 3RO     -0.436100
      6 CAS         1.8640   -0.1890   -3.6080 c         1 3RO      0.791500
      7 OAB         1.1400   -0.3150   -4.6270 o         1 3RO     -0.694500
      8 NAM         3.2390    0.0560   -3.7350 n         1 3RO     -0.592500
      9 CAT         4.0810    0.2310   -2.6180 c         1 3RO      0.716700
     10 OAC         5.2840    0.4710   -2.8480 o         1 3RO     -0.667500
     11 CAR         3.4590    0.1190   -1.2940 cd        1 3RO     -0.293400
     12 CAK         4.3430    0.2970   -0.1170 c3        1 3RO      0.009800
     13 CAJ         4.9360   -1.0300    0.3390 c3        1 3RO     -0.041100
     14 CAP         5.5580   -0.9130    1.6860 ca        1 3RO     -0.049300
     15 CAI         6.9460   -0.9610    1.8470 ca        1 3RO     -0.133000
     16 CAO         7.4930   -0.8650    3.1300 ca        1 3RO      0.009400
     17 CL1         9.1900   -0.9270    3.3270 cl        1 3RO     -0.139400
     18 CAG         6.6770   -0.7200    4.2530 ca        1 3RO     -0.146000
     19 CAF         5.2930   -0.6710    4.0820 ca        1 3RO     -0.133000
     20 CAH         4.7320   -0.7680    2.8110 ca        1 3RO     -0.116000
     21 H2          3.6100    0.1290   -4.6540 hn        1 3RO      0.331500
     22 H4          3.7450    0.7350    0.7300 hc        1 3RO      0.058700
     23 H5          5.1720    1.0090   -0.3750 hc        1 3RO      0.058700
     24 H6          5.6840   -1.3870   -0.4150 hc        1 3RO      0.061200
     25 H7          4.1000   -1.7830    0.3970 hc        1 3RO      0.061200
     26 H8          7.5990   -1.0710    0.9690 ha        1 3RO      0.142000
     27 H9          7.1160   -0.6440    5.2570 ha        1 3RO      0.129000
     28 H10         4.6410   -0.5560    4.9600 ha        1 3RO      0.128000
     29 H11         3.6350   -0.7320    2.6630 ha        1 3RO      0.197000
     30 H12         0.3430   -0.3690   -2.2100 hn        1 3RO      0.366500
@<TRIPOS>BOND
     1    1    2 1   
     2    2    3 1   
     3    2    4 1   
     4    4    5 1   
     5    4   11 2   
     6    5    6 1   
     7    5   30 1   
     8    6    7 2   
     9    6    8 1   
    10    8    9 1   
    11    8   21 1   
    12    9   10 2   
    13    9   11 1   
    14   11   12 1   
    15   12   13 1   
    16   12   22 1   
    17   12   23 1   
    18   13   14 1   
    19   13   24 1   
    20   13   25 1   
    21   14   15 ar  
    22   14   20 ar  
    23   15   16 ar  
    24   15   26 1   
    25   16   17 1   
    26   16   18 ar  
    27   18   19 ar  
    28   18   27 1   
    29   19   20 ar  
    30   19   28 1   
    31   20   29 1   
@<TRIPOS>SUBSTRUCTURE
     1 3RO         1 TEMP              0 ****  ****    0 ROOT
