@<TRIPOS>MOLECULE
3RO
   30    31     1     0     0
SMALL
bcc


@<TRIPOS>ATOM
      1 OAA         0.1680    0.2280    0.1670 o         1 3RO     -0.793800
      2 CAN         1.3400   -0.2240    0.1720 c         1 3RO      0.921800
      3 OAD         1.9340   -0.7530    1.1430 o         1 3RO     -0.793800
      4 CAQ         2.1110   -0.1350   -1.1810 cc        1 3RO      0.045400
      5 NAL         1.3310   -0.3110   -2.3140 ns        1 3RO     -0.436100
      6 CAS         1.8590   -0.1960   -3.6060 c         1 3RO      0.791500
      7 OAB         1.1330   -0.3240   -4.6230 o         1 3RO     -0.694500
      8 NAM         3.2340    0.0480   -3.7350 ns        1 3RO     -0.592500
      9 CAT         4.0780    0.2250   -2.6190 c         1 3RO      0.716700
     10 OAC         5.2810    0.4630   -2.8510 o         1 3RO     -0.667500
     11 CAR         3.4570    0.1160   -1.2940 cd        1 3RO     -0.293400
     12 CAK         4.3430    0.2960   -0.1180 c3        1 3RO      0.009800
     13 CAJ         4.9350   -1.0310    0.3400 c3        1 3RO     -0.041100
     14 CAP         5.5600   -0.9120    1.6850 ca        1 3RO     -0.049300
     15 CAI         6.9480   -0.9600    1.8450 ca        1 3RO     -0.133000
     16 CAO         7.4970   -0.8620    3.1260 ca        1 3RO      0.009400
     17 Cl1         9.1940   -0.9250    3.3210 cl        1 3RO     -0.139400
     18 CAG         6.6820   -0.7130    4.2500 ca        1 3RO     -0.146000
     19 CAF         5.2980   -0.6640    4.0810 ca        1 3RO     -0.133000
     20 CAH         4.7350   -0.7620    2.8120 ca        1 3RO     -0.116000
     21 H2          3.6040    0.1180   -4.6540 hn        1 3RO      0.331500
     22 H4          3.7470    0.7360    0.7280 hc        1 3RO      0.058700
     23 H5          5.1720    1.0070   -0.3800 hc        1 3RO      0.058700
     24 H6          5.6830   -1.3890   -0.4140 hc        1 3RO      0.061200
     25 H7          4.0990   -1.7830    0.4000 hc        1 3RO      0.061200
     26 H8          7.5990   -1.0730    0.9660 ha        1 3RO      0.142000
     27 H9          7.1230   -0.6360    5.2530 ha        1 3RO      0.129000
     28 H10         4.6470   -0.5460    4.9600 ha        1 3RO      0.128000
     29 H11         3.6380   -0.7260    2.6640 ha        1 3RO      0.197000
     30 H12         0.3390   -0.3710   -2.2050 hn        1 3RO      0.366500
@<TRIPOS>BOND
     1    1    2 1   
     2    2    3 1   
     3    2    4 1   
     4    4    5 1   
     5    4   11 2   
     6    5    6 1   
     7    5   30 1   
     8    6    7 2   
     9    6    8 1   
    10    8    9 1   
    11    8   21 1   
    12    9   10 2   
    13    9   11 1   
    14   11   12 1   
    15   12   13 1   
    16   12   22 1   
    17   12   23 1   
    18   13   14 1   
    19   13   24 1   
    20   13   25 1   
    21   14   15 ar  
    22   14   20 ar  
    23   15   16 ar  
    24   15   26 1   
    25   16   17 1   
    26   16   18 ar  
    27   18   19 ar  
    28   18   27 1   
    29   19   20 ar  
    30   19   28 1   
    31   20   29 1   
@<TRIPOS>SUBSTRUCTURE
     1 3RO         1 TEMP              0 ****  ****    0 ROOT
