@<TRIPOS>MOLECULE
3RP
   29    23     1     0     0
SMALL
bcc


@<TRIPOS>ATOM
      1 N1         -1.9540    0.3200   -2.9240 n1        1 3RP     -0.225000
      2 N3         -3.6060   -1.1590   -2.0910 n3        1 3RP     -0.322000
      3 C4         -0.8440    1.0590   -2.7870 c1        1 3RP      0.062000
      4 C5         -0.3170    1.8580   -3.9580 c2        1 3RP     -0.180000
      5 C6          0.0650    0.3030    0.6460 c1        1 3RP     -0.025000
      6 C7         -0.3450    1.1650    1.6500 c1        1 3RP     -0.030000
      7 C8          0.3260    1.1860    2.8630 c1        1 3RP     -0.122000
      8 C10         1.8170   -0.5190    2.0660 c1        1 3RP      0.049000
      9 C11         1.1460   -0.5390    0.8540 c1        1 3RP     -0.107000
     10 C3         -0.1590    1.0480   -1.6060 c2        1 3RP     -0.279000
     11 C9          1.4070    0.3440    3.0710 c1        1 3RP     -0.064000
     12 C2         -0.6060    0.2830   -0.5670 c1        1 3RP      0.089000
     13 C1         -2.3990   -0.4420   -1.8870 c1        1 3RP      0.152000
     14 C12         2.5990   -2.5970    2.8650 c3        1 3RP     -0.075000
     15 N2         -1.7170   -0.4550   -0.7070 n1        1 3RP     -0.208000
     16 O1          2.9240   -1.3600    2.2700 os        1 3RP     -0.218000
     17 CL1        -1.7170    2.2110    1.3960 cl        1 3RP      0.013000
     18 CL2         2.2830    0.4060    4.5770 cl        1 3RP      0.011000
     19 HN3        -3.9950   -1.1720   -2.9180 hn        1 3RP      0.222500
     20 HN3A       -3.9910   -1.6130   -1.3970 hn        1 3RP      0.222500
     21 H5          0.5280    1.4690   -4.2660 ha        1 3RP      0.098667
     22 H5A        -0.9710    1.8380   -4.6880 ha        1 3RP      0.098667
     23 H5B        -0.1670    2.7860   -3.6800 ha        1 3RP      0.098667
     24 H8          0.0370    1.7930    3.5700 ha        1 3RP      0.165000
     25 H11         1.4340   -1.1470    0.1460 ha        1 3RP      0.161000
     26 H3          0.6490    1.5850   -1.5050 ha        1 3RP      0.158000
     27 H12         2.3080   -3.2270    2.1710 h1        1 3RP      0.084667
     28 H12A        3.3890   -2.9570    3.3230 h1        1 3RP      0.084667
     29 H12B        1.8750   -2.4680    3.5140 h1        1 3RP      0.084667
@<TRIPOS>BOND
     1    1    3 1   
     2    2   13 1   
     3    2   19 1   
     4    2   20 1   
     5    3   10 1   
     6    4   21 1   
     7    4   22 1   
     8    4   23 1   
     9    5    9 1   
    10    6    7 1   
    11    6   17 1   
    12    7   24 1   
    13    8   11 1   
    14    8   16 1   
    15    9   25 1   
    16   10   12 1   
    17   10   26 1   
    18   11   18 1   
    19   13   15 1   
    20   14   16 1   
    21   14   27 1   
    22   14   28 1   
    23   14   29 1   
@<TRIPOS>SUBSTRUCTURE
     1 3RP         1 TEMP              0 ****  ****    0 ROOT
