@<TRIPOS>MOLECULE
3RP
   29    30     1     0     0
SMALL
bcc


@<TRIPOS>ATOM
      1 N1         -0.0330   -0.0800   -0.1070 nb        1 3RP     -0.752000
      2 N3         -2.0470   -0.6300    1.0450 nh        1 3RP     -0.924500
      3 C4          1.2980    0.1380   -0.0370 ca        1 3RP      0.484600
      4 C5          2.0610    0.3530   -1.3060 c3        1 3RP     -0.155400
      5 C6          1.9340    0.0440    3.6720 cp        1 3RP     -0.106500
      6 C7          1.6390    1.0190    4.6330 ca        1 3RP      0.019400
      7 C8          2.3310    1.0410    5.8480 ca        1 3RP     -0.100000
      8 C10         3.6160   -0.8940    5.1490 ca        1 3RP      0.132100
      9 C11         2.9250   -0.9080    3.9330 ca        1 3RP     -0.175000
     10 C3          1.9910    0.1730    1.1920 ca        1 3RP     -0.411600
     11 C9          3.3170    0.0910    6.1180 ca        1 3RP      0.002400
     12 C2          1.2360   -0.0090    2.3690 cp        1 3RP      0.525800
     13 C1         -0.6920   -0.2840    1.0990 ca        1 3RP      0.870900
     14 C12         4.8300   -2.8530    4.5460 c3        1 3RP      0.111700
     15 N2         -0.0950   -0.2350    2.3560 nb        1 3RP     -0.731000
     16 O1          4.6080   -1.7960    5.4740 os        1 3RP     -0.310900
     17 CL1         0.4570    2.2050    4.3520 cl        1 3RP     -0.070400
     18 CL2         4.1240    0.1590    7.6080 cl        1 3RP     -0.061400
     19 HN3        -2.5650   -0.5220    1.8870 hn        1 3RP      0.427300
     20 HN3A       -2.5260   -0.4120    0.2030 hn        1 3RP      0.427300
     21 H5          3.1350    0.5570   -1.0790 hc        1 3RP      0.058700
     22 H5A         1.6410    1.2210   -1.8720 hc        1 3RP      0.058700
     23 H5B         1.9950   -0.5550   -1.9560 hc        1 3RP      0.058700
     24 H8          2.0950    1.8110    6.6010 ha        1 3RP      0.165000
     25 H11         3.1450   -1.6690    3.1700 ha        1 3RP      0.153000
     26 H3          3.0710    0.3520    1.2360 ha        1 3RP      0.156000
     27 H12         3.8990   -3.4500    4.3920 h1        1 3RP      0.049367
     28 H12A        5.6180   -3.4700    5.0500 h1        1 3RP      0.049367
     29 H12B        5.2080   -2.4500    3.5750 h1        1 3RP      0.049367
@<TRIPOS>BOND
     1    1    3 ar  
     2    1   13 ar  
     3    2   13 1   
     4    2   19 1   
     5    2   20 1   
     6    3    4 1   
     7    3   10 ar  
     8    4   21 1   
     9    4   22 1   
    10    4   23 1   
    11    5    6 ar  
    12    5    9 ar  
    13    5   12 1   
    14    6    7 ar  
    15    6   17 1   
    16    7   11 ar  
    17    7   24 1   
    18    8    9 ar  
    19    8   11 ar  
    20    8   16 1   
    21    9   25 1   
    22   10   12 ar  
    23   10   26 1   
    24   11   18 1   
    25   12   15 ar  
    26   13   15 ar  
    27   14   16 1   
    28   14   27 1   
    29   14   28 1   
    30   14   29 1   
@<TRIPOS>SUBSTRUCTURE
     1 3RP         1 TEMP              0 ****  ****    0 ROOT
