@<TRIPOS>MOLECULE
3RP
   29    30     1     0     0
SMALL
bcc


@<TRIPOS>ATOM
      1 N1         -0.0290   -0.0900   -0.1100 nb        1 3RP     -0.752000
      2 N3         -2.0450   -0.6310    1.0430 nv        1 3RP     -0.924500
      3 C4          1.3020    0.1260   -0.0390 ca        1 3RP      0.484600
      4 C5          2.0660    0.3360   -1.3080 c3        1 3RP     -0.155400
      5 C6          1.9340    0.0490    3.6710 cp        1 3RP     -0.105500
      6 C7          1.6390    1.0280    4.6270 ca        1 3RP      0.019400
      7 C8          2.3300    1.0550    5.8430 ca        1 3RP     -0.100000
      8 C10         3.6130   -0.8850    5.1540 ca        1 3RP      0.132100
      9 C11         2.9220   -0.9040    3.9380 ca        1 3RP     -0.175000
     10 C3          1.9940    0.1660    1.1910 ca        1 3RP     -0.411600
     11 C9          3.3140    0.1050    6.1180 ca        1 3RP      0.002400
     12 C2          1.2370   -0.0100    2.3680 cp        1 3RP      0.525800
     13 C1         -0.6900   -0.2870    1.0970 ca        1 3RP      0.870900
     14 C12         4.8240   -2.8490    4.5610 c3        1 3RP      0.111700
     15 N2         -0.0940   -0.2330    2.3540 nb        1 3RP     -0.731000
     16 O1          4.6030   -1.7870    5.4840 os        1 3RP     -0.310900
     17 Cl1         0.4600    2.2160    4.3390 cl        1 3RP     -0.070400
     18 Cl2         4.1200    0.1780    7.6090 cl        1 3RP     -0.061400
     19 HN3        -2.5640   -0.5190    1.8830 hn        1 3RP      0.427300
     20 HN3A       -2.5230   -0.4160    0.1990 hn        1 3RP      0.427300
     21 H5          1.9600   -0.5520   -1.9790 hc        1 3RP      0.059033
     22 H5A         3.1490    0.4910   -1.0830 hc        1 3RP      0.059033
     23 H5B         1.6780    1.2340   -1.8500 hc        1 3RP      0.059033
     24 H8          2.0940    1.8290    6.5910 ha        1 3RP      0.165000
     25 H11         3.1430   -1.6690    3.1780 ha        1 3RP      0.153000
     26 H3          3.0730    0.3430    1.2340 ha        1 3RP      0.156000
     27 H12         3.8920   -3.4450    4.4090 h1        1 3RP      0.049367
     28 H12A        5.2030   -2.4510    3.5890 h1        1 3RP      0.049367
     29 H12B        5.6100   -3.4650    5.0690 h1        1 3RP      0.049367
@<TRIPOS>BOND
     1    1    3 ar  
     2    1   13 ar  
     3    2   13 1   
     4    2   19 1   
     5    2   20 1   
     6    3    4 1   
     7    3   10 ar  
     8    4   21 1   
     9    4   22 1   
    10    4   23 1   
    11    5    6 ar  
    12    5    9 ar  
    13    5   12 1   
    14    6    7 ar  
    15    6   17 1   
    16    7   11 ar  
    17    7   24 1   
    18    8    9 ar  
    19    8   11 ar  
    20    8   16 1   
    21    9   25 1   
    22   10   12 ar  
    23   10   26 1   
    24   11   18 1   
    25   12   15 ar  
    26   13   15 ar  
    27   14   16 1   
    28   14   27 1   
    29   14   28 1   
    30   14   29 1   
@<TRIPOS>SUBSTRUCTURE
     1 3RP         1 TEMP              0 ****  ****    0 ROOT
