@<TRIPOS>MOLECULE
3RP
   30    31     1     0     0
SMALL
bcc


@<TRIPOS>ATOM
      1 N1         -0.0330    0.0020   -0.1100 nb        1 3RP     -0.681000
      2 N3         -2.1650   -0.1270    1.0440 n4        1 3RP     -0.815300
      3 C4          1.3230    0.0680   -0.0430 ca        1 3RP      0.491600
      4 C5          2.1100    0.1550   -1.3080 c3        1 3RP     -0.171400
      5 C6          1.9120    0.0250    3.6970 cp        1 3RP     -0.162500
      6 C7          1.5760    0.9420    4.7000 ca        1 3RP      0.033400
      7 C8          2.2560    0.9210    5.9250 ca        1 3RP     -0.096000
      8 C10         3.6050   -0.9400    5.1440 ca        1 3RP      0.146100
      9 C11         2.9300   -0.9120    3.9200 ca        1 3RP     -0.175000
     10 C3          1.9960    0.0750    1.2020 ca        1 3RP     -0.305600
     11 C9          3.2640   -0.0120    6.1610 ca        1 3RP      0.026400
     12 C2          1.2330    0.0140    2.3910 cp        1 3RP      0.550800
     13 C1         -0.6720   -0.0580    1.1000 ca        1 3RP      0.697900
     14 C12         4.9440   -2.7880    4.4430 c3        1 3RP      0.107700
     15 N2         -0.1280   -0.0620    2.3530 nb        1 3RP     -0.658000
     16 O1          4.6100   -1.8280    5.4430 os        1 3RP     -0.295900
     17 CL1         0.3760    2.1200    4.4660 cl        1 3RP     -0.069400
     18 CL2         4.0480   -0.0020    7.6570 cl        1 3RP     -0.013400
     19 HN3        -2.5490   -0.1990    1.9960 hn        1 3RP      0.480800
     20 HN3A       -2.5210    0.7240    0.5920 hn        1 3RP      0.480800
     21 H5          2.1130    1.2150   -1.6720 hc        1 3RP      0.085367
     22 H5A         3.1650   -0.1650   -1.1230 hc        1 3RP      0.085367
     23 H5B         1.6730   -0.4890   -2.1130 hc        1 3RP      0.085367
     24 H8          1.9900    1.6500    6.7100 ha        1 3RP      0.181000
     25 H11         3.1860   -1.6290    3.1260 ha        1 3RP      0.150000
     26 H3          3.0950    0.1380    1.2500 ha        1 3RP      0.195000
     27 H12         5.3250   -2.2810    3.5230 h1        1 3RP      0.056033
     28 H12A        4.0650   -3.4350    4.2080 h1        1 3RP      0.056033
     29 H12B        5.7570   -3.3840    4.9330 h1        1 3RP      0.056033
     30 H33        -2.4440   -0.9490    0.4940 hn        1 3RP      0.480800
@<TRIPOS>BOND
     1    1    3 ar  
     2    1   13 ar  
     3    2   13 1   
     4    2   19 1   
     5    2   20 1   
     6    2   30 1   
     7    3    4 1   
     8    3   10 ar  
     9    4   21 1   
    10    4   22 1   
    11    4   23 1   
    12    5    6 ar  
    13    5    9 ar  
    14    5   12 1   
    15    6    7 ar  
    16    6   17 1   
    17    7   11 ar  
    18    7   24 1   
    19    8    9 ar  
    20    8   11 ar  
    21    8   16 1   
    22    9   25 1   
    23   10   12 ar  
    24   10   26 1   
    25   11   18 1   
    26   12   15 ar  
    27   13   15 ar  
    28   14   16 1   
    29   14   27 1   
    30   14   28 1   
    31   14   29 1   
@<TRIPOS>SUBSTRUCTURE
     1 3RP         1 TEMP              0 ****  ****    0 ROOT
