@<TRIPOS>MOLECULE
3RP
   29    30     1     0     0
SMALL
bcc


@<TRIPOS>ATOM
      1 N1         -4.1660   -0.5710    0.1330 nb        1 3RP     -0.752000
      2 N3         -4.2230    1.0390    1.8910 nh        1 3RP     -0.924500
      3 C4         -3.4150   -1.3150   -0.7080 ca        1 3RP      0.484600
      4 C5         -4.0950   -2.3180   -1.5840 c3        1 3RP     -0.155400
      5 C6          0.0540   -0.0060   -0.0610 cp        1 3RP     -0.105500
      6 C7          0.6250    1.2010   -0.4840 ca        1 3RP      0.019400
      7 C8          2.0160    1.3330   -0.5620 ca        1 3RP     -0.100000
      8 C10         2.2730   -0.9510    0.2120 ca        1 3RP      0.132100
      9 C11         0.8820   -1.0790    0.2830 ca        1 3RP     -0.175000
     10 C3         -2.0140   -1.1690   -0.7940 ca        1 3RP     -0.411600
     11 C9          2.8470    0.2680   -0.2160 ca        1 3RP      0.002400
     12 C2         -1.4100   -0.1930    0.0250 cp        1 3RP      0.525800
     13 C1         -3.4840    0.3430    0.9290 ca        1 3RP      0.870900
     14 C12         2.5760   -3.1550    1.0650 c3        1 3RP      0.111700
     15 N2         -2.1120    0.5740    0.8860 nb        1 3RP     -0.731000
     16 O1          3.1500   -1.9670    0.5290 os        1 3RP     -0.310900
     17 CL1        -0.3400    2.5250   -0.9290 cl        1 3RP     -0.070400
     18 CL2         4.5270    0.4790   -0.3240 cl        1 3RP     -0.061400
     19 HN3        -5.2060    1.0770    1.7530 hn        1 3RP      0.427800
     20 HN3A       -3.8000    1.8550    2.2700 hn        1 3RP      0.427800
     21 H5         -4.7880   -1.8030   -2.2950 hc        1 3RP      0.059033
     22 H5A        -3.3380   -2.8910   -2.1720 hc        1 3RP      0.059033
     23 H5B        -4.6930   -3.0360   -0.9690 hc        1 3RP      0.059033
     24 H8          2.4590    2.2860   -0.8970 ha        1 3RP      0.165000
     25 H11         0.4200   -2.0210    0.6150 ha        1 3RP      0.153000
     26 H3         -1.4170   -1.7780   -1.4820 ha        1 3RP      0.156000
     27 H12         1.9990   -2.9330    1.9960 h1        1 3RP      0.049367
     28 H12A        1.9260   -3.6540    0.3060 h1        1 3RP      0.049367
     29 H12B        3.4710   -3.7880    1.2950 h1        1 3RP      0.049367
@<TRIPOS>BOND
     1    1    3 ar  
     2    1   13 ar  
     3    2   13 1   
     4    2   19 1   
     5    2   20 1   
     6    3    4 1   
     7    3   10 ar  
     8    4   21 1   
     9    4   22 1   
    10    4   23 1   
    11    5    6 ar  
    12    5    9 ar  
    13    5   12 1   
    14    6    7 ar  
    15    6   17 1   
    16    7   11 ar  
    17    7   24 1   
    18    8    9 ar  
    19    8   11 ar  
    20    8   16 1   
    21    9   25 1   
    22   10   12 ar  
    23   10   26 1   
    24   11   18 1   
    25   12   15 ar  
    26   13   15 ar  
    27   14   16 1   
    28   14   27 1   
    29   14   28 1   
    30   14   29 1   
@<TRIPOS>SUBSTRUCTURE
     1 3RP         1 TEMP              0 ****  ****    0 ROOT
