@<TRIPOS>MOLECULE
3RQ
   32    34     1     0     0
SMALL
bcc


@<TRIPOS>ATOM
      1 N1         -0.0020   -0.0140    0.1240 nb        1 3RQ     -0.697000
      2 N3          2.2720    0.3160    1.0830 na        1 3RQ     -0.275100
      3 C4          2.0840    1.2240   -4.4540 ca        1 3RQ      0.016400
      4 C5          2.6870    1.2130   -5.7160 ca        1 3RQ     -0.094000
      5 C6          3.1510    0.0180   -6.2650 ca        1 3RQ      0.007400
      6 C8          1.3110    0.0200   -2.3930 cp        1 3RQ      0.548800
      7 C13         3.4740    0.3600   -0.8670 cc        1 3RQ     -0.016900
      8 C15         4.5760    0.4460   -1.7320 cg        1 3RQ      0.223500
      9 C2          2.4060   -1.1680   -4.2730 ca        1 3RQ     -0.166000
     10 C14         3.5410    0.4450    0.5310 cd        1 3RQ     -0.051100
     11 C12         2.0880    0.1720   -1.2210 ca        1 3RQ     -0.279400
     12 C3          1.9510    0.0350   -3.7270 cp        1 3RQ     -0.111500
     13 C1          3.0080   -1.1850   -5.5370 ca        1 3RQ      0.136100
     14 C11         1.3500    0.1480    0.0380 ca        1 3RQ      0.445800
     15 C9         -0.6220   -0.1540   -1.0780 ca        1 3RQ      0.665300
     16 N4          5.4970    0.5170   -2.4390 n1        1 3RQ     -0.360800
     17 N2         -0.0210   -0.1450   -2.3240 nb        1 3RQ     -0.694000
     18 O1          3.4750   -2.3320   -6.1430 os        1 3RQ     -0.308900
     19 CL1         3.8720    0.0560   -7.8000 cl        1 3RQ     -0.059400
     20 H5          2.7940    2.1540   -6.2810 ha        1 3RQ      0.165000
     21 H7          3.8660   -4.2920   -6.0540 h1        1 3RQ      0.049700
     22 H7A         3.9800   -3.4340   -4.4300 h1        1 3RQ      0.049700
     23 H7B         2.3330   -3.7930   -5.1660 h1        1 3RQ      0.049700
     24 H10        -2.3850   -1.2950   -1.5790 hc        1 3RQ      0.065033
     25 H10A       -2.5990    0.5100   -1.6230 hc        1 3RQ      0.065033
     26 H10B       -2.5230   -0.3580   -0.0270 hc        1 3RQ      0.065033
     27 H2          2.2800   -2.0980   -3.6980 ha        1 3RQ      0.153000
     28 H14         4.4180    0.5890    1.1690 h4        1 3RQ      0.186000
     29 HN3         2.0440    0.3510    2.0440 hn        1 3RQ      0.320700
     30 C10        -2.1220   -0.3360   -1.0690 c3        1 3RQ     -0.134400
     31 CL2         1.5230    2.7000   -3.8270 cl        1 3RQ     -0.074400
     32 C7          3.3980   -3.5300   -5.3780 c3        1 3RQ      0.110700
@<TRIPOS>BOND
     1    1   14 ar  
     2    1   15 ar  
     3    2   10 1   
     4    2   14 1   
     5    2   29 1   
     6    3    4 ar  
     7    3   12 ar  
     8    3   31 1   
     9    4    5 ar  
    10    4   20 1   
    11    5   13 ar  
    12    5   19 1   
    13    6   11 ar  
    14    6   12 1   
    15    6   17 ar  
    16    7    8 1   
    17    7   10 2   
    18    7   11 1   
    19    8   16 3   
    20    9   12 ar  
    21    9   13 ar  
    22    9   27 1   
    23   10   28 1   
    24   11   14 ar  
    25   13   18 1   
    26   15   17 ar  
    27   15   30 1   
    28   18   32 1   
    29   21   32 1   
    30   22   32 1   
    31   23   32 1   
    32   24   30 1   
    33   25   30 1   
    34   26   30 1   
@<TRIPOS>SUBSTRUCTURE
     1 3RQ         1 TEMP              0 ****  ****    0 ROOT
