@<TRIPOS>MOLECULE
3RQ
   32    25     1     0     0
SMALL
bcc


@<TRIPOS>ATOM
      1 N1         -1.3670    0.1810    3.1530 n1        1 3RQ     -0.171000
      2 N3          0.9210    0.2270    4.1760 n2        1 3RQ     -0.189000
      3 C4          0.2280   -1.6900   -0.8430 c1        1 3RQ     -0.033000
      4 C5          0.3670   -2.0930   -2.1660 c1        1 3RQ     -0.130000
      5 C6          0.4460   -1.1520   -3.1680 c1        1 3RQ     -0.071000
      6 C7         -0.1730    1.6220   -4.7030 c3        1 3RQ     -0.079000
      7 C8         -0.0340    0.0500    0.7770 c1        1 3RQ      0.113000
      8 C10        -3.5560    0.0570    2.1340 c3        1 3RQ     -0.158000
      9 C13         2.0220    0.1210    2.2460 c1        1 3RQ     -0.099500
     10 C15         3.4230    0.2670    1.6570 c1        1 3RQ     -0.069000
     11 C2          0.2480    0.6030   -1.5380 c1        1 3RQ     -0.130000
     12 C14         2.1700    0.1850    3.6150 c1        1 3RQ      0.015000
     13 C12         0.6630    0.1250    1.9630 c1        1 3RQ     -0.099500
     14 C3          0.1680   -0.3470   -0.5310 c1        1 3RQ     -0.033000
     15 C1          0.3870    0.2020   -2.8570 c1        1 3RQ      0.091000
     16 C11        -0.0140    0.1900    3.1470 c1        1 3RQ      0.015000
     17 C9         -2.0550    0.1070    1.9750 c2        1 3RQ      0.045000
     18 N4          4.4820    0.3760    1.2120 n1        1 3RQ     -0.035000
     19 N2         -1.3770    0.0410    0.7870 n2        1 3RQ     -0.168000
     20 O1          0.8040    0.7700   -4.0900 os        1 3RQ     -0.192000
     21 CL2         0.1380   -2.8490    0.3870 cl        1 3RQ      0.004000
     22 CL1         0.5590   -1.6610   -4.8340 cl        1 3RQ      0.019000
     23 H5          0.4080   -3.0300   -2.3810 ha        1 3RQ      0.159000
     24 H7          0.0930    1.8050   -5.6470 h1        1 3RQ      0.089000
     25 H7A        -1.0310    1.1880   -4.6910 h1        1 3RQ      0.089000
     26 H7B        -0.2270    2.4620   -4.2120 h1        1 3RQ      0.089000
     27 H10        -3.8580   -0.9070    2.1840 hc        1 3RQ      0.104333
     28 H10A       -3.9780    0.4900    1.3700 hc        1 3RQ      0.104333
     29 H10B       -3.8230    0.5400    2.9880 hc        1 3RQ      0.104333
     30 H2          0.2040    1.6050   -1.3060 ha        1 3RQ      0.159000
     31 H14         3.0320    0.2410    4.1070 DU        1 3RQ      0.228500
     32 HN3         0.7300    0.2730    5.0890 DU        1 3RQ      0.228500
@<TRIPOS>BOND
     1    1   17 1   
     2    2   12 1   
     3    2   16 1   
     4    3    4 1   
     5    3   14 1   
     6    4   23 1   
     7    5   15 1   
     8    5   22 1   
     9    6   20 1   
    10    6   24 1   
    11    6   25 1   
    12    6   26 1   
    13    7   19 1   
    14    8   17 1   
    15    8   27 1   
    16    8   28 1   
    17    8   29 1   
    18    9   12 1   
    19    9   13 1   
    20   10   18 1   
    21   11   14 1   
    22   11   30 1   
    23   13   16 1   
    24   15   20 1   
    25   17   19 1   
@<TRIPOS>SUBSTRUCTURE
     1 3RQ         1 TEMP              0 ****  ****    0 ROOT
