@<TRIPOS>MOLECULE
3RQ
   32    34     1     0     0
SMALL
bcc


@<TRIPOS>ATOM
      1 N1         -4.0600   -0.2180    0.6160 nb        1 3RQ     -0.697000
      2 N3         -4.0410    1.7430   -0.9170 na        1 3RQ     -0.275100
      3 C4          0.8200   -1.0650   -0.9030 ca        1 3RQ      0.016400
      4 C5          2.2130   -1.1010   -1.0330 ca        1 3RQ     -0.094000
      5 C6          3.0210   -0.3630   -0.1680 ca        1 3RQ      0.007400
      6 C8         -1.2440   -0.2320    0.2530 cp        1 3RQ      0.548800
      7 C13        -1.7850    1.8660   -1.3050 cc        1 3RQ     -0.016900
      8 C15        -0.5620    2.3230   -1.8170 cg        1 3RQ      0.223500
      9 C2          1.0280    0.4550    0.9690 ca        1 3RQ     -0.166000
     10 C14        -3.0370    2.4320   -1.5880 cd        1 3RQ     -0.051100
     11 C12        -2.0080    0.7560   -0.4110 ca        1 3RQ     -0.279400
     12 C3          0.2260   -0.2800    0.0920 cp        1 3RQ     -0.111500
     13 C1          2.4220    0.4220    0.8440 ca        1 3RQ      0.136100
     14 C11        -3.4490    0.7030   -0.1840 ca        1 3RQ      0.445800
     15 C9         -3.2050   -1.1040    1.1960 ca        1 3RQ      0.665300
     16 N4          0.4480    2.7120   -2.2450 n1        1 3RQ     -0.360800
     17 N2         -1.8310   -1.1440    1.0480 nb        1 3RQ     -0.694000
     18 O1          3.2780    1.1150    1.6730 os        1 3RQ     -0.308900
     19 CL1         4.7040   -0.4410   -0.3640 cl        1 3RQ     -0.059400
     20 H5          2.6750   -1.7160   -1.8230 ha        1 3RQ      0.165000
     21 H7          3.5530    2.4340    3.1520 h1        1 3RQ      0.049700
     22 H7A         2.0380    2.7380    2.1530 h1        1 3RQ      0.049700
     23 H7B         2.0740    1.3620    3.3720 h1        1 3RQ      0.049700
     24 H10        -3.5810   -3.1720    1.6750 hc        1 3RQ      0.065033
     25 H10A       -3.3500   -2.0840    3.1140 hc        1 3RQ      0.065033
     26 H10B       -4.9120   -2.0400    2.1820 hc        1 3RQ      0.065033
     27 H2          0.5490    1.0550    1.7560 ha        1 3RQ      0.153000
     28 H14        -3.2750    3.2860   -2.2280 h4        1 3RQ      0.186000
     29 HN3        -5.0090    1.9340   -0.9560 hn        1 3RQ      0.320700
     30 C10        -3.8050   -2.1600    2.0950 c3        1 3RQ     -0.134400
     31 CL2        -0.1250   -1.9870   -1.9710 cl        1 3RQ     -0.074400
     32 C7          2.6730    1.9620    2.6440 c3        1 3RQ      0.110700
@<TRIPOS>BOND
     1    1   14 ar  
     2    1   15 ar  
     3    2   10 1   
     4    2   14 1   
     5    2   29 1   
     6    3    4 ar  
     7    3   12 ar  
     8    3   31 1   
     9    4    5 ar  
    10    4   20 1   
    11    5   13 ar  
    12    5   19 1   
    13    6   11 ar  
    14    6   12 1   
    15    6   17 ar  
    16    7    8 1   
    17    7   10 2   
    18    7   11 1   
    19    8   16 3   
    20    9   12 ar  
    21    9   13 ar  
    22    9   27 1   
    23   10   28 1   
    24   11   14 ar  
    25   13   18 1   
    26   15   17 ar  
    27   15   30 1   
    28   18   32 1   
    29   21   32 1   
    30   22   32 1   
    31   23   32 1   
    32   24   30 1   
    33   25   30 1   
    34   26   30 1   
@<TRIPOS>SUBSTRUCTURE
     1 3RQ         1 TEMP              0 ****  ****    0 ROOT
