@<TRIPOS>MOLECULE
3RQ
   32    34     1     0     0
SMALL
bcc


@<TRIPOS>ATOM
      1 N1          0.0050   -0.0090    0.1280 nb        1 3RQ     -0.697000
      2 N3          2.2800    0.3290    1.0800 na        1 3RQ     -0.275100
      3 C4          2.0740    1.2190   -4.4600 ca        1 3RQ      0.016400
      4 C5          2.6730    1.2050   -5.7240 ca        1 3RQ     -0.094000
      5 C6          3.1400    0.0090   -6.2700 ca        1 3RQ      0.007400
      6 C8          1.3110    0.0200   -2.3930 cp        1 3RQ      0.548800
      7 C13         3.4770    0.3700   -0.8740 cc        1 3RQ     -0.016900
      8 C15         4.5760    0.4560   -1.7420 cg        1 3RQ      0.223500
      9 C2          2.4040   -1.1720   -4.2710 ca        1 3RQ     -0.166000
     10 C14         3.5470    0.4600    0.5230 cd        1 3RQ     -0.051100
     11 C12         2.0910    0.1770   -1.2230 ca        1 3RQ     -0.279400
     12 C3          1.9470    0.0320   -3.7290 cp        1 3RQ     -0.111500
     13 C1          3.0030   -1.1910   -5.5370 ca        1 3RQ      0.136100
     14 C11         1.3560    0.1560    0.0370 ca        1 3RQ      0.445800
     15 C9         -0.6190   -0.1550   -1.0720 ca        1 3RQ      0.665300
     16 N4          5.4950    0.5270   -2.4520 n1        1 3RQ     -0.360800
     17 N2         -0.0210   -0.1480   -2.3200 nb        1 3RQ     -0.694000
     18 O1          3.4730   -2.3380   -6.1400 os        1 3RQ     -0.308900
     19 Cl1         3.8570    0.0440   -7.8070 cl        1 3RQ     -0.059400
     20 H5          2.7760    2.1440   -6.2930 ha        1 3RQ      0.165000
     21 H7          3.8710   -4.2970   -6.0440 h1        1 3RQ      0.049700
     22 H7A         3.9860   -3.4320   -4.4240 h1        1 3RQ      0.049700
     23 H7B         2.3390   -3.8010   -5.1540 h1        1 3RQ      0.049700
     24 H10        -2.3800   -1.3010   -1.5650 hc        1 3RQ      0.065033
     25 H10A       -2.5990    0.5030   -1.6140 hc        1 3RQ      0.065033
     26 H10B       -2.5160   -0.3600   -0.0150 hc        1 3RQ      0.065033
     27 H2          2.2830   -2.1000   -3.6930 ha        1 3RQ      0.153000
     28 H14         4.4260    0.6080    1.1590 h4        1 3RQ      0.186000
     29 HN3         2.0550    0.3670    2.0410 hn        1 3RQ      0.320700
     30 C10        -2.1180   -0.3400   -1.0580 c3        1 3RQ     -0.134400
     31 Cl2         1.5100    2.6950   -3.8370 cl        1 3RQ     -0.074400
     32 C7          3.4020   -3.5340   -5.3710 c3        1 3RQ      0.110700
@<TRIPOS>BOND
     1    1   14 ar  
     2    1   15 ar  
     3    2   10 1   
     4    2   14 1   
     5    2   29 1   
     6    3    4 ar  
     7    3   12 ar  
     8    3   31 1   
     9    4    5 ar  
    10    4   20 1   
    11    5   13 ar  
    12    5   19 1   
    13    6   11 ar  
    14    6   12 1   
    15    6   17 ar  
    16    7    8 1   
    17    7   10 2   
    18    7   11 1   
    19    8   16 3   
    20    9   12 ar  
    21    9   13 ar  
    22    9   27 1   
    23   10   28 1   
    24   11   14 ar  
    25   13   18 1   
    26   15   17 ar  
    27   15   30 1   
    28   18   32 1   
    29   21   32 1   
    30   22   32 1   
    31   23   32 1   
    32   24   30 1   
    33   25   30 1   
    34   26   30 1   
@<TRIPOS>SUBSTRUCTURE
     1 3RQ         1 TEMP              0 ****  ****    0 ROOT
