@<TRIPOS>MOLECULE
3RR
   35    37     1     0     0
SMALL
bcc


@<TRIPOS>ATOM
      1 N1          0.0510   -0.1940    0.1220 nb        1 3RR     -0.698000
      2 N3          2.2750    0.2470    1.1430 na        1 3RR     -0.277100
      3 C4          2.1620    0.1150   -1.1660 ca        1 3RR     -0.275400
      4 C5          3.5250    0.3730   -0.7760 cc        1 3RR     -0.021900
      5 C6          3.5590    0.4510    0.6290 cd        1 3RR      0.006700
      6 C8          2.0960   -0.0070   -3.6760 cp        1 3RR     -0.109500
      7 C10         2.8200    1.2250   -5.6370 ca        1 3RR     -0.094000
      8 C13         2.6260   -1.1800   -4.2200 ca        1 3RR     -0.166000
      9 C15         4.6360    0.5230   -1.6190 cg        1 3RR      0.226500
     10 C12         3.2590   -1.1550   -5.4680 ca        1 3RR      0.136100
     11 C9          2.1860    1.1940   -4.3900 ca        1 3RR      0.016400
     12 C11         3.3580    0.0600   -6.1840 ca        1 3RR      0.007400
     13 C2          1.4250   -0.0670   -2.3600 cp        1 3RR      0.544800
     14 C3          1.3940    0.0410    0.0720 ca        1 3RR      0.449800
     15 C1         -0.5300   -0.3560   -1.0980 ca        1 3RR      0.663300
     16 C16         4.7300    0.7040    1.4900 c3        1 3RR     -0.059900
     17 C14         3.7630   -3.4790   -5.3200 c3        1 3RR      0.110700
     18 N4          5.5640    0.6470   -2.3110 n1        1 3RR     -0.366800
     19 N2          0.1010   -0.3040   -2.3270 nb        1 3RR     -0.695000
     20 O1          3.8000   -2.2700   -6.0720 os        1 3RR     -0.309900
     21 CL2         1.5350    2.6330   -3.7670 cl        1 3RR     -0.074400
     22 CL1         4.1150    0.1490   -7.6990 cl        1 3RR     -0.060400
     23 H7         -2.4430   -0.6710   -0.0980 hc        1 3RR      0.064367
     24 H7A        -2.2160   -1.5830   -1.6550 hc        1 3RR      0.064367
     25 H7B        -2.5260    0.2080   -1.6880 hc        1 3RR      0.064367
     26 H10         2.8930    2.1750   -6.1920 ha        1 3RR      0.165000
     27 H13         2.5340   -2.1200   -3.6560 ha        1 3RR      0.153000
     28 H16         5.6410    0.8270    0.8530 hc        1 3RR      0.067033
     29 H16A        4.8990   -0.1500    2.1940 hc        1 3RR      0.067033
     30 H16B        4.5860    1.6370    2.0910 hc        1 3RR      0.067033
     31 H14         4.2860   -4.2090   -5.9890 h1        1 3RR      0.049367
     32 H14A        2.7080   -3.7970   -5.1370 h1        1 3RR      0.049367
     33 H14B        4.3150   -3.3630   -4.3550 h1        1 3RR      0.049367
     34 HN3         2.0240    0.2630    2.0980 hn        1 3RR      0.318700
     35 C7         -2.0180   -0.6170   -1.1290 c3        1 3RR     -0.133400
@<TRIPOS>BOND
     1    1   14 ar  
     2    1   15 ar  
     3    2    5 1   
     4    2   14 1   
     5    2   34 1   
     6    3    4 1   
     7    3   13 ar  
     8    3   14 ar  
     9    4    5 2   
    10    4    9 1   
    11    5   16 1   
    12    6    8 ar  
    13    6   11 ar  
    14    6   13 1   
    15    7   11 ar  
    16    7   12 ar  
    17    7   26 1   
    18    8   10 ar  
    19    8   27 1   
    20    9   18 3   
    21   10   12 ar  
    22   10   20 1   
    23   11   21 1   
    24   12   22 1   
    25   13   19 ar  
    26   15   19 ar  
    27   15   35 1   
    28   16   28 1   
    29   16   29 1   
    30   16   30 1   
    31   17   20 1   
    32   17   31 1   
    33   17   32 1   
    34   17   33 1   
    35   23   35 1   
    36   24   35 1   
    37   25   35 1   
@<TRIPOS>SUBSTRUCTURE
     1 3RR         1 TEMP              0 ****  ****    0 ROOT
