@<TRIPOS>MOLECULE
3RR
   35    27     1     0     0
SMALL
bcc


@<TRIPOS>ATOM
      1 N1         -1.8260    0.4050    2.7280 n1        1 3RR     -0.171000
      2 N3          0.4860    0.4720    3.6950 n2        1 3RR     -0.191000
      3 C4          0.2040    0.3250    1.5120 c1        1 3RR     -0.098000
      4 C5          1.5680    0.3740    1.7680 c1        1 3RR     -0.098000
      5 C6          1.7390    0.4640    3.1040 c1        1 3RR      0.048500
      6 C7         -4.0630    0.3480    1.7560 c3        1 3RR     -0.157000
      7 C8         -0.1400    0.2720   -1.0190 c1        1 3RR     -0.028000
      8 C10         0.6810    1.4400   -2.9610 c1        1 3RR     -0.115000
      9 C13        -0.0710   -0.9040   -1.6910 c1        1 3RR     -0.096000
     10 C15         2.8360    0.2610    0.9880 c1        1 3RR     -0.068000
     11 C12         0.3760   -0.9300   -3.0120 c1        1 3RR      0.053000
     12 C9          0.2380    1.4640   -1.6520 c1        1 3RR     -0.036000
     13 C11         0.7510    0.2480   -3.6400 c1        1 3RR     -0.060000
     14 C2         -0.5110    0.2830    0.3360 c1        1 3RR      0.110000
     15 C3         -0.4500    0.3850    2.7020 c1        1 3RR      0.048500
     16 C1         -2.5280    0.3640    1.5660 c2        1 3RR      0.043000
     17 C16         2.8890    0.2910    4.0450 c2        1 3RR     -0.182000
     18 C14        -0.6060   -2.4420   -4.6090 c3        1 3RR     -0.075000
     19 N4          3.7670    0.1780    0.4160 n1        1 3RR     -0.038000
     20 N2         -1.8680    0.3020    0.3660 n2        1 3RR     -0.172000
     21 O1          0.4750   -2.1880   -3.7160 os        1 3RR     -0.215000
     22 CL2         0.0910    3.0140   -0.7900 cl        1 3RR      0.008000
     23 CL1         1.2480    0.2240   -5.3310 cl        1 3RR      0.012000
     24 H7         -4.3720    1.2510    2.0760 hc        1 3RR      0.103667
     25 H7A        -4.5160    0.1280    0.8610 hc        1 3RR      0.103667
     26 H7B        -4.3010   -0.3270    2.4140 hc        1 3RR      0.103667
     27 H10         0.9400    2.2560   -3.3960 ha        1 3RR      0.166000
     28 H13        -0.3200   -1.6910   -1.2720 ha        1 3RR      0.161000
     29 H16         2.5840    0.3800    4.9280 ha        1 3RR      0.106667
     30 H16A        3.6050    1.0090    3.8540 ha        1 3RR      0.106667
     31 H16B        3.2960   -0.6420    3.9160 ha        1 3RR      0.106667
     32 H14        -0.4650   -3.3580   -5.0690 h1        1 3RR      0.084333
     33 H14A       -0.6430   -1.7220   -5.3080 h1        1 3RR      0.084333
     34 H14B       -1.4110   -2.4550   -4.1310 h1        1 3RR      0.084333
     35 HN3         0.3190    0.5230    4.5680 DU        1 3RR      0.269000
@<TRIPOS>BOND
     1    1   16 1   
     2    2    5 1   
     3    2   15 1   
     4    3   15 1   
     5    4    5 1   
     6    6   16 1   
     7    6   24 1   
     8    6   25 1   
     9    6   26 1   
    10    7   12 1   
    11    8   13 1   
    12    8   27 1   
    13    9   11 1   
    14    9   28 1   
    15   10   19 1   
    16   11   21 1   
    17   12   22 1   
    18   13   23 1   
    19   14   20 1   
    20   16   20 1   
    21   17   29 1   
    22   17   30 1   
    23   17   31 1   
    24   18   21 1   
    25   18   32 1   
    26   18   33 1   
    27   18   34 1   
@<TRIPOS>SUBSTRUCTURE
     1 3RR         1 TEMP              0 ****  ****    0 ROOT
