@<TRIPOS>MOLECULE
3RR
   35    37     1     0     0
SMALL
bcc


@<TRIPOS>ATOM
      1 N1         -3.8140   -0.8560    0.8310 nb        1 3RR     -0.698000
      2 N3         -4.0810    1.2900   -0.3970 na        1 3RR     -0.277100
      3 C4         -1.9330    0.4670   -0.1290 ca        1 3RR     -0.275400
      4 C5         -1.8740    1.7090   -0.8590 cc        1 3RR     -0.021900
      5 C6         -3.1910    2.1790   -1.0080 cd        1 3RR      0.006700
      6 C8          0.4190   -0.3840    0.1220 cp        1 3RR     -0.109500
      7 C10         2.4100   -0.8230   -1.1930 ca        1 3RR     -0.094000
      8 C13         1.1920    0.3020    1.0620 ca        1 3RR     -0.166000
      9 C15        -0.7270    2.3540   -1.3460 cg        1 3RR      0.226500
     10 C12         2.5730    0.4340    0.8750 ca        1 3RR      0.136100
     11 C9          1.0310   -0.9540   -1.0020 ca        1 3RR      0.016400
     12 C11         3.1890   -0.1320   -0.2640 ca        1 3RR      0.007400
     13 C2         -1.0370   -0.5160    0.3500 cp        1 3RR      0.545800
     14 C3         -3.3450    0.2290    0.1500 ca        1 3RR      0.449800
     15 C1         -2.8430   -1.7180    1.2390 ca        1 3RR      0.663300
     16 C16        -3.6390    3.4100   -1.6880 c3        1 3RR     -0.059900
     17 C14         2.7720    1.7250    2.8690 c3        1 3RR      0.110700
     18 N4          0.2190    2.8970   -1.7510 n1        1 3RR     -0.366800
     19 N2         -1.4830   -1.5890    1.0280 nb        1 3RR     -0.695000
     20 O1          3.4020    1.0910    1.7600 os        1 3RR     -0.309900
     21 CL2         0.1230   -1.8120   -2.1520 cl        1 3RR     -0.074400
     22 CL1         4.8570   -0.0020   -0.5400 cl        1 3RR     -0.060400
     23 H7         -2.9830   -3.8610    1.4260 hc        1 3RR      0.064367
     24 H7A        -2.7790   -2.9690    2.9970 hc        1 3RR      0.064367
     25 H7B        -4.3880   -2.9610    2.1490 hc        1 3RR      0.064367
     26 H10         2.8860   -1.2680   -2.0830 ha        1 3RR      0.165000
     27 H13         0.7020    0.7300    1.9480 ha        1 3RR      0.153000
     28 H16        -4.1830    4.0830   -0.9780 hc        1 3RR      0.067033
     29 H16A       -2.7490    3.9570   -2.0890 hc        1 3RR      0.067033
     30 H16B       -4.3220    3.1660   -2.5410 hc        1 3RR      0.067033
     31 H14         2.0360    2.4900    2.5220 h1        1 3RR      0.049367
     32 H14A        2.2780    0.9680    3.5250 h1        1 3RR      0.049367
     33 H14B        3.6280    2.2120    3.4020 h1        1 3RR      0.049367
     34 HN3        -5.0640    1.3820   -0.3670 hn        1 3RR      0.318700
     35 C7         -3.2810   -2.9490    1.9980 c3        1 3RR     -0.133400
@<TRIPOS>BOND
     1    1   14 ar  
     2    1   15 ar  
     3    2    5 1   
     4    2   14 1   
     5    2   34 1   
     6    3    4 1   
     7    3   13 ar  
     8    3   14 ar  
     9    4    5 2   
    10    4    9 1   
    11    5   16 1   
    12    6    8 ar  
    13    6   11 ar  
    14    6   13 1   
    15    7   11 ar  
    16    7   12 ar  
    17    7   26 1   
    18    8   10 ar  
    19    8   27 1   
    20    9   18 3   
    21   10   12 ar  
    22   10   20 1   
    23   11   21 1   
    24   12   22 1   
    25   13   19 ar  
    26   15   19 ar  
    27   15   35 1   
    28   16   28 1   
    29   16   29 1   
    30   16   30 1   
    31   17   20 1   
    32   17   31 1   
    33   17   32 1   
    34   17   33 1   
    35   23   35 1   
    36   24   35 1   
    37   25   35 1   
@<TRIPOS>SUBSTRUCTURE
     1 3RR         1 TEMP              0 ****  ****    0 ROOT
