@<TRIPOS>MOLECULE
3RR
   35    37     1     0     0
SMALL
bcc


@<TRIPOS>ATOM
      1 N1          0.0160   -0.2410    0.1010 nb        1 3RR     -0.698000
      2 N3          2.2260    0.2100    1.1460 na        1 3RR     -0.277100
      3 C4          2.1370    0.0930   -1.1640 ca        1 3RR     -0.275400
      4 C5          3.4940    0.3600   -0.7590 cc        1 3RR     -0.021900
      5 C6          3.5140    0.4270    0.6460 cd        1 3RR      0.006700
      6 C8          2.0960   -0.0100   -3.6760 cp        1 3RR     -0.109500
      7 C10         2.8260    1.2420   -5.6210 ca        1 3RR     -0.094000
      8 C13         2.6430   -1.1750   -4.2220 ca        1 3RR     -0.166000
      9 C15         4.6120    0.5250   -1.5900 cg        1 3RR      0.226500
     10 C12         3.2880   -1.1350   -5.4640 ca        1 3RR      0.136100
     11 C9          2.1810    1.1960   -4.3810 ca        1 3RR      0.016400
     12 C11         3.3820    0.0860   -6.1700 ca        1 3RR      0.007400
     13 C2          1.4130   -0.0860   -2.3660 cp        1 3RR      0.545800
     14 C3          1.3570    0.0040    0.0660 ca        1 3RR      0.449800
     15 C1         -0.5520   -0.3990   -1.1260 ca        1 3RR      0.663300
     16 C16         4.6740    0.6830    1.5210 c3        1 3RR     -0.059900
     17 C14         3.8150   -3.4540   -5.3240 c3        1 3RR      0.110700
     18 N4          5.5450    0.6620   -2.2720 n1        1 3RR     -0.366800
     19 N2          0.0910   -0.3330   -2.3480 nb        1 3RR     -0.695000
     20 O1          3.8450   -2.2410   -6.0690 os        1 3RR     -0.309900
     21 CL2         1.5100    2.6250   -3.7550 cl        1 3RR     -0.074400
     22 CL1         4.1510    0.1920   -7.6780 cl        1 3RR     -0.060400
     23 H7         -2.4730   -0.7350   -0.1460 hc        1 3RR      0.064367
     24 H7A        -2.5460    0.1530   -1.7320 hc        1 3RR      0.064367
     25 H7B        -2.2230   -1.6360   -1.7070 hc        1 3RR      0.064367
     26 H10         2.8950    2.1960   -6.1690 ha        1 3RR      0.165000
     27 H13         2.5550   -2.1190   -3.6650 ha        1 3RR      0.153000
     28 H16         4.8430   -0.1740    2.2210 hc        1 3RR      0.067033
     29 H16A        5.5910    0.8180    0.8940 hc        1 3RR      0.067033
     30 H16B        4.5180    1.6110    2.1270 hc        1 3RR      0.067033
     31 H14         2.7620   -3.7840   -5.1530 h1        1 3RR      0.049367
     32 H14A        4.3510   -4.1750   -5.9930 h1        1 3RR      0.049367
     33 H14B        4.3570   -3.3370   -4.3540 h1        1 3RR      0.049367
     34 HN3         1.9660    0.2160    2.0990 hn        1 3RR      0.318700
     35 C7         -2.0380   -0.6710   -1.1730 c3        1 3RR     -0.133400
@<TRIPOS>BOND
     1    1   14 ar  
     2    1   15 ar  
     3    2    5 1   
     4    2   14 1   
     5    2   34 1   
     6    3    4 1   
     7    3   13 ar  
     8    3   14 ar  
     9    4    5 2   
    10    4    9 1   
    11    5   16 1   
    12    6    8 ar  
    13    6   11 ar  
    14    6   13 1   
    15    7   11 ar  
    16    7   12 ar  
    17    7   26 1   
    18    8   10 ar  
    19    8   27 1   
    20    9   18 3   
    21   10   12 ar  
    22   10   20 1   
    23   11   21 1   
    24   12   22 1   
    25   13   19 ar  
    26   15   19 ar  
    27   15   35 1   
    28   16   28 1   
    29   16   29 1   
    30   16   30 1   
    31   17   20 1   
    32   17   31 1   
    33   17   32 1   
    34   17   33 1   
    35   23   35 1   
    36   24   35 1   
    37   25   35 1   
@<TRIPOS>SUBSTRUCTURE
     1 3RR         1 TEMP              0 ****  ****    0 ROOT
