@<TRIPOS>MOLECULE
3RR
   35    37     1     0     0
SMALL
bcc


@<TRIPOS>ATOM
      1 N1          0.0280   -0.2140    0.1110 nb        1 3RR     -0.698000
      2 N3          2.2460    0.2260    1.1450 na        1 3RR     -0.277100
      3 C4          2.1460    0.1000   -1.1650 ca        1 3RR     -0.275400
      4 C5          3.5070    0.3580   -0.7670 cc        1 3RR     -0.021900
      5 C6          3.5330    0.4320    0.6380 cd        1 3RR      0.006700
      6 C8          2.0930   -0.0140   -3.6760 cp        1 3RR     -0.109500
      7 C10         2.8240    1.2260   -5.6290 ca        1 3RR     -0.094000
      8 C13         2.6280   -1.1840   -4.2200 ca        1 3RR     -0.166000
      9 C15         4.6220    0.5120   -1.6040 cg        1 3RR      0.226500
     10 C12         3.2680   -1.1540   -5.4650 ca        1 3RR      0.136100
     11 C9          2.1840    1.1900   -4.3860 ca        1 3RR      0.016400
     12 C11         3.3680    0.0640   -6.1760 ca        1 3RR      0.007400
     13 C2          1.4150   -0.0790   -2.3630 cp        1 3RR      0.544800
     14 C3          1.3710    0.0210    0.0690 ca        1 3RR      0.449800
     15 C1         -0.5460   -0.3740   -1.1120 ca        1 3RR      0.663300
     16 C16         4.6990    0.6840    1.5060 c3        1 3RR     -0.059900
     17 C14         3.7780   -3.4770   -5.3190 c3        1 3RR      0.110700
     18 N4          5.5530    0.6400   -2.2910 n1        1 3RR     -0.366800
     19 N2          0.0910   -0.3170   -2.3380 nb        1 3RR     -0.695000
     20 O1          3.8140   -2.2660   -6.0690 os        1 3RR     -0.309900
     21 Cl2         1.5260    2.6260   -3.7620 cl        1 3RR     -0.074400
     22 Cl1         4.1320    0.1590   -7.6880 cl        1 3RR     -0.060400
     23 H7         -2.4640   -0.6940   -0.1230 hc        1 3RR      0.064367
     24 H7A        -2.5390    0.1900   -1.7100 hc        1 3RR      0.064367
     25 H7B        -2.2280   -1.6010   -1.6810 hc        1 3RR      0.064367
     26 H10         2.8980    2.1780   -6.1810 ha        1 3RR      0.165000
     27 H13         2.5350   -2.1260   -3.6590 ha        1 3RR      0.153000
     28 H16         4.8650   -0.1720    2.2090 hc        1 3RR      0.067033
     29 H16A        5.6140    0.8090    0.8740 hc        1 3RR      0.067033
     30 H16B        4.5520    1.6150    2.1090 hc        1 3RR      0.067033
     31 H14         2.7230   -3.7980   -5.1420 h1        1 3RR      0.049367
     32 H14A        4.3060   -4.2040   -5.9870 h1        1 3RR      0.049367
     33 H14B        4.3240   -3.3610   -4.3520 h1        1 3RR      0.049367
     34 HN3         1.9910    0.2380    2.0990 hn        1 3RR      0.318700
     35 C7         -2.0340   -0.6360   -1.1510 c3        1 3RR     -0.133400
@<TRIPOS>BOND
     1    1   14 ar  
     2    1   15 ar  
     3    2    5 1   
     4    2   14 1   
     5    2   34 1   
     6    3    4 1   
     7    3   13 ar  
     8    3   14 ar  
     9    4    5 2   
    10    4    9 1   
    11    5   16 1   
    12    6    8 ar  
    13    6   11 ar  
    14    6   13 1   
    15    7   11 ar  
    16    7   12 ar  
    17    7   26 1   
    18    8   10 ar  
    19    8   27 1   
    20    9   18 3   
    21   10   12 ar  
    22   10   20 1   
    23   11   21 1   
    24   12   22 1   
    25   13   19 ar  
    26   15   19 ar  
    27   15   35 1   
    28   16   28 1   
    29   16   29 1   
    30   16   30 1   
    31   17   20 1   
    32   17   31 1   
    33   17   32 1   
    34   17   33 1   
    35   23   35 1   
    36   24   35 1   
    37   25   35 1   
@<TRIPOS>SUBSTRUCTURE
     1 3RR         1 TEMP              0 ****  ****    0 ROOT
