@<TRIPOS>MOLECULE
3RS
   66    69     1     0     0
SMALL
bcc


@<TRIPOS>ATOM
      1 C26        -2.5200   -0.5550   -0.0670 c3        1 3RS     -0.132400
      2 C27        -1.8000    0.7930    0.1020 c3        1 3RS      0.156800
      3 C31        -0.3880    0.7470   -0.4620 c3        1 3RS     -0.109600
      4 C32        -2.6070    1.8820   -0.6040 c3        1 3RS     -0.109600
      5 O28        -1.7990    1.1830    1.4830 os        1 3RS     -0.390600
      6 C29        -1.2100    0.2370    2.3550 c3        1 3RS      0.129400
      7 C30        -1.9500   -1.0960    2.3130 c3        1 3RS     -0.138400
      8 C25        -1.9460   -1.6170    0.8760 c3        1 3RS      0.128500
      9 N15        -2.7090   -2.9100    0.7360 ny        1 3RS     -0.671800
     10 C14        -2.0210   -4.0670    1.4240 c         1 3RS      0.567100
     11 O16        -1.1400   -4.6170    0.7810 o         1 3RS     -0.421100
     12 C13        -2.5190   -4.4150    2.8090 c3        1 3RS     -0.121700
     13 C17        -1.3610   -4.9670    3.6210 c3        1 3RS     -0.107100
     14 C12        -3.6510   -5.4400    2.7200 c3        1 3RS     -0.026100
     15 C9         -4.8890   -4.8860    2.1150 ca        1 3RS     -0.281600
     16 C8         -5.1170   -4.8850    0.6790 ca        1 3RS      0.561200
     17 N7         -6.2450   -4.4120    0.1270 nb        1 3RS     -0.692000
     18 N11        -4.0640   -5.3250   -0.1750 nv        1 3RS     -0.947500
     19 C10        -5.8920   -4.4010    2.9260 ca        1 3RS     -0.038000
     20 C5         -7.0910   -3.8890    2.3690 ca        1 3RS     -0.166300
     21 C6         -8.1400   -3.3790    3.1740 ca        1 3RS     -0.107000
     22 C4         -7.2280   -3.9090    0.9460 ca        1 3RS      0.421600
     23 C3         -8.4400   -3.4020    0.3740 ca        1 3RS     -0.179300
     24 C2         -9.4330   -2.9130    1.1830 ca        1 3RS     -0.084000
     25 C1         -9.2970   -2.8920    2.5990 cp        1 3RS      0.000000
     26 C18       -10.3900   -2.3930    3.4360 cp        1 3RS     -0.072000
     27 C19       -10.8610   -3.2140    4.4730 ca        1 3RS     -0.111000
     28 C20       -11.9060   -2.7960    5.2910 ca        1 3RS     -0.130000
     29 C21       -12.4890   -1.5450    5.0850 ca        1 3RS     -0.106000
     30 C22       -12.0230   -0.7210    4.0660 ca        1 3RS     -0.130000
     31 C23       -10.9730   -1.1310    3.2310 ca        1 3RS     -0.054300
     32 C24       -10.5160   -0.2110    2.1630 c3        1 3RS     -0.060800
     33 H26        -3.6100   -0.3990    0.1520 hc        1 3RS      0.074700
     34 H26A       -2.4130   -0.8800   -1.1340 hc        1 3RS      0.074700
     35 H31         0.1520    1.6860   -0.1860 hc        1 3RS      0.058033
     36 H31A        0.1880   -0.1200   -0.0630 hc        1 3RS      0.058033
     37 H31B       -0.4270    0.6690   -1.5750 hc        1 3RS      0.058033
     38 H32        -3.6060    1.9990   -0.1200 hc        1 3RS      0.058033
     39 H32A       -2.7410    1.6110   -1.6770 hc        1 3RS      0.058033
     40 H32B       -2.0640    2.8540   -0.5320 hc        1 3RS      0.058033
     41 H29        -1.3100    0.7060    3.3730 h1        1 3RS      0.075200
     42 H29A       -0.1250    0.0920    2.1090 h1        1 3RS      0.075200
     43 H30        -1.4370   -1.8190    2.9990 hc        1 3RS      0.069200
     44 H30A       -3.0010   -0.9440    2.6720 hc        1 3RS      0.069200
     45 H25        -0.8810   -1.8550    0.5680 hx        1 3RS      0.111700
     46 HN15       -2.7890   -3.1240   -0.2680 hn        1 3RS      0.465300
     47 H13        -2.9110   -3.4880    3.3180 hc        1 3RS      0.085700
     48 H17        -0.9320   -5.8760    3.1320 hc        1 3RS      0.069700
     49 H17A       -0.5540   -4.2010    3.7210 hc        1 3RS      0.069700
     50 H17B       -1.7200   -5.2440    4.6420 hc        1 3RS      0.069700
     51 H12        -3.2910   -6.3530    2.1750 hc        1 3RS      0.083200
     52 H12A       -3.8720   -5.7740    3.7740 hc        1 3RS      0.083200
     53 HN11       -3.7080   -6.2130    0.1250 hn        1 3RS      0.401300
     54 HN1A       -4.3370   -5.3750   -1.1400 hn        1 3RS      0.401300
     55 H10        -5.7800   -4.4080    4.0240 ha        1 3RS      0.151000
     56 H6         -8.0200   -3.3810    4.2700 ha        1 3RS      0.149000
     57 H3         -8.5660   -3.4230   -0.7210 ha        1 3RS      0.162000
     58 H2        -10.3690   -2.5300    0.7420 ha        1 3RS      0.160000
     59 H19       -10.4030   -4.2030    4.6300 ha        1 3RS      0.134000
     60 H20       -12.2720   -3.4520    6.0950 ha        1 3RS      0.142000
     61 H21       -13.3170   -1.2110    5.7290 ha        1 3RS      0.144000
     62 H22       -12.4800    0.2680    3.9090 ha        1 3RS      0.142000
     63 H24        -9.4540   -0.4120    1.8770 hc        1 3RS      0.048367
     64 H24A      -10.5930    0.8530    2.4990 hc        1 3RS      0.048367
     65 H24B      -11.1560   -0.3340    1.2530 hc        1 3RS      0.048367
     66 H152       -3.6550   -2.8080    1.1210 hn        1 3RS      0.465300
@<TRIPOS>BOND
     1    1    2 1   
     2    1    8 1   
     3    1   33 1   
     4    1   34 1   
     5    2    3 1   
     6    2    4 1   
     7    2    5 1   
     8    3   35 1   
     9    3   36 1   
    10    3   37 1   
    11    4   38 1   
    12    4   39 1   
    13    4   40 1   
    14    5    6 1   
    15    6    7 1   
    16    6   41 1   
    17    6   42 1   
    18    7    8 1   
    19    7   43 1   
    20    7   44 1   
    21    8    9 1   
    22    8   45 1   
    23    9   10 1   
    24    9   46 1   
    25    9   66 1   
    26   10   11 2   
    27   10   12 1   
    28   12   13 1   
    29   12   14 1   
    30   12   47 1   
    31   13   48 1   
    32   13   49 1   
    33   13   50 1   
    34   14   15 1   
    35   14   51 1   
    36   14   52 1   
    37   15   16 ar  
    38   15   19 ar  
    39   16   17 ar  
    40   16   18 1   
    41   17   22 ar  
    42   18   53 1   
    43   18   54 1   
    44   19   20 ar  
    45   19   55 1   
    46   20   21 ar  
    47   20   22 ar  
    48   21   25 ar  
    49   21   56 1   
    50   22   23 ar  
    51   23   24 ar  
    52   23   57 1   
    53   24   25 ar  
    54   24   58 1   
    55   25   26 1   
    56   26   27 ar  
    57   26   31 ar  
    58   27   28 ar  
    59   27   59 1   
    60   28   29 ar  
    61   28   60 1   
    62   29   30 ar  
    63   29   61 1   
    64   30   31 ar  
    65   30   62 1   
    66   31   32 1   
    67   32   63 1   
    68   32   64 1   
    69   32   65 1   
@<TRIPOS>SUBSTRUCTURE
     1 3RS         1 TEMP              0 ****  ****    0 ROOT
