@<TRIPOS>MOLECULE
3RS
   65    68     1     0     0
SMALL
bcc


@<TRIPOS>ATOM
      1 C26        -6.4530    0.2260    1.0880 c3        1 3RS     -0.116400
      2 C27        -7.9110   -0.0680    0.7240 c3        1 3RS      0.152800
      3 C31        -8.0600   -1.4370    0.0740 c3        1 3RS     -0.103600
      4 C32        -8.7700   -0.0060    1.9880 c3        1 3RS     -0.103600
      5 O28        -8.4520    0.9560   -0.1250 os        1 3RS     -0.414600
      6 C29        -7.6900    1.2100   -1.2950 c3        1 3RS      0.131400
      7 C30        -6.2630    1.6140   -0.9740 c3        1 3RS     -0.126400
      8 C25        -5.5910    0.4990   -0.1570 c3        1 3RS      0.098700
      9 N15        -4.2230    0.8210    0.1890 n         1 3RS     -0.560900
     10 C14        -3.1530    0.0540   -0.2020 c         1 3RS      0.665100
     11 O16        -3.3200   -0.9690   -0.9060 o         1 3RS     -0.644100
     12 C13        -1.7420    0.4330    0.2460 c3        1 3RS     -0.135700
     13 C17        -1.6270    1.7560    0.9690 c3        1 3RS     -0.100100
     14 C12        -0.8090    0.4050   -0.9690 c3        1 3RS     -0.024100
     15 C9          0.4720   -0.2960   -0.6910 ca        1 3RS     -0.242600
     16 C8          0.5270   -1.7520   -0.5570 ca        1 3RS      0.679200
     17 N7          1.6940   -2.4130   -0.3880 nb        1 3RS     -0.753000
     18 N11        -0.6550   -2.4790   -0.5370 nh        1 3RS     -0.958500
     19 C10         1.6460    0.4080   -0.5930 ca        1 3RS     -0.050000
     20 C5          2.8810   -0.2630   -0.3810 ca        1 3RS     -0.198300
     21 C6          4.1070    0.4350   -0.2720 ca        1 3RS     -0.082000
     22 C4          2.8530   -1.6880   -0.2900 ca        1 3RS      0.455600
     23 C3          4.1010   -2.3700   -0.0910 ca        1 3RS     -0.190300
     24 C2          5.2700   -1.6640    0.0170 ca        1 3RS     -0.098000
     25 C1          5.2910   -0.2450   -0.0690 cp        1 3RS     -0.060000
     26 C18         6.5600    0.4790    0.0240 cp        1 3RS     -0.035000
     27 C19         6.8930    1.3800   -1.0000 ca        1 3RS     -0.118000
     28 C20         8.0890    2.0900   -0.9630 ca        1 3RS     -0.136000
     29 C21         8.9690    1.9110    0.1040 ca        1 3RS     -0.125000
     30 C22         8.6450    1.0270    1.1290 ca        1 3RS     -0.134000
     31 C23         7.4440    0.3050    1.1030 ca        1 3RS     -0.061300
     32 C24         7.1440   -0.6200    2.2220 c3        1 3RS     -0.058800
     33 H26        -6.4280    1.1190    1.7650 hc        1 3RS      0.054200
     34 H26A       -6.0420   -0.6510    1.6510 hc        1 3RS      0.054200
     35 H31        -7.8220   -2.2350    0.8170 hc        1 3RS      0.045700
     36 H31A       -9.1110   -1.5710   -0.2810 hc        1 3RS      0.045700
     37 H31B       -7.3750   -1.5470   -0.7990 hc        1 3RS      0.045700
     38 H32        -8.7510    1.0250    2.4150 hc        1 3RS      0.045700
     39 H32A       -9.8250   -0.2690    1.7410 hc        1 3RS      0.045700
     40 H32B       -8.3740   -0.7260    2.7410 hc        1 3RS      0.045700
     41 H29        -7.7040    0.3080   -1.9630 h1        1 3RS      0.050700
     42 H29A       -8.2410    2.0530   -1.7930 h1        1 3RS      0.050700
     43 H30        -5.7050    1.7880   -1.9290 hc        1 3RS      0.054700
     44 H30A       -6.2670    2.5710   -0.3910 hc        1 3RS      0.054700
     45 H25        -5.5680   -0.4400   -0.7910 h1        1 3RS      0.093700
     46 HN15       -4.0800    1.6250    0.7500 hn        1 3RS      0.312500
     47 H13        -1.4410   -0.3840    0.9660 hc        1 3RS      0.098700
     48 H17        -0.5510    1.9520    1.2050 hc        1 3RS      0.043367
     49 H17A       -2.0030    2.6000    0.3420 hc        1 3RS      0.043367
     50 H17B       -2.1910    1.7380    1.9330 hc        1 3RS      0.043367
     51 H12        -1.3210   -0.0930   -1.8390 hc        1 3RS      0.062200
     52 H12A       -0.5970    1.4620   -1.2910 hc        1 3RS      0.062200
     53 HN11       -1.4660   -2.0460   -0.9220 hn        1 3RS      0.435800
     54 HN1A       -0.5960   -3.4660   -0.6200 hn        1 3RS      0.435800
     55 H10         1.6510    1.5060   -0.6850 ha        1 3RS      0.134000
     56 H6          4.1010    1.5340   -0.3480 ha        1 3RS      0.133000
     57 H3          4.1010   -3.4690   -0.0270 ha        1 3RS      0.149000
     58 H2          6.2250   -2.1930    0.1710 ha        1 3RS      0.138000
     59 H19         6.1970    1.5180   -1.8410 ha        1 3RS      0.134000
     60 H20         8.3390    2.7880   -1.7750 ha        1 3RS      0.131000
     61 H21         9.9170    2.4690    0.1370 ha        1 3RS      0.131000
     62 H22         9.3360    0.8910    1.9740 ha        1 3RS      0.131000
     63 H24         7.6100   -1.6190    2.0270 hc        1 3RS      0.047367
     64 H24A        7.5580   -0.2260    3.1830 hc        1 3RS      0.047367
     65 H24B        6.0420   -0.7650    2.3440 hc        1 3RS      0.047367
@<TRIPOS>BOND
     1    1    2 1   
     2    1    8 1   
     3    1   33 1   
     4    1   34 1   
     5    2    3 1   
     6    2    4 1   
     7    2    5 1   
     8    3   35 1   
     9    3   36 1   
    10    3   37 1   
    11    4   38 1   
    12    4   39 1   
    13    4   40 1   
    14    5    6 1   
    15    6    7 1   
    16    6   41 1   
    17    6   42 1   
    18    7    8 1   
    19    7   43 1   
    20    7   44 1   
    21    8    9 1   
    22    8   45 1   
    23    9   10 1   
    24    9   46 1   
    25   10   11 2   
    26   10   12 1   
    27   12   13 1   
    28   12   14 1   
    29   12   47 1   
    30   13   48 1   
    31   13   49 1   
    32   13   50 1   
    33   14   15 1   
    34   14   51 1   
    35   14   52 1   
    36   15   16 ar  
    37   15   19 ar  
    38   16   17 ar  
    39   16   18 1   
    40   17   22 ar  
    41   18   53 1   
    42   18   54 1   
    43   19   20 ar  
    44   19   55 1   
    45   20   21 ar  
    46   20   22 ar  
    47   21   25 ar  
    48   21   56 1   
    49   22   23 ar  
    50   23   24 ar  
    51   23   57 1   
    52   24   25 ar  
    53   24   58 1   
    54   25   26 1   
    55   26   27 ar  
    56   26   31 ar  
    57   27   28 ar  
    58   27   59 1   
    59   28   29 ar  
    60   28   60 1   
    61   29   30 ar  
    62   29   61 1   
    63   30   31 ar  
    64   30   62 1   
    65   31   32 1   
    66   32   63 1   
    67   32   64 1   
    68   32   65 1   
@<TRIPOS>SUBSTRUCTURE
     1 3RS         1 TEMP              0 ****  ****    0 ROOT
