@<TRIPOS>MOLECULE
3RS
   66    69     1     0     0
SMALL
bcc


@<TRIPOS>ATOM
      1 C26        -2.5240   -0.5330   -0.0640 c3        1 3RS     -0.132400
      2 C27        -1.7850    0.8000    0.1350 c3        1 3RS      0.156800
      3 C31        -0.3810    0.7540   -0.4490 c3        1 3RS     -0.109600
      4 C32        -2.5880    1.9190   -0.5270 c3        1 3RS     -0.109600
      5 O28        -1.7600    1.1490    1.5270 os        1 3RS     -0.390600
      6 C29        -1.1720    0.1710    2.3630 c3        1 3RS      0.129400
      7 C30        -1.9280   -1.1510    2.2910 c3        1 3RS     -0.138400
      8 C25        -1.9500   -1.6290    0.8390 c3        1 3RS      0.128500
      9 N15        -2.7310   -2.9090    0.6720 n4        1 3RS     -0.671800
     10 C14        -2.0460   -4.0940    1.3140 c         1 3RS      0.567100
     11 O16        -1.1830   -4.6340    0.6410 o         1 3RS     -0.421100
     12 C13        -2.5270   -4.4790    2.6960 c3        1 3RS     -0.121700
     13 C17        -1.3640   -5.0670    3.4720 c3        1 3RS     -0.107100
     14 C12        -3.6720   -5.4870    2.5930 c3        1 3RS     -0.026100
     15 C9         -4.9130   -4.9010    2.0250 ca        1 3RS     -0.281600
     16 C8         -5.1640   -4.8530    0.5940 ca        1 3RS      0.561200
     17 N7         -6.2950   -4.3510    0.0750 nb        1 3RS     -0.692000
     18 N11        -4.1290   -5.2780   -0.2900 nh        1 3RS     -0.947500
     19 C10        -5.8980   -4.4300    2.8670 ca        1 3RS     -0.038000
     20 C5         -7.1000   -3.8880    2.3450 ca        1 3RS     -0.166300
     21 C6         -8.1300   -3.3920    3.1820 ca        1 3RS     -0.107000
     22 C4         -7.2590   -3.8630    0.9240 ca        1 3RS      0.421600
     23 C3         -8.4730   -3.3250    0.3880 ca        1 3RS     -0.179300
     24 C2         -9.4480   -2.8500    1.2270 ca        1 3RS     -0.084000
     25 C1         -9.2900   -2.8750    2.6410 cp        1 3RS      0.000000
     26 C18       -10.3640   -2.3910    3.5100 cp        1 3RS     -0.072000
     27 C19       -10.8280   -3.2380    4.5290 ca        1 3RS     -0.111000
     28 C20       -11.8550   -2.8350    5.3760 ca        1 3RS     -0.130000
     29 C21       -12.4280   -1.5720    5.2190 ca        1 3RS     -0.106000
     30 C22       -11.9680   -0.7220    4.2180 ca        1 3RS     -0.130000
     31 C23       -10.9370   -1.1170    3.3540 ca        1 3RS     -0.054300
     32 C24       -10.4860   -0.1690    2.3070 c3        1 3RS     -0.060800
     33 H26        -2.4360   -0.8270   -1.1420 hc        1 3RS      0.074700
     34 H26A       -3.6090   -0.3710    0.1750 hc        1 3RS      0.074700
     35 H31         0.1900   -0.1310   -0.0840 hc        1 3RS      0.058033
     36 H31A       -0.4360    0.7100   -1.5630 hc        1 3RS      0.058033
     37 H31B        0.1740    1.6780   -0.1530 hc        1 3RS      0.058033
     38 H32        -3.5790    2.0340   -0.0270 hc        1 3RS      0.058033
     39 H32A       -2.0310    2.8830   -0.4340 hc        1 3RS      0.058033
     40 H32B       -2.7380    1.6820   -1.6060 hc        1 3RS      0.058033
     41 H29        -0.0920    0.0210    2.0970 h1        1 3RS      0.075200
     42 H29A       -1.2520    0.6110    3.3940 h1        1 3RS      0.075200
     43 H30        -2.9730   -0.9970    2.6690 hc        1 3RS      0.069200
     44 H30A       -1.4150   -1.9010    2.9480 hc        1 3RS      0.069200
     45 H25        -0.8930   -1.8710    0.5090 hx        1 3RS      0.111700
     46 HN15       -2.8290   -3.0910   -0.3370 hn        1 3RS      0.465300
     47 H13        -2.9010   -3.5620    3.2380 hc        1 3RS      0.085700
     48 H17        -0.9530   -5.9660    2.9490 hc        1 3RS      0.069700
     49 H17A       -1.7100   -5.3710    4.4900 hc        1 3RS      0.069700
     50 H17B       -0.5460   -4.3140    3.5820 hc        1 3RS      0.069700
     51 H12        -3.8810   -5.8510    3.6400 hc        1 3RS      0.083200
     52 H12A       -3.3310   -6.3870    2.0150 hc        1 3RS      0.083200
     53 HN11       -4.4180   -5.2950   -1.2520 hn        1 3RS      0.401300
     54 HN1A       -3.7790   -6.1790   -0.0240 hn        1 3RS      0.401300
     55 H10        -5.7680   -4.4730    3.9620 ha        1 3RS      0.151000
     56 H6         -7.9930   -3.4290    4.2750 ha        1 3RS      0.149000
     57 H3         -8.6170   -3.3110   -0.7050 ha        1 3RS      0.162000
     58 H2        -10.3870   -2.4430    0.8130 ha        1 3RS      0.160000
     59 H19       -10.3780   -4.2360    4.6480 ha        1 3RS      0.134000
     60 H20       -12.2150   -3.5110    6.1650 ha        1 3RS      0.142000
     61 H21       -13.2420   -1.2490    5.8860 ha        1 3RS      0.144000
     62 H22       -12.4170    0.2770    4.0980 ha        1 3RS      0.142000
     63 H24       -10.5460    0.8850    2.6780 hc        1 3RS      0.048367
     64 H24A      -11.1420   -0.2570    1.4040 hc        1 3RS      0.048367
     65 H24B       -9.4310   -0.3720    1.9980 hc        1 3RS      0.048367
     66 H152       -3.6700   -2.8070    1.0740 hn        1 3RS      0.465300
@<TRIPOS>BOND
     1    1    2 1   
     2    1    8 1   
     3    1   33 1   
     4    1   34 1   
     5    2    3 1   
     6    2    4 1   
     7    2    5 1   
     8    3   35 1   
     9    3   36 1   
    10    3   37 1   
    11    4   38 1   
    12    4   39 1   
    13    4   40 1   
    14    5    6 1   
    15    6    7 1   
    16    6   41 1   
    17    6   42 1   
    18    7    8 1   
    19    7   43 1   
    20    7   44 1   
    21    8    9 1   
    22    8   45 1   
    23    9   10 1   
    24    9   46 1   
    25    9   66 1   
    26   10   11 2   
    27   10   12 1   
    28   12   13 1   
    29   12   14 1   
    30   12   47 1   
    31   13   48 1   
    32   13   49 1   
    33   13   50 1   
    34   14   15 1   
    35   14   51 1   
    36   14   52 1   
    37   15   16 ar  
    38   15   19 ar  
    39   16   17 ar  
    40   16   18 1   
    41   17   22 ar  
    42   18   53 1   
    43   18   54 1   
    44   19   20 ar  
    45   19   55 1   
    46   20   21 ar  
    47   20   22 ar  
    48   21   25 ar  
    49   21   56 1   
    50   22   23 ar  
    51   23   24 ar  
    52   23   57 1   
    53   24   25 ar  
    54   24   58 1   
    55   25   26 1   
    56   26   27 ar  
    57   26   31 ar  
    58   27   28 ar  
    59   27   59 1   
    60   28   29 ar  
    61   28   60 1   
    62   29   30 ar  
    63   29   61 1   
    64   30   31 ar  
    65   30   62 1   
    66   31   32 1   
    67   32   63 1   
    68   32   64 1   
    69   32   65 1   
@<TRIPOS>SUBSTRUCTURE
     1 3RS         1 TEMP              0 ****  ****    0 ROOT
