@<TRIPOS>MOLECULE
3RS
   67    70     1     0     0
SMALL
bcc


@<TRIPOS>ATOM
      1 C26        -2.3490   -0.7580    1.5770 c3        1 3RS     -0.136400
      2 C27        -2.6830    0.4220    0.6410 c3        1 3RS      0.159800
      3 C31        -3.4470   -0.0430   -0.5890 c3        1 3RS     -0.111600
      4 C32        -3.5080    1.4500    1.4130 c3        1 3RS     -0.111600
      5 O28        -1.4810    1.1130    0.2860 os        1 3RS     -0.377600
      6 C29        -0.5050    0.3060   -0.3450 c3        1 3RS      0.128400
      7 C30        -0.0500   -0.8240    0.5750 c3        1 3RS     -0.145400
      8 C25        -1.2740   -1.6560    0.9670 c3        1 3RS      0.135500
      9 N15        -0.8680   -2.7650    1.9290 n4        1 3RS     -0.680800
     10 C14        -1.8890   -3.8600    2.0180 c         1 3RS      0.571100
     11 O16        -1.9870   -4.5850    1.0330 o         1 3RS     -0.487100
     12 C13        -2.6840   -3.9760    3.3030 c3        1 3RS     -0.128700
     13 C17        -1.7580   -4.0900    4.5000 c3        1 3RS     -0.127100
     14 C12        -3.6150   -5.1910    3.2380 c3        1 3RS     -0.035100
     15 C9         -4.8750   -4.9350    2.4920 ca        1 3RS     -0.227600
     16 C8         -5.2390   -5.5860    1.2620 ca        1 3RS      0.451200
     17 N7         -6.3840   -5.3910    0.6020 nb        1 3RS     -0.611000
     18 N11        -4.3190   -6.5730    0.6510 n4        1 3RS     -0.823300
     19 C10        -5.8170   -4.0690    3.0220 ca        1 3RS     -0.046000
     20 C5         -7.0520   -3.8320    2.3660 ca        1 3RS     -0.109300
     21 C6         -8.0320   -2.9630    2.8920 ca        1 3RS     -0.138000
     22 C4         -7.3020   -4.5220    1.1280 ca        1 3RS      0.400600
     23 C3         -8.5480   -4.2980    0.4580 ca        1 3RS     -0.153300
     24 C2         -9.4730   -3.4430    1.0000 ca        1 3RS     -0.079000
     25 C1         -9.2320   -2.7590    2.2270 cp        1 3RS      0.070000
     26 C18       -10.2550   -1.8870    2.7970 cp        1 3RS     -0.110000
     27 C19       -10.5950   -2.0640    4.1500 ca        1 3RS     -0.103000
     28 C20       -11.5810   -1.2830    4.7420 ca        1 3RS     -0.127000
     29 C21       -12.2330   -0.3020    3.9910 ca        1 3RS     -0.084000
     30 C22       -11.8920   -0.1090    2.6560 ca        1 3RS     -0.127000
     31 C23       -10.9050   -0.8930    2.0420 ca        1 3RS     -0.040300
     32 C24       -10.5810   -0.6300    0.6200 c3        1 3RS     -0.067800
     33 H26        -3.2880   -1.3390    1.7620 hc        1 3RS      0.066700
     34 H26A       -1.9900   -0.3290    2.5500 hc        1 3RS      0.066700
     35 H31        -2.9410   -0.8970   -1.0960 hc        1 3RS      0.061033
     36 H31A       -4.4790   -0.3550   -0.3000 hc        1 3RS      0.061033
     37 H31B       -3.5210    0.8040   -1.3170 hc        1 3RS      0.061033
     38 H32        -3.7990    2.2820    0.7270 hc        1 3RS      0.061033
     39 H32A       -2.9080    1.8810    2.2490 hc        1 3RS      0.061033
     40 H32B       -4.4260    0.9670    1.8190 hc        1 3RS      0.061033
     41 H29         0.3480    1.0140   -0.5420 h1        1 3RS      0.087700
     42 H29A       -0.8900   -0.1040   -1.3150 h1        1 3RS      0.087700
     43 H30         0.4320   -0.3780    1.4850 hc        1 3RS      0.083200
     44 H30A        0.7080   -1.4500    0.0360 hc        1 3RS      0.083200
     45 H25        -1.6790   -2.1810    0.0490 hx        1 3RS      0.113700
     46 HN15        0.0200   -3.1610    1.5850 hn        1 3RS      0.468800
     47 H13        -3.3100   -3.0380    3.3980 hc        1 3RS      0.116700
     48 H17        -1.0220   -4.9190    4.3680 hc        1 3RS      0.078700
     49 H17A       -2.3620   -4.3120    5.4190 hc        1 3RS      0.078700
     50 H17B       -1.2120   -3.1360    4.6970 hc        1 3RS      0.078700
     51 H12        -3.8950   -5.4610    4.3000 hc        1 3RS      0.083700
     52 H12A       -3.0410   -6.0660    2.8380 hc        1 3RS      0.083700
     53 HN11       -4.2390   -7.3810    1.2790 hn        1 3RS      0.473467
     54 HN1A       -3.3990   -6.1410    0.5180 hn        1 3RS      0.473467
     55 H10        -5.6230   -3.5590    3.9820 ha        1 3RS      0.163000
     56 H6         -7.8380   -2.4470    3.8460 ha        1 3RS      0.163000
     57 H3         -8.7570   -4.8280   -0.4880 ha        1 3RS      0.177000
     58 H2        -10.4410   -3.2800    0.4900 ha        1 3RS      0.181000
     59 H19       -10.0890   -2.8440    4.7390 ha        1 3RS      0.131000
     60 H20       -11.8500   -1.4400    5.7980 ha        1 3RS      0.153000
     61 H21       -13.0170    0.3170    4.4550 ha        1 3RS      0.157000
     62 H22       -12.4020    0.6700    2.0670 ha        1 3RS      0.153000
     63 H24        -9.5460   -0.9650    0.3620 hc        1 3RS      0.052700
     64 H24A      -10.6590    0.4640    0.3960 hc        1 3RS      0.052700
     65 H24B      -11.3050   -1.1670   -0.0440 hc        1 3RS      0.052700
     66 H152       -0.7080   -2.3570    2.8570 hn        1 3RS      0.468800
     67 H113       -4.6790   -6.8950   -0.2600 hn        1 3RS      0.473467
@<TRIPOS>BOND
     1    1    2 1   
     2    1    8 1   
     3    1   33 1   
     4    1   34 1   
     5    2    3 1   
     6    2    4 1   
     7    2    5 1   
     8    3   35 1   
     9    3   36 1   
    10    3   37 1   
    11    4   38 1   
    12    4   39 1   
    13    4   40 1   
    14    5    6 1   
    15    6    7 1   
    16    6   41 1   
    17    6   42 1   
    18    7    8 1   
    19    7   43 1   
    20    7   44 1   
    21    8    9 1   
    22    8   45 1   
    23    9   10 1   
    24    9   46 1   
    25    9   66 1   
    26   10   11 2   
    27   10   12 1   
    28   12   13 1   
    29   12   14 1   
    30   12   47 1   
    31   13   48 1   
    32   13   49 1   
    33   13   50 1   
    34   14   15 1   
    35   14   51 1   
    36   14   52 1   
    37   15   16 ar  
    38   15   19 ar  
    39   16   17 ar  
    40   16   18 1   
    41   17   22 ar  
    42   18   53 1   
    43   18   54 1   
    44   18   67 1   
    45   19   20 ar  
    46   19   55 1   
    47   20   21 ar  
    48   20   22 ar  
    49   21   25 ar  
    50   21   56 1   
    51   22   23 ar  
    52   23   24 ar  
    53   23   57 1   
    54   24   25 ar  
    55   24   58 1   
    56   25   26 1   
    57   26   27 ar  
    58   26   31 ar  
    59   27   28 ar  
    60   27   59 1   
    61   28   29 ar  
    62   28   60 1   
    63   29   30 ar  
    64   29   61 1   
    65   30   31 ar  
    66   30   62 1   
    67   31   32 1   
    68   32   63 1   
    69   32   64 1   
    70   32   65 1   
@<TRIPOS>SUBSTRUCTURE
     1 3RS         1 TEMP              0 ****  ****    0 ROOT
