@<TRIPOS>MOLECULE
3RS
   65    61     1     0     0
SMALL
bcc


@<TRIPOS>ATOM
      1 C26         3.9350    1.3300   -1.9110 c3        1 3RS     -0.191000
      2 C27         5.1170    1.7350   -2.8060 c3        1 3RS      0.081000
      3 C31         6.3760    1.0610   -2.2800 c3        1 3RS     -0.220500
      4 C32         4.8610    1.2480   -4.2090 c3        1 3RS     -0.220500
      5 O28         5.3280    3.1900   -2.8310 os        1 3RS     -0.272000
      6 C29         5.4160    3.7850   -1.4780 c3        1 3RS     -0.019000
      7 C30         4.2490    3.3950   -0.5900 c3        1 3RS     -0.209000
      8 C25         4.0270    1.9120   -0.5560 c3        1 3RS      0.024000
      9 N15         2.7770    1.6340    0.1590 n         1 3RS     -0.379000
     10 C14         2.7430    0.6520    1.1300 c2        1 3RS      0.302000
     11 O16         3.7480    0.0250    1.3900 o         1 3RS     -0.376000
     12 C13         1.4050    0.4260    2.0020 c3        1 3RS     -0.117000
     13 C17         1.5020    1.1900    3.2470 c3        1 3RS     -0.212000
     14 C12         1.2600   -1.0120    2.3140 c3        1 3RS     -0.105000
     15 C9         -0.2310   -1.3720    2.4210 c2        1 3RS     -0.153000
     16 C8         -0.7700   -1.8890    3.6290 c2        1 3RS      0.132000
     17 N7         -2.0680   -2.3380    3.6670 n1        1 3RS     -0.212000
     18 N11        -0.4010   -2.2950    4.9830 n3        1 3RS     -0.329000
     19 C10        -1.0110   -1.3210    1.2810 c1        1 3RS     -0.058000
     20 C5         -2.3380   -1.7800    1.3220 c1        1 3RS     -0.120000
     21 C6         -3.1890   -1.5960    0.1950 c2        1 3RS     -0.086000
     22 C4         -2.8640   -2.2880    2.5170 c1        1 3RS      0.050000
     23 C3         -4.2600   -2.6230    2.6010 c2        1 3RS     -0.120000
     24 C2         -5.0910   -2.4420    1.4970 c1        1 3RS     -0.101000
     25 C1         -4.5620   -1.9270    0.2850 c1        1 3RS     -0.052000
     26 C18        -5.3940   -1.8060   -0.8780 c1        1 3RS     -0.044000
     27 C19        -5.4800   -2.8480   -1.7640 c1        1 3RS     -0.127000
     28 C20        -6.2640   -2.7260   -2.9050 c1        1 3RS     -0.127000
     29 C21        -6.9530   -1.5560   -3.1440 c1        1 3RS     -0.127000
     30 C22        -6.8670   -0.4970   -2.2470 c1        1 3RS     -0.127000
     31 C23        -6.1010   -0.6100   -1.1270 c1        1 3RS     -0.052000
     32 C24        -6.1190    0.5220   -0.0540 c3        1 3RS     -0.182000
     33 H26         3.1180    1.6290   -2.3230 hc        1 3RS      0.093000
     34 H26A        3.9120    0.3380   -1.8340 hc        1 3RS      0.093000
     35 H31         6.6810    1.5230   -1.4690 hc        1 3RS      0.084833
     36 H31A        6.1830    0.1490   -2.0720 hc        1 3RS      0.084833
     37 H31B        7.0600    1.0970   -2.9440 hc        1 3RS      0.084833
     38 H32         4.1650    1.8040   -4.6300 hc        1 3RS      0.084833
     39 H32A        4.5570    0.3020   -4.1740 hc        1 3RS      0.084833
     40 H32B        5.6680    1.3050   -4.7240 hc        1 3RS      0.084833
     41 H29         6.3050    3.4720   -1.0280 h1        1 3RS      0.089500
     42 H29A        5.4300    4.7430   -1.5630 h1        1 3RS      0.089500
     43 H30         3.4580    3.8200   -0.9140 hc        1 3RS      0.093500
     44 H30A        4.4220    3.6990    0.2850 hc        1 3RS      0.093500
     45 H25         4.7620    1.4910   -0.0800 h1        1 3RS      0.131000
     46 HN15        2.0020    2.1610   -0.0140 hn        1 3RS      0.222000
     47 H13         0.6570    0.7170    1.5140 hc        1 3RS      0.105000
     48 H17         0.5390    1.4660    3.5620 hc        1 3RS      0.087333
     49 H17A        2.0490    2.0110    3.0920 hc        1 3RS      0.087333
     50 H17B        1.9360    0.6300    3.9510 hc        1 3RS      0.087333
     51 H12         1.7210   -1.2120    3.1960 hc        1 3RS      0.103000
     52 H12A        1.6900   -1.5670    1.5700 hc        1 3RS      0.103000
     53 HN11        0.4600   -2.2870    5.2330 hn        1 3RS      0.204000
     54 HN1A       -1.0490   -2.4880    5.5910 hn        1 3RS      0.204000
     55 H10        -0.6220   -1.1370    0.4740 ha        1 3RS      0.138000
     56 H6         -2.8020   -1.2180   -0.6930 ha        1 3RS      0.137000
     57 H3         -4.6070   -2.9610    3.3870 ha        1 3RS      0.150000
     58 H2         -6.0170   -2.6630    1.5570 ha        1 3RS      0.140000
     59 H19        -4.9600   -3.7360   -1.5760 ha        1 3RS      0.132750
     60 H20        -6.3230   -3.4180   -3.4970 ha        1 3RS      0.132750
     61 H21        -7.4540   -1.4780   -3.8710 ha        1 3RS      0.132750
     62 H22        -7.3750    0.3580   -2.4300 ha        1 3RS      0.132750
     63 H24        -6.9170    1.0830   -0.1830 hc        1 3RS      0.086667
     64 H24A       -6.1430    0.0980    0.8950 hc        1 3RS      0.086667
     65 H24B       -5.2890    1.0890   -0.1470 hc        1 3RS      0.086667
@<TRIPOS>BOND
     1    1    2 1   
     2    1    8 1   
     3    1   33 1   
     4    1   34 1   
     5    2    3 1   
     6    2    4 1   
     7    2    5 1   
     8    3   35 1   
     9    3   36 1   
    10    3   37 1   
    11    4   38 1   
    12    4   39 1   
    13    4   40 1   
    14    5    6 1   
    15    6    7 1   
    16    6   41 1   
    17    6   42 1   
    18    7    8 1   
    19    7   43 1   
    20    7   44 1   
    21    8    9 1   
    22    8   45 1   
    23    9   10 1   
    24    9   46 1   
    25   10   11 1   
    26   10   12 1   
    27   12   13 1   
    28   12   14 1   
    29   12   47 1   
    30   13   48 1   
    31   13   49 1   
    32   13   50 1   
    33   14   15 1   
    34   14   51 1   
    35   14   52 1   
    36   15   16 1   
    37   15   19 1   
    38   16   17 1   
    39   16   18 1   
    40   18   53 1   
    41   18   54 1   
    42   19   55 1   
    43   20   21 1   
    44   20   22 1   
    45   21   25 1   
    46   21   56 1   
    47   22   23 1   
    48   23   24 1   
    49   23   57 1   
    50   24   58 1   
    51   26   31 1   
    52   27   28 1   
    53   27   59 1   
    54   28   60 1   
    55   29   30 1   
    56   29   61 1   
    57   30   62 1   
    58   31   32 1   
    59   32   63 1   
    60   32   64 1   
    61   32   65 1   
@<TRIPOS>SUBSTRUCTURE
     1 3RS         1 TEMP              0 ****  ****    0 ROOT
