@<TRIPOS>MOLECULE
3RU
   50    50     1     0     0
SMALL
bcc


@<TRIPOS>ATOM
      1 C4          0.1170    0.5390   -0.1210 c3        1 3RU     -0.147000
      2 C5          1.5110    0.0890    0.1230 c2        1 3RU     -0.052000
      3 C6          1.7560   -1.0430    0.9660 c2        1 3RU     -0.025000
      4 C8          4.0240   -0.9100    0.5150 c2        1 3RU     -0.095000
      5 C10         2.5960    0.7350   -0.4750 c2        1 3RU     -0.090000
      6 C13         4.7850    2.1320   -1.7230 c3        1 3RU     -0.185000
      7 C17         7.0270    4.3510   -6.9630 c2        1 3RU      0.277000
      8 C20         7.3900    4.5960   -8.3400 c3        1 3RU     -0.251000
      9 C21         7.3440    6.0540   -8.7590 c3        1 3RU     -0.141000
     10 C22         8.2220    6.9040   -7.9190 c2        1 3RU     -0.241000
     11 C19         7.1650    1.8700   -7.2890 c3        1 3RU     -0.233000
     12 C23         7.8600    8.0950   -7.4450 c2        1 3RU     -0.156000
     13 C18         6.9020    3.0410   -6.3820 c3        1 3RU     -0.270000
     14 N15         6.9680    3.2930   -1.4620 n         1 3RU     -0.410000
     15 C14         6.0430    2.7530   -2.3090 c2        1 3RU      0.320000
     16 O16         6.2340    2.7720   -3.5490 o         1 3RU     -0.440000
     17 C9          3.9000    0.2550   -0.2920 c2        1 3RU     -0.070000
     18 C1         -0.9250   -0.3910    0.3780 c2        1 3RU     -0.049000
     19 C2         -0.6460   -1.4190    1.2160 c2        1 3RU     -0.226000
     20 C3          0.6520   -1.5850    1.7600 c1        1 3RU      0.090000
     21 N7          2.9990   -1.5420    1.1360 n2        1 3RU     -0.054000
     22 N11         5.3550   -1.5170    0.7390 n4        1 3RU     -0.010000
     23 H4         -0.0350    0.6890   -1.2300 hc        1 3RU      0.150000
     24 H10         2.4130    1.6160   -1.1130 ha        1 3RU      0.167000
     25 H13         5.6280    0.1570   -1.5510 hc        1 3RU      0.099500
     26 H13A        4.2540    2.9010   -1.1000 hc        1 3RU      0.129500
     27 H17         7.7670    3.7510   -1.8300 hn        1 3RU      0.239500
     28 H17A        6.8430    5.2350   -6.3090 ha        1 3RU      0.183000
     29 H20         8.1990    1.9130   -7.7130 hc        1 3RU      0.110333
     30 H20A        6.7440    3.9640   -9.0300 hc        1 3RU      0.199500
     31 H21         8.4400    4.1790   -8.5020 hc        1 3RU      0.199500
     32 H21A        6.2820    6.4210   -8.7340 hc        1 3RU      0.126000
     33 H22         7.6870    6.1220   -9.8310 hc        1 3RU      0.126000
     34 H22A        9.2450    6.5190   -7.7680 ha        1 3RU      0.130000
     35 H19         6.4340    1.8420   -8.1350 hc        1 3RU      0.110333
     36 H19A        7.0640    0.9170   -6.7120 hc        1 3RU      0.110333
     37 H23         7.5650    2.9900   -5.4500 hc        1 3RU      0.224500
     38 H23A        6.8630    8.5290   -7.6100 ha        1 3RU      0.134500
     39 H18         8.5520    8.7290   -6.8710 ha        1 3RU      0.134500
     40 HN15        5.8680    2.9550   -5.8970 hc        1 3RU      0.224500
     41 H12         4.1170    1.8560   -2.5830 hc        1 3RU      0.129500
     42 H12A        5.8030    1.1880   -0.0630 hc        1 3RU      0.099500
     43 H1         -0.0380    1.5500    0.3630 hc        1 3RU      0.150000
     44 H2         -1.9610   -0.1510    0.0770 ha        1 3RU      0.170000
     45 H3         -1.4400   -2.0890    1.5970 ha        1 3RU      0.197000
     46 HN11        5.2750   -2.3610    1.3300 hn        1 3RU      0.267667
     47 HN1A        5.7620   -1.7750   -0.1650 hn        1 3RU      0.267667
     48 C12         5.0970    0.9020   -0.8930 c3        1 3RU     -0.129000
     49 H152        6.7770    3.3960   -0.4970 hn        1 3RU      0.239500
     50 H113        5.9570   -0.8340    1.2100 hn        1 3RU      0.267667
@<TRIPOS>BOND
     1    1    2 1   
     2    1   18 1   
     3    1   23 1   
     4    1   43 1   
     5    2    3 1   
     6    2    5 1   
     7    3   20 1   
     8    3   21 1   
     9    4   17 1   
    10    4   21 1   
    11    4   22 1   
    12    5   17 1   
    13    5   24 1   
    14    6   15 1   
    15    6   26 1   
    16    6   41 1   
    17    6   48 1   
    18    7    8 1   
    19    7   13 1   
    20    7   28 1   
    21    8    9 1   
    22    8   30 1   
    23    8   31 1   
    24    9   10 1   
    25    9   32 1   
    26    9   33 1   
    27   10   12 1   
    28   10   34 1   
    29   11   13 1   
    30   11   29 1   
    31   11   35 1   
    32   11   36 1   
    33   12   38 1   
    34   12   39 1   
    35   13   37 1   
    36   13   40 1   
    37   14   15 1   
    38   14   27 1   
    39   14   49 1   
    40   15   16 1   
    41   17   48 1   
    42   18   19 1   
    43   18   44 1   
    44   19   20 1   
    45   19   45 1   
    46   22   46 1   
    47   22   47 1   
    48   22   50 1   
    49   25   48 1   
    50   42   48 1   
@<TRIPOS>SUBSTRUCTURE
     1 3RU         1 TEMP              0 ****  ****    0 ROOT
