@<TRIPOS>MOLECULE
3RU
   49    50     1     0     0
SMALL
bcc


@<TRIPOS>ATOM
      1 C4          0.9340    1.7320   -1.2320 c3        1 3RU     -0.127000
      2 C5          2.3520    1.2960   -1.3120 c2        1 3RU     -0.130000
      3 C6          3.3600    1.9570   -0.5470 c2        1 3RU     -0.020000
      4 C8          4.9680    0.3900   -1.1790 c2        1 3RU      0.029000
      5 C10         2.7330    0.2140   -2.1050 c2        1 3RU     -0.066000
      6 C13         5.1760   -0.9380   -4.2140 c3        1 3RU     -0.177000
      7 C17         6.8260    1.8020   -5.0530 c3        1 3RU     -0.130000
      8 C20         7.1740    5.4660   -6.1570 c3        1 3RU     -0.155000
      9 C21         5.8490    6.1310   -5.8370 c3        1 3RU     -0.143000
     10 C22         5.5140    6.1030   -4.3920 c2        1 3RU     -0.170000
     11 C19         7.0890    3.9560   -6.2570 c3        1 3RU     -0.152000
     12 C23         4.3230    5.7550   -3.9090 c2        1 3RU     -0.232000
     13 C18         6.9780    3.3090   -4.8910 c3        1 3RU     -0.195000
     14 N15         6.6540    1.1040   -3.7450 ny        1 3RU     -0.101000
     15 C14         6.5430   -0.3950   -3.9150 c2        1 3RU      0.277000
     16 O16         7.5830   -1.0210   -3.7840 o         1 3RU     -0.175000
     17 C9          4.0540   -0.2430   -2.0820 c2        1 3RU     -0.187000
     18 C1          0.6670    2.7410   -0.1780 c2        1 3RU     -0.068000
     19 C2          1.6630    3.4000    0.4620 c2        1 3RU     -0.224000
     20 C3          3.0110    3.2430    0.0470 c1        1 3RU      0.062000
     21 N7          4.6250    1.4910   -0.4500 n2        1 3RU     -0.121000
     22 N11         6.3120   -0.0750   -1.1080 nv        1 3RU     -0.345000
     23 H4          0.6080    2.1490   -2.2280 hc        1 3RU      0.133000
     24 H10         1.9850   -0.2990   -2.7330 ha        1 3RU      0.152000
     25 H13         5.3220   -1.8350   -4.8820 hc        1 3RU      0.142500
     26 H13A        4.5530   -0.1900   -4.7720 hc        1 3RU      0.142500
     27 H17         7.7420    1.3720   -5.5530 hx        1 3RU      0.140000
     28 H17A        5.9240    1.5710   -5.6890 hx        1 3RU      0.140000
     29 H20         8.0090    3.5720   -6.7750 hc        1 3RU      0.091000
     30 H20A        7.5350    5.8560   -7.1470 hc        1 3RU      0.097000
     31 H21         7.9390    5.7530   -5.3880 hc        1 3RU      0.097000
     32 H21A        5.9090    7.2110   -6.1530 hc        1 3RU      0.098500
     33 H22         5.0310    5.6600   -6.4450 hc        1 3RU      0.098500
     34 H22A        6.3250    6.4310   -3.7190 ha        1 3RU      0.127000
     35 H19         7.8970    3.5440   -4.2890 hc        1 3RU      0.115500
     36 H19A        6.2050    3.6700   -6.8860 hc        1 3RU      0.091000
     37 H23         6.0940    3.7440   -4.3480 hc        1 3RU      0.115500
     38 H23A        3.4880    5.4450   -4.5520 ha        1 3RU      0.117500
     39 H18         4.0950    5.7850   -2.8350 ha        1 3RU      0.117500
     40 HN15        7.4630    1.3130   -3.1420 hn        1 3RU      0.262500
     41 H12         5.0890   -2.1180   -2.3890 hc        1 3RU      0.125000
     42 H12A        3.5330   -1.9420   -3.2770 hc        1 3RU      0.125000
     43 H1          0.2870    0.8290   -1.0330 hc        1 3RU      0.133000
     44 H2         -0.3960    2.9690    0.0070 ha        1 3RU      0.155000
     45 H3          1.4550    4.1600    1.2360 ha        1 3RU      0.181000
     46 HN11        6.8450    0.3710   -0.3830 hn        1 3RU      0.201000
     47 HN1A        6.3420   -1.0720   -0.9950 hn        1 3RU      0.201000
     48 C12         4.4530   -1.3800   -2.9490 c3        1 3RU     -0.112000
     49 H152        5.8090    1.4520   -3.2720 hn        1 3RU      0.262500
@<TRIPOS>BOND
     1    1    2 1   
     2    1   18 1   
     3    1   23 1   
     4    1   43 1   
     5    2    3 1   
     6    2    5 1   
     7    3   20 1   
     8    3   21 1   
     9    4   17 1   
    10    4   21 1   
    11    4   22 1   
    12    5   17 1   
    13    5   24 1   
    14    6   15 1   
    15    6   25 1   
    16    6   26 1   
    17    6   48 1   
    18    7   13 1   
    19    7   14 1   
    20    7   27 1   
    21    7   28 1   
    22    8    9 1   
    23    8   11 1   
    24    8   30 1   
    25    8   31 1   
    26    9   10 1   
    27    9   32 1   
    28    9   33 1   
    29   10   12 1   
    30   10   34 1   
    31   11   13 1   
    32   11   29 1   
    33   11   36 1   
    34   12   38 1   
    35   12   39 1   
    36   13   35 1   
    37   13   37 1   
    38   14   15 1   
    39   14   40 1   
    40   14   49 1   
    41   15   16 1   
    42   17   48 1   
    43   18   19 1   
    44   18   44 1   
    45   19   20 1   
    46   19   45 1   
    47   22   46 1   
    48   22   47 1   
    49   41   48 1   
    50   42   48 1   
@<TRIPOS>SUBSTRUCTURE
     1 3RU         1 TEMP              0 ****  ****    0 ROOT
