@<TRIPOS>MOLECULE
3RU
   48    50     1     0     0
SMALL
bcc


@<TRIPOS>ATOM
      1 C4         -5.7050   -1.2460    0.7880 ca        1 3RU     -0.094000
      2 C5         -4.5540   -0.5290    0.3760 ca        1 3RU     -0.193300
      3 C6         -4.5540    0.1690   -0.8690 ca        1 3RU      0.449600
      4 C8         -2.3490    0.9000   -0.5620 ca        1 3RU      0.668200
      5 C10        -3.3760   -0.4660    1.1690 ca        1 3RU     -0.053000
      6 C13         0.1220   -0.4330    1.0180 c3        1 3RU     -0.154400
      7 C17         3.8400    0.4920    1.0900 c3        1 3RU      0.084000
      8 C20         6.7760    0.5290   -1.3930 c3        1 3RU     -0.076400
      9 C21         7.2380   -0.9030   -1.2190 c3        1 3RU     -0.077400
     10 C22         6.0590   -1.8410   -1.0640 c3        1 3RU     -0.076400
     11 C19         5.8760    0.9610   -0.2540 c3        1 3RU     -0.072900
     12 C23         5.1540   -1.4110    0.0730 c3        1 3RU     -0.072900
     13 C18         4.6840    0.0250   -0.1060 c3        1 3RU     -0.090700
     14 N15         2.5790   -0.1790    1.2460 n         1 3RU     -0.558900
     15 C14         1.3720    0.4300    0.9680 c         1 3RU      0.658100
     16 O16         1.3080    1.6500    0.7010 o         1 3RU     -0.633100
     17 C9         -2.2760    0.2320    0.7370 ca        1 3RU     -0.237600
     18 C1         -6.8270   -1.2730   -0.0030 ca        1 3RU     -0.151000
     19 C2         -6.8410   -0.5820   -1.2380 ca        1 3RU     -0.112000
     20 C3         -5.7450    0.1210   -1.6690 ca        1 3RU     -0.185300
     21 N7         -3.4690    0.8800   -1.3180 nb        1 3RU     -0.749000
     22 N11        -1.2100    1.5160   -1.0730 nh        1 3RU     -0.950500
     23 H4         -5.6790   -1.7770    1.7510 ha        1 3RU      0.128000
     24 H10        -3.3670   -0.9840    2.1410 ha        1 3RU      0.134000
     25 H13        -0.0860   -0.7590   -0.0370 hc        1 3RU      0.073200
     26 H13A        0.2890   -1.3590    1.6270 hc        1 3RU      0.073200
     27 H17         4.4360    0.3270    2.0340 h1        1 3RU      0.064200
     28 H17A        3.6470    1.5990    0.9840 h1        1 3RU      0.064200
     29 H20         7.6670    1.2080   -1.4410 hc        1 3RU      0.041200
     30 H20A        6.2240    0.6280   -2.3640 hc        1 3RU      0.041200
     31 H21         7.8500   -1.2120   -2.1050 hc        1 3RU      0.040200
     32 H21A        7.8960   -0.9760   -0.3130 hc        1 3RU      0.040200
     33 H22         5.4710   -1.8620   -2.0200 hc        1 3RU      0.041200
     34 H22A        6.4290   -2.8820   -0.8730 hc        1 3RU      0.041200
     35 H19         6.4610    0.9730    0.7030 hc        1 3RU      0.039200
     36 H19A        5.5100    2.0040   -0.4410 hc        1 3RU      0.039200
     37 H23         4.2720   -2.1000    0.1170 hc        1 3RU      0.039200
     38 H23A        5.7050   -1.5030    1.0460 hc        1 3RU      0.039200
     39 H18         4.0660    0.0860   -1.0450 hc        1 3RU      0.059700
     40 HN15        2.6050   -1.1680    1.3220 hn        1 3RU      0.306500
     41 H12        -1.2890   -0.0620    2.6140 hc        1 3RU      0.063200
     42 H12A       -0.7930    1.4210    1.7210 hc        1 3RU      0.063200
     43 H1         -7.7230   -1.8270    0.3100 ha        1 3RU      0.132000
     44 H2         -7.7520   -0.6170   -1.8550 ha        1 3RU      0.132000
     45 H3         -5.7610    0.6570   -2.6310 ha        1 3RU      0.148000
     46 HN11       -1.3310    2.1130   -1.8590 hn        1 3RU      0.429300
     47 HN1A       -0.5320    1.8150   -0.4050 hn        1 3RU      0.429300
     48 C12        -1.0610    0.3350    1.5870 c3        1 3RU     -0.025100
@<TRIPOS>BOND
     1    1    2 ar  
     2    1   18 ar  
     3    1   23 1   
     4    2    3 ar  
     5    2    5 ar  
     6    3   20 ar  
     7    3   21 ar  
     8    4   17 ar  
     9    4   21 ar  
    10    4   22 1   
    11    5   17 ar  
    12    5   24 1   
    13    6   15 1   
    14    6   25 1   
    15    6   26 1   
    16    6   48 1   
    17    7   13 1   
    18    7   14 1   
    19    7   27 1   
    20    7   28 1   
    21    8    9 1   
    22    8   11 1   
    23    8   29 1   
    24    8   30 1   
    25    9   10 1   
    26    9   31 1   
    27    9   32 1   
    28   10   12 1   
    29   10   33 1   
    30   10   34 1   
    31   11   13 1   
    32   11   35 1   
    33   11   36 1   
    34   12   13 1   
    35   12   37 1   
    36   12   38 1   
    37   13   39 1   
    38   14   15 1   
    39   14   40 1   
    40   15   16 2   
    41   17   48 1   
    42   18   19 ar  
    43   18   43 1   
    44   19   20 ar  
    45   19   44 1   
    46   20   45 1   
    47   22   46 1   
    48   22   47 1   
    49   41   48 1   
    50   42   48 1   
@<TRIPOS>SUBSTRUCTURE
     1 3RU         1 TEMP              0 ****  ****    0 ROOT
