@<TRIPOS>MOLECULE
3RU
   49    50     1     0     0
SMALL
bcc


@<TRIPOS>ATOM
      1 C4          0.9580    1.6080   -0.9010 c3        1 3RU     -0.128000
      2 C5          2.4340    1.4750   -1.0080 c2        1 3RU     -0.117000
      3 C6          3.2970    2.3790   -0.3180 c2        1 3RU     -0.023000
      4 C8          5.1870    1.1780   -0.9700 c2        1 3RU      0.036000
      5 C10         3.0150    0.4520   -1.7560 c2        1 3RU     -0.079000
      6 C13         4.9690   -0.5140   -4.0740 c3        1 3RU     -0.150000
      7 C17         6.9490    1.3250   -6.6080 cx        1 3RU     -0.114000
      8 C20         7.6770    5.1010   -3.8170 c3        1 3RU     -0.202000
      9 C21         6.4460    5.7230   -4.4290 c3        1 3RU     -0.149000
     10 C22         5.2020    5.0490   -3.9830 c2        1 3RU     -0.165000
     11 C19         6.3840    2.0750   -7.7900 cx        1 3RU     -0.194000
     12 C23         4.2200    4.6830   -4.8040 c2        1 3RU     -0.244000
     13 C18         6.8350    2.8280   -6.5740 cx        1 3RU     -0.194000
     14 N15         6.8650    1.1370   -3.8320 n3        1 3RU     -0.281000
     15 C14         6.0130    0.4540   -4.5740 c2        1 3RU      0.295000
     16 O16         5.9760    0.5350   -5.9260 os        1 3RU     -0.148000
     17 C9          4.4050    0.2920   -1.7730 c2        1 3RU     -0.160000
     18 C1          0.5090    2.5780    0.1270 c2        1 3RU     -0.071000
     19 C2          1.3570    3.4550    0.7130 c2        1 3RU     -0.224000
     20 C3          2.6980    3.5790    0.2600 c1        1 3RU      0.067000
     21 N7          4.6370    2.2110   -0.2730 n2        1 3RU     -0.105000
     22 N11         6.6110    1.0280   -0.9530 nh        1 3RU     -0.331000
     23 H4          0.5170    0.5980   -0.6570 hc        1 3RU      0.131000
     24 H10         2.3770   -0.2500   -2.3170 ha        1 3RU      0.146000
     25 H13         4.3610   -1.7330   -2.4320 hc        1 3RU      0.119500
     26 H13A        3.9670   -0.0930   -4.3730 hc        1 3RU      0.158000
     27 H17         7.5020    1.7920   -4.2450 hn        1 3RU      0.297000
     28 H17A        7.9170    0.7920   -6.6530 h1        1 3RU      0.164000
     29 H20         7.7950    4.0440   -4.1640 hc        1 3RU      0.068333
     30 H20A        8.5890    5.6720   -4.1200 hc        1 3RU      0.068333
     31 H21         7.6130    5.1030   -2.7030 hc        1 3RU      0.068333
     32 H21A        6.3880    6.8060   -4.1250 hc        1 3RU      0.099000
     33 H22         6.5300    5.7020   -5.5490 hc        1 3RU      0.099000
     34 H22A        5.1210    4.8970   -2.8920 ha        1 3RU      0.134000
     35 H19         5.3000    2.0000   -8.0010 hc        1 3RU      0.147750
     36 H19A        6.9890    2.1040   -8.7160 hc        1 3RU      0.147750
     37 H23         6.0700    3.3090   -5.9300 hc        1 3RU      0.147750
     38 H23A        3.2910    4.2260   -4.4380 ha        1 3RU      0.113500
     39 H18         4.2540    4.8510   -5.8890 ha        1 3RU      0.113500
     40 HN15        7.7690    3.4210   -6.6120 hc        1 3RU      0.147750
     41 H12         5.1160   -1.4730   -4.6500 hc        1 3RU      0.158000
     42 H12A        6.0250   -1.0830   -2.2590 hc        1 3RU      0.119500
     43 H1          0.5330    1.9120   -1.9010 hc        1 3RU      0.131000
     44 H2         -0.5730    2.5830    0.3390 ha        1 3RU      0.153000
     45 H3          1.0120    4.1800    1.4710 ha        1 3RU      0.179000
     46 HN11        7.0690    1.7710   -0.4530 hn        1 3RU      0.197000
     47 HN1A        6.8600    0.1440   -0.5470 hn        1 3RU      0.197000
     48 C12         4.9890   -0.8070   -2.5870 c3        1 3RU     -0.125000
     49 H152        6.8530    1.0680   -2.8090 hn        1 3RU      0.297000
@<TRIPOS>BOND
     1    1    2 1   
     2    1   18 1   
     3    1   23 1   
     4    1   43 1   
     5    2    3 1   
     6    2    5 1   
     7    3   20 1   
     8    3   21 1   
     9    4   17 1   
    10    4   21 1   
    11    4   22 1   
    12    5   17 1   
    13    5   24 1   
    14    6   15 1   
    15    6   26 1   
    16    6   41 1   
    17    6   48 1   
    18    7   11 1   
    19    7   13 1   
    20    7   16 1   
    21    7   28 1   
    22    8    9 1   
    23    8   29 1   
    24    8   30 1   
    25    8   31 1   
    26    9   10 1   
    27    9   32 1   
    28    9   33 1   
    29   10   12 1   
    30   10   34 1   
    31   11   13 1   
    32   11   35 1   
    33   11   36 1   
    34   12   38 1   
    35   12   39 1   
    36   13   37 1   
    37   13   40 1   
    38   14   15 1   
    39   14   27 1   
    40   14   49 1   
    41   15   16 1   
    42   17   48 1   
    43   18   19 1   
    44   18   44 1   
    45   19   20 1   
    46   19   45 1   
    47   22   46 1   
    48   22   47 1   
    49   25   48 1   
    50   42   48 1   
@<TRIPOS>SUBSTRUCTURE
     1 3RU         1 TEMP              0 ****  ****    0 ROOT
