@<TRIPOS>MOLECULE
3RU
   48    46     1     0     0
SMALL
bcc


@<TRIPOS>ATOM
      1 C4         -5.3340   -1.6700    3.2590 c1        1 3RU     -0.094000
      2 C5         -3.9640   -1.8830    3.2300 c1        1 3RU     -0.128000
      3 C6         -3.2830   -2.1160    4.3980 c1        1 3RU      0.056000
      4 C8         -1.2500   -2.3070    3.1700 c1        1 3RU      0.148000
      5 C10        -3.2880   -1.8600    2.0260 c2        1 3RU     -0.053000
      6 C13        -0.6430   -0.6470    0.2660 c3        1 3RU     -0.182000
      7 C17         1.7830    0.4120   -2.5920 c3        1 3RU     -0.031000
      8 C20         4.6850    2.9330   -2.8400 c3        1 3RU     -0.154500
      9 C21         4.3710    3.4470   -4.2370 c3        1 3RU     -0.156000
     10 C22         2.8750    3.5730   -4.4890 c3        1 3RU     -0.154500
     11 C19         3.9480    1.6820   -2.5190 c3        1 3RU     -0.152000
     12 C23         2.1320    2.3140   -4.1610 c3        1 3RU     -0.152000
     13 C18         2.4390    1.8050   -2.7750 c3        1 3RU     -0.124000
     14 N15         0.8750    0.4640   -1.4510 n         1 3RU     -0.371000
     15 C14         0.2450   -0.6830   -1.0160 c2        1 3RU      0.303000
     16 O16         0.4100   -1.7160   -1.6010 o         1 3RU     -0.396000
     17 C12        -1.0590   -2.1190    0.6610 c3        1 3RU     -0.111000
     18 C9         -1.9300   -2.0720    1.9990 c2        1 3RU     -0.166000
     19 C1         -6.0320   -1.6940    4.4960 c1        1 3RU     -0.131500
     20 C2         -5.3460   -1.9290    5.6770 c1        1 3RU     -0.131500
     21 C3         -3.9960   -2.1390    5.6550 c1        1 3RU     -0.120000
     22 N7         -1.9290   -2.3290    4.3720 n2        1 3RU     -0.223000
     23 N11        -0.0950   -2.7970    3.7510 n2        1 3RU     -0.348000
     24 H4         -5.8000   -1.5090    2.4600 ha        1 3RU      0.128000
     25 H10        -3.7410   -1.7040    1.2510 ha        1 3RU      0.134000
     26 H13        -1.4180   -0.1350    0.0990 hc        1 3RU      0.113000
     27 H13A       -0.1260   -0.2330    1.0240 hc        1 3RU      0.113000
     28 H17         1.2720    0.1730   -3.4160 h1        1 3RU      0.102000
     29 H17A        2.5020   -0.2850   -2.4230 h1        1 3RU      0.102000
     30 H20         5.7190    2.7450   -2.7700 hc        1 3RU      0.079500
     31 H20A        4.4310    3.6490   -2.1590 hc        1 3RU      0.079500
     32 H21         4.7210    2.8730   -4.8440 hc        1 3RU      0.080500
     33 H21A        4.7970    4.3470   -4.3570 hc        1 3RU      0.080500
     34 H22         2.7230    3.7990   -5.4790 hc        1 3RU      0.079500
     35 H22A        2.5260    4.2890   -3.9480 hc        1 3RU      0.079500
     36 H19         4.2960    0.9740   -3.0640 hc        1 3RU      0.083000
     37 H19A        4.0900    1.4680   -1.6070 hc        1 3RU      0.083000
     38 H23         1.0940    2.5000   -4.2350 hc        1 3RU      0.083000
     39 H23A        2.3730    1.6350   -4.8020 hc        1 3RU      0.083000
     40 H18         2.0270    2.4640   -2.0750 hc        1 3RU      0.085000
     41 HN15        0.6700    1.2520   -1.0830 hn        1 3RU      0.221000
     42 H12        -1.5980   -2.5300   -0.0800 hc        1 3RU      0.102500
     43 H12A       -0.2880   -2.6340    0.8060 hc        1 3RU      0.102500
     44 H1         -7.0820   -1.5320    4.5170 ha        1 3RU      0.132000
     45 H2         -5.8590   -1.9450    6.5790 ha        1 3RU      0.132000
     46 H3         -3.5320   -2.3000    6.4590 ha        1 3RU      0.148000
     47 HN11        0.6930   -2.9640    3.2010 hn        1 3RU      0.224500
     48 HN1A       -0.1030   -3.0640    4.6680 hn        1 3RU      0.224500
@<TRIPOS>BOND
     1    1    2 1   
     2    1   24 1   
     3    2    5 1   
     4    3   21 1   
     5    3   22 1   
     6    4   18 1   
     7    4   22 1   
     8    5   18 1   
     9    5   25 1   
    10    6   15 1   
    11    6   17 1   
    12    6   26 1   
    13    6   27 1   
    14    7   13 1   
    15    7   14 1   
    16    7   28 1   
    17    7   29 1   
    18    8    9 1   
    19    8   11 1   
    20    8   30 1   
    21    8   31 1   
    22    9   10 1   
    23    9   32 1   
    24    9   33 1   
    25   10   12 1   
    26   10   34 1   
    27   10   35 1   
    28   11   13 1   
    29   11   36 1   
    30   11   37 1   
    31   12   13 1   
    32   12   38 1   
    33   12   39 1   
    34   13   40 1   
    35   14   15 1   
    36   14   41 1   
    37   15   16 1   
    38   17   18 1   
    39   17   42 1   
    40   17   43 1   
    41   19   20 1   
    42   19   44 1   
    43   20   45 1   
    44   21   46 1   
    45   23   47 1   
    46   23   48 1   
@<TRIPOS>SUBSTRUCTURE
     1 3RU         1 TEMP              0 ****  ****    0 ROOT
