@<TRIPOS>MOLECULE
3RV
   40    43     1     0     0
SMALL
bcc


@<TRIPOS>ATOM
      1 C1         -0.3710    0.2630    0.0300 ca        1 3RV      0.083900
      2 C2          0.9820    0.0470   -0.2740 ca        1 3RV     -0.171000
      3 C3          1.9010   -0.1270    0.7540 ca        1 3RV     -0.132000
      4 C4          1.4910   -0.0850    2.1030 ca        1 3RV      0.125600
      5 C5          0.1180    0.1240    2.4100 ca        1 3RV     -0.127600
      6 C6         -0.7910    0.2990    1.3690 ca        1 3RV     -0.125000
      7 C7         -0.4560    0.1650    3.8250 c         1 3RV      0.913200
      8 O8          0.2070   -0.3470    4.7800 o         1 3RV     -0.814300
      9 F10        -1.2700    0.4350   -0.9740 f         1 3RV     -0.162900
     10 N11         2.3950   -0.2960    3.1680 nh        1 3RV     -0.643600
     11 C13         3.7200   -0.0400    3.1790 cc        1 3RV      0.735100
     12 N14         4.5340    0.3380    2.1900 nd        1 3RV     -0.737100
     13 C15         5.8700    0.4350    2.6180 c         1 3RV      0.699700
     14 C16         6.0560    0.1000    4.0940 cc        1 3RV     -0.138600
     15 S17         4.5620   -0.3060    4.7750 ss        1 3RV     -0.212800
     16 O18         6.8220    0.7580    1.8940 o         1 3RV     -0.554100
     17 C19         7.2740    0.1720    4.6520 cf        1 3RV     -0.047200
     18 C21         7.6100   -0.1040    6.0370 ca        1 3RV     -0.047800
     19 C22         6.8510   -0.9860    6.7870 ca        1 3RV     -0.111000
     20 C23         7.1960   -1.2980    8.1200 ca        1 3RV     -0.122000
     21 C24         8.2990   -0.7270    8.7020 ca        1 3RV     -0.121000
     22 C25         9.0980    0.1950    7.9730 ca        1 3RV     -0.040000
     23 C26         8.7540    0.5210    6.6340 ca        1 3RV     -0.017000
     24 O1         -1.5860    0.6950    3.9780 o         1 3RV     -0.814300
     25 C36         9.5540    1.4760    5.9470 ca        1 3RV     -0.113000
     26 C37        10.6460    2.0510    6.5510 ca        1 3RV     -0.134000
     27 C38        10.9950    1.7080    7.8770 ca        1 3RV     -0.133000
     28 C39        10.2350    0.8020    8.5730 ca        1 3RV     -0.122000
     29 H1          1.3110    0.0160   -1.3210 ha        1 3RV      0.132000
     30 H2          2.9530   -0.3000    0.4800 ha        1 3RV      0.159000
     31 H3         -1.8500    0.4810    1.6220 ha        1 3RV      0.175000
     32 H4          1.9390   -0.4670    4.0720 hn        1 3RV      0.523800
     33 H5          8.1170    0.4560    3.9910 ha        1 3RV      0.155000
     34 H6          5.9630   -1.4730    6.3450 ha        1 3RV      0.153000
     35 H7          6.5650   -2.0050    8.6800 ha        1 3RV      0.135000
     36 H8          8.5800   -0.9650    9.7390 ha        1 3RV      0.128000
     37 H10         9.2840    1.7680    4.9200 ha        1 3RV      0.144000
     38 H11        11.2570    2.7890    6.0100 ha        1 3RV      0.129000
     39 H12        11.8750    2.1790    8.3400 ha        1 3RV      0.125000
     40 H13        10.4890    0.5310    9.6090 ha        1 3RV      0.126000
@<TRIPOS>BOND
     1    1    2 ar  
     2    1    6 ar  
     3    1    9 1   
     4    2    3 ar  
     5    2   29 1   
     6    3    4 ar  
     7    3   30 1   
     8    4    5 ar  
     9    4   10 1   
    10    5    6 ar  
    11    5    7 1   
    12    6   31 1   
    13    7    8 1   
    14    7   24 1   
    15   10   11 1   
    16   10   32 1   
    17   11   12 2   
    18   11   15 1   
    19   12   13 1   
    20   13   14 1   
    21   13   16 2   
    22   14   15 1   
    23   14   17 2   
    24   17   18 1   
    25   17   33 1   
    26   18   19 ar  
    27   18   23 ar  
    28   19   20 ar  
    29   19   34 1   
    30   20   21 ar  
    31   20   35 1   
    32   21   22 ar  
    33   21   36 1   
    34   22   23 ar  
    35   22   28 ar  
    36   23   25 ar  
    37   25   26 ar  
    38   25   37 1   
    39   26   27 ar  
    40   26   38 1   
    41   27   28 ar  
    42   27   39 1   
    43   28   40 1   
@<TRIPOS>SUBSTRUCTURE
     1 3RV         1 TEMP              0 ****  ****    0 ROOT
