@<TRIPOS>MOLECULE
3RV
   40    43     1     0     0
SMALL
bcc


@<TRIPOS>ATOM
      1 C1         -0.3720    0.2630    0.0310 ca        1 3RV      0.083900
      2 C2          0.9810    0.0460   -0.2730 ca        1 3RV     -0.171000
      3 C3          1.9000   -0.1270    0.7550 ca        1 3RV     -0.132000
      4 C4          1.4910   -0.0840    2.1040 ca        1 3RV      0.125600
      5 C5          0.1180    0.1260    2.4110 ca        1 3RV     -0.127600
      6 C6         -0.7920    0.3010    1.3700 ca        1 3RV     -0.125000
      7 C7         -0.4550    0.1680    3.8260 c         1 3RV      0.913200
      8 O8          0.2080   -0.3430    4.7820 o         1 3RV     -0.814300
      9 F10        -1.2710    0.4350   -0.9730 f         1 3RV     -0.162900
     10 N11         2.3950   -0.2940    3.1690 nu        1 3RV     -0.643600
     11 C13         3.7200   -0.0410    3.1790 cc        1 3RV      0.735100
     12 N14         4.5350    0.3350    2.1890 nd        1 3RV     -0.737100
     13 C15         5.8710    0.4310    2.6160 c         1 3RV      0.699700
     14 C16         6.0560    0.0970    4.0930 cc        1 3RV     -0.138600
     15 S17         4.5630   -0.3060    4.7750 ss        1 3RV     -0.212800
     16 O18         6.8230    0.7520    1.8910 o         1 3RV     -0.554100
     17 C19         7.2760    0.1680    4.6510 cf        1 3RV     -0.047200
     18 C21         7.6120   -0.1070    6.0360 ca        1 3RV     -0.047800
     19 C22         6.8510   -0.9860    6.7870 ca        1 3RV     -0.111000
     20 C23         7.1970   -1.2980    8.1200 ca        1 3RV     -0.122000
     21 C24         8.3010   -0.7270    8.7010 ca        1 3RV     -0.121000
     22 C25         9.1010    0.1920    7.9700 ca        1 3RV     -0.040000
     23 C26         8.7570    0.5170    6.6310 ca        1 3RV     -0.017000
     24 O1         -1.5850    0.6990    3.9790 o         1 3RV     -0.814300
     25 C36         9.5580    1.4700    5.9420 ca        1 3RV     -0.113000
     26 C37        10.6510    2.0440    6.5450 ca        1 3RV     -0.134000
     27 C38        11.0010    1.7020    7.8710 ca        1 3RV     -0.133000
     28 C39        10.2400    0.7980    8.5690 ca        1 3RV     -0.122000
     29 H1          1.3100    0.0150   -1.3200 ha        1 3RV      0.132000
     30 H2          2.9520   -0.3010    0.4810 ha        1 3RV      0.159000
     31 H3         -1.8500    0.4840    1.6240 ha        1 3RV      0.175000
     32 H4          1.9390   -0.4650    4.0730 hn        1 3RV      0.523800
     33 H5          8.1190    0.4500    3.9880 ha        1 3RV      0.155000
     34 H6          5.9630   -1.4730    6.3460 ha        1 3RV      0.153000
     35 H7          6.5650   -2.0020    8.6810 ha        1 3RV      0.135000
     36 H8          8.5820   -0.9650    9.7380 ha        1 3RV      0.128000
     37 H10         9.2880    1.7610    4.9150 ha        1 3RV      0.144000
     38 H11        11.2640    2.7800    6.0030 ha        1 3RV      0.129000
     39 H12        11.8820    2.1720    8.3330 ha        1 3RV      0.125000
     40 H13        10.4930    0.5270    9.6050 ha        1 3RV      0.126000
@<TRIPOS>BOND
     1    1    2 ar  
     2    1    6 ar  
     3    1    9 1   
     4    2    3 ar  
     5    2   29 1   
     6    3    4 ar  
     7    3   30 1   
     8    4    5 ar  
     9    4   10 1   
    10    5    6 ar  
    11    5    7 1   
    12    6   31 1   
    13    7    8 1   
    14    7   24 1   
    15   10   11 1   
    16   10   32 1   
    17   11   12 2   
    18   11   15 1   
    19   12   13 1   
    20   13   14 1   
    21   13   16 2   
    22   14   15 1   
    23   14   17 2   
    24   17   18 1   
    25   17   33 1   
    26   18   19 ar  
    27   18   23 ar  
    28   19   20 ar  
    29   19   34 1   
    30   20   21 ar  
    31   20   35 1   
    32   21   22 ar  
    33   21   36 1   
    34   22   23 ar  
    35   22   28 ar  
    36   23   25 ar  
    37   25   26 ar  
    38   25   37 1   
    39   26   27 ar  
    40   26   38 1   
    41   27   28 ar  
    42   27   39 1   
    43   28   40 1   
@<TRIPOS>SUBSTRUCTURE
     1 3RV         1 TEMP              0 ****  ****    0 ROOT
