@<TRIPOS>MOLECULE
3RW
   54    57     1     0     0
SMALL
bcc


@<TRIPOS>ATOM
      1 C1          0.1590   -1.6640    0.2360 ca        1 3RW      0.684900
      2 N1          5.9830    3.3450    6.5210 n4        1 3RW     -0.739700
      3 O1          4.1510    1.7480    1.8490 o         1 3RW     -0.571100
      4 C2          2.0570   -0.3410    0.4250 ca        1 3RW      0.527200
      5 N2          1.3350   -1.2280   -0.3020 nb        1 3RW     -0.668000
      6 C3          1.0920    0.9810    3.7420 cc        1 3RW      0.040900
      7 N3         -0.3870   -1.3170    1.4260 nb        1 3RW     -0.612000
      8 C4          2.0790    1.0250    2.7270 cd        1 3RW     -0.291400
      9 N4          0.0610    0.1370    3.4050 na        1 3RW     -0.115100
     10 C5          1.6350    0.1290    1.6860 ca        1 3RW     -0.245400
     11 N5          3.3270    0.1290   -0.1610 n4        1 3RW     -0.820300
     12 C6          0.3490   -0.4280    2.1430 ca        1 3RW      0.464800
     13 N6          2.8190    4.7440    5.0700 nb        1 3RW     -0.574000
     14 C7         -1.1220   -0.1940    4.2070 c3        1 3RW      0.036000
     15 N7          4.5940    2.5580    4.6860 nb        1 3RW     -0.574000
     16 C8         -0.9550   -1.5050    4.9730 c3        1 3RW     -0.121100
     17 N8         11.2200    3.5460    4.1420 nb        1 3RW     -0.643000
     18 C9          3.2940    1.7970    2.7460 c         1 3RW      0.551800
     19 C10         3.5100    2.7340    3.9040 ca        1 3RW      0.253500
     20 C11         2.6200    3.8390    4.0990 ca        1 3RW      0.358900
     21 C12         3.9010    4.5890    5.8600 ca        1 3RW      0.361900
     22 C13         4.7910    3.4910    5.6650 ca        1 3RW      0.330900
     23 C14        -1.4990    0.9230    5.1760 c3        1 3RW     -0.121100
     24 C15         9.6620    4.0740    5.9280 ca        1 3RW     -0.258600
     25 C16        10.3760    5.2430    6.2260 ca        1 3RW     -0.068000
     26 C17        10.1350    3.2560    4.8790 ca        1 3RW      0.405200
     27 C18         8.4690    3.6730    6.7130 c3        1 3RW     -0.040100
     28 C19        11.5100    5.5510    5.4760 ca        1 3RW     -0.227300
     29 C20         7.2290    3.8260    5.8300 c3        1 3RW      0.105800
     30 C21        11.8930    4.6740    4.4410 ca        1 3RW      0.431200
     31 H1         -0.4150   -2.3950   -0.3850 h5        1 3RW      0.114100
     32 HN1         5.8330    3.8900    7.3800 hn        1 3RW      0.468300
     33 H3          1.0780    1.5280    4.6940 h4        1 3RW      0.198000
     34 HN5         4.0820   -0.0030    0.5300 hn        1 3RW      0.483133
     35 HN5A        3.2510    1.1350   -0.3580 hn        1 3RW      0.483133
     36 H7         -1.9680   -0.3210    3.4590 h1        1 3RW      0.111700
     37 H8         -1.9210   -1.7300    5.4900 hc        1 3RW      0.067033
     38 H8A        -0.7230   -2.3520    4.2820 hc        1 3RW      0.067033
     39 H8B        -0.1490   -1.4300    5.7410 hc        1 3RW      0.067033
     40 H11         1.7370    3.9940    3.4460 h4        1 3RW      0.079100
     41 H12         4.0430    5.3570    6.6460 h4        1 3RW      0.078100
     42 H14        -0.7580    1.0110    6.0060 hc        1 3RW      0.067033
     43 H14A       -1.5940    1.9070    4.6570 hc        1 3RW      0.067033
     44 H14B       -2.4940    0.6680    5.6220 hc        1 3RW      0.067033
     45 H16        10.0570    5.9040    7.0470 ha        1 3RW      0.146000
     46 H17         9.6240    2.3100    4.6220 h4        1 3RW      0.014100
     47 H18         8.5830    2.6050    7.0460 hc        1 3RW      0.074200
     48 H18A        8.3750    4.3130    7.6320 hc        1 3RW      0.074200
     49 H19        12.1010    6.4540    5.6860 ha        1 3RW      0.171000
     50 H20         7.0750    4.9080    5.5550 hx        1 3RW      0.118200
     51 H20A        7.3540    3.2230    4.8840 hx        1 3RW      0.118200
     52 H21        12.7880    4.8800    3.8210 h4        1 3RW      0.051100
     53 H121        6.1090    2.3550    6.7830 hn        1 3RW      0.468300
     54 H53         3.5500   -0.3790   -1.0280 hn        1 3RW      0.483133
@<TRIPOS>BOND
     1    1    5 ar  
     2    1    7 ar  
     3    1   31 1   
     4    2   22 1   
     5    2   29 1   
     6    2   32 1   
     7    2   53 1   
     8    3   18 2   
     9    4    5 ar  
    10    4   10 ar  
    11    4   11 1   
    12    6    8 2   
    13    6    9 1   
    14    6   33 1   
    15    7   12 ar  
    16    8   10 1   
    17    8   18 1   
    18    9   12 1   
    19    9   14 1   
    20   10   12 ar  
    21   11   34 1   
    22   11   35 1   
    23   11   54 1   
    24   13   20 ar  
    25   13   21 ar  
    26   14   16 1   
    27   14   23 1   
    28   14   36 1   
    29   15   19 ar  
    30   15   22 ar  
    31   16   37 1   
    32   16   38 1   
    33   16   39 1   
    34   17   26 ar  
    35   17   30 ar  
    36   18   19 1   
    37   19   20 ar  
    38   20   40 1   
    39   21   22 ar  
    40   21   41 1   
    41   23   42 1   
    42   23   43 1   
    43   23   44 1   
    44   24   25 ar  
    45   24   26 ar  
    46   24   27 1   
    47   25   28 ar  
    48   25   45 1   
    49   26   46 1   
    50   27   29 1   
    51   27   47 1   
    52   27   48 1   
    53   28   30 ar  
    54   28   49 1   
    55   29   50 1   
    56   29   51 1   
    57   30   52 1   
@<TRIPOS>SUBSTRUCTURE
     1 3RW         1 TEMP              0 ****  ****    0 ROOT
