@<TRIPOS>MOLECULE
3RW
   52    55     1     0     0
SMALL
bcc


@<TRIPOS>ATOM
      1 C1          4.7420    2.7180   -0.4140 ca        1 3RW      0.681900
      2 N1         -2.9150    0.4530    0.7330 nh        1 3RW     -0.827900
      3 O1          1.4850   -2.1370    1.9190 o         1 3RW     -0.496100
      4 C2          2.7530    1.8460    0.4430 ca        1 3RW      0.726200
      5 N2          3.4920    2.9430    0.0760 nb        1 3RW     -0.786000
      6 C3          3.9730   -1.6490    0.2380 cc        1 3RW     -0.056100
      7 N3          5.4080    1.5560   -0.5760 nb        1 3RW     -0.738000
      8 C4          2.8840   -0.8200    0.5360 cd        1 3RW     -0.208400
      9 N4          5.0510   -0.8950   -0.2230 na        1 3RW     -0.156100
     10 C5          3.3070    0.5340    0.2870 ca        1 3RW     -0.341400
     11 N5          1.4660    2.0050    0.9200 nh        1 3RW     -0.940500
     12 C6          4.6730    0.4590   -0.2080 ca        1 3RW      0.472800
     13 N6         -0.6330   -0.6600   -1.9630 nb        1 3RW     -0.605000
     14 C7          6.3330   -1.4230   -0.6480 c3        1 3RW      0.048000
     15 N7         -0.7040   -0.4540    0.8750 nb        1 3RW     -0.673000
     16 C8          7.0610   -2.1650    0.4750 c3        1 3RW     -0.112100
     17 N8         -8.3390    1.1620   -1.0990 nb        1 3RW     -0.660000
     18 C9          1.5950   -1.3240    0.9970 c         1 3RW      0.511800
     19 C10         0.3960   -0.8760    0.2120 ca        1 3RW      0.270500
     20 C11         0.4350   -0.9750   -1.2040 ca        1 3RW      0.274900
     21 C12        -1.7320   -0.2340   -1.3280 ca        1 3RW      0.258900
     22 C13        -1.7880   -0.1060    0.1100 ca        1 3RW      0.517900
     23 C14         6.2130   -2.3480   -1.8610 c3        1 3RW     -0.112100
     24 C15        -6.6610    0.1870    0.3660 ca        1 3RW     -0.203600
     25 C16        -7.4100   -0.9920    0.4600 ca        1 3RW     -0.087000
     26 C17        -7.1760    1.2360   -0.4280 ca        1 3RW      0.399200
     27 C18        -5.3740    0.3490    1.0860 c3        1 3RW     -0.044100
     28 C19        -8.6200   -1.0840   -0.2290 ca        1 3RW     -0.243300
     29 C20        -4.2010    0.2300    0.1060 c3        1 3RW      0.186800
     30 C21        -9.0430    0.0170   -0.9950 ca        1 3RW      0.395200
     31 H1          5.2980    3.6340   -0.7100 h5        1 3RW      0.052100
     32 HN1        -2.9250    0.3730    1.7310 hn        1 3RW      0.417800
     33 H3          4.0460   -2.7370    0.3200 h4        1 3RW      0.182000
     34 HN5         1.1500    2.9240    1.1270 hn        1 3RW      0.432300
     35 HN5A        1.1140    1.2720    1.4910 hn        1 3RW      0.432300
     36 H7          6.9690   -0.5340   -0.9490 h1        1 3RW      0.096700
     37 H8          6.4880   -3.0670    0.7980 hc        1 3RW      0.049200
     38 H8A         8.0590   -2.4920    0.0970 hc        1 3RW      0.049200
     39 H8B         7.2150   -1.5020    1.3600 hc        1 3RW      0.049200
     40 H11         1.3440   -1.3080   -1.7320 h4        1 3RW      0.042100
     41 H12        -2.5960    0.0300   -1.9610 h4        1 3RW      0.038100
     42 H14         5.7340   -1.8210   -2.7210 hc        1 3RW      0.049200
     43 H14A        7.2380   -2.6700   -2.1660 hc        1 3RW      0.049200
     44 H14B        5.6110   -3.2550   -1.6160 hc        1 3RW      0.049200
     45 H16        -7.0500   -1.8330    1.0700 ha        1 3RW      0.140000
     46 H17        -6.6200    2.1860   -0.5290 h4        1 3RW      0.025100
     47 H18        -5.3500    1.3550    1.5870 hc        1 3RW      0.060200
     48 H18A       -5.2810   -0.4300    1.8890 hc        1 3RW      0.060200
     49 H19        -9.2330   -1.9930   -0.1760 ha        1 3RW      0.146000
     50 H20        -4.3220    1.0090   -0.7010 h1        1 3RW      0.050700
     51 H20A       -4.2480   -0.7830   -0.3900 h1        1 3RW      0.050700
     52 H21        -9.9950   -0.0130   -1.5560 h4        1 3RW      0.025100
@<TRIPOS>BOND
     1    1    5 ar  
     2    1    7 ar  
     3    1   31 1   
     4    2   22 1   
     5    2   29 1   
     6    2   32 1   
     7    3   18 2   
     8    4    5 ar  
     9    4   10 ar  
    10    4   11 1   
    11    6    8 2   
    12    6    9 1   
    13    6   33 1   
    14    7   12 ar  
    15    8   10 1   
    16    8   18 1   
    17    9   12 1   
    18    9   14 1   
    19   10   12 ar  
    20   11   34 1   
    21   11   35 1   
    22   13   20 ar  
    23   13   21 ar  
    24   14   16 1   
    25   14   23 1   
    26   14   36 1   
    27   15   19 ar  
    28   15   22 ar  
    29   16   37 1   
    30   16   38 1   
    31   16   39 1   
    32   17   26 ar  
    33   17   30 ar  
    34   18   19 1   
    35   19   20 ar  
    36   20   40 1   
    37   21   22 ar  
    38   21   41 1   
    39   23   42 1   
    40   23   43 1   
    41   23   44 1   
    42   24   25 ar  
    43   24   26 ar  
    44   24   27 1   
    45   25   28 ar  
    46   25   45 1   
    47   26   46 1   
    48   27   29 1   
    49   27   47 1   
    50   27   48 1   
    51   28   30 ar  
    52   28   49 1   
    53   29   50 1   
    54   29   51 1   
    55   30   52 1   
@<TRIPOS>SUBSTRUCTURE
     1 3RW         1 TEMP              0 ****  ****    0 ROOT
