@<TRIPOS>MOLECULE
3RW
   52    43     1     0     0
SMALL
bcc


@<TRIPOS>ATOM
      1 C1         -4.5840   -1.3400   -4.4550 c1        1 3RW     -0.057667
      2 N1          3.3410    0.2760    0.2050 n3        1 3RW     -0.249000
      3 O1         -1.0660   -2.1740    0.1630 o         1 3RW     -0.317000
      4 C2         -2.5000   -1.2460   -3.3560 c1        1 3RW      0.225000
      5 N2         -3.2130   -1.4220   -4.4860 n1        1 3RW     -0.274000
      6 C3         -3.7700   -0.5280   -0.0600 c1        1 3RW      0.036500
      7 N3         -5.2280   -1.0810   -3.2770 n1        1 3RW     -0.148000
      8 C4         -2.6810   -0.7520   -0.8800 c1        1 3RW     -0.195000
      9 N4         -4.8980   -0.6190   -0.8240 n2        1 3RW     -0.135000
     10 C5         -3.1510   -0.9830   -2.1620 c1        1 3RW     -0.195000
     11 N5         -1.3570   -1.6900   -4.0830 n3        1 3RW     -0.353000
     12 C6         -4.5120   -0.9030   -2.1320 c1        1 3RW      0.036500
     13 N6          0.2440    2.3330    0.3800 n1        1 3RW     -0.148000
     14 C7         -6.3340   -0.4810   -0.6020 c2        1 3RW      0.026000
     15 N7          1.0500   -0.2370   -0.0780 n1        1 3RW     -0.141000
     16 C8         -6.8340   -1.6490    0.2480 c3        1 3RW     -0.230000
     17 N8          8.0650    2.2610    3.0650 n1        1 3RW     -0.148000
     18 C9         -1.3140   -1.0540   -0.2420 c1        1 3RW      0.368000
     19 C10        -0.2600    0.0700   -0.1000 c1        1 3RW     -0.097000
     20 C11        -0.6690    1.3760    0.1320 c1        1 3RW     -0.117000
     21 C12         1.5550    2.0250    0.4020 c1        1 3RW     -0.057667
     22 C13         1.9640    0.7230    0.1700 c1        1 3RW      0.035000
     23 C14        -6.6120    0.8210    0.1170 c3        1 3RW     -0.230000
     24 C15         6.6000    0.7290    1.9730 c1        1 3RW     -0.127000
     25 C16         6.8470   -0.2040    2.9360 c1        1 3RW     -0.132500
     26 C17         7.2150    1.9730    2.0390 c1        1 3RW     -0.069000
     27 C18         5.6960    0.3840    0.7860 c3        1 3RW     -0.155000
     28 C19         7.7010    0.0860    3.9670 c1        1 3RW     -0.132500
     29 C20         4.3140    0.9890    1.0070 c3        1 3RW     -0.062000
     30 C21         8.3130    1.3270    4.0300 c1        1 3RW     -0.057667
     31 H1         -5.0960   -1.4670   -5.2710 ha        1 3RW      0.175000
     32 HN1         3.5900   -0.4710   -0.2570 hn        1 3RW      0.199000
     33 H3         -3.7410   -0.3880    0.8990 DU        1 3RW      0.180000
     34 HN5        -0.5560   -1.7870   -3.6580 hn        1 3RW      0.245500
     35 HN5A       -1.4270   -1.8810   -4.9790 hn        1 3RW      0.245500
     36 H7         -6.7970   -0.4830   -1.4620 ha        1 3RW      0.139000
     37 H8         -6.4420   -2.4800   -0.0780 hc        1 3RW      0.088500
     38 H8A        -6.5700   -1.5080    1.1860 hc        1 3RW      0.088500
     39 H8B        -7.8150   -1.7020    0.1880 hc        1 3RW      0.088500
     40 H11        -1.6210    1.6000    0.1170 ha        1 3RW      0.186000
     41 H12         2.2200    2.7240    0.5830 ha        1 3RW      0.175000
     42 H14        -7.5830    0.9450    0.2070 hc        1 3RW      0.088500
     43 H14A       -6.2350    1.5630   -0.3950 hc        1 3RW      0.088500
     44 H14B       -6.2030    0.7960    1.0060 hc        1 3RW      0.088500
     45 H16         6.4150   -1.0780    2.8910 ha        1 3RW      0.143500
     46 H17         7.0390    2.6410    1.3490 ha        1 3RW      0.158000
     47 H18         6.0830    0.7470   -0.0350 hc        1 3RW      0.099000
     48 H18A        5.6190   -0.5860    0.7080 hc        1 3RW      0.099000
     49 H19         7.8780   -0.5810    4.6560 ha        1 3RW      0.143500
     50 H20         4.0740    0.9160    1.9530 h1        1 3RW      0.104500
     51 H20A        4.3250    1.9340    0.7440 h1        1 3RW      0.104500
     52 H21         8.9230    1.5350    4.7670 ha        1 3RW      0.175000
@<TRIPOS>BOND
     1    1    7 1   
     2    1   31 1   
     3    2   22 1   
     4    2   29 1   
     5    2   32 1   
     6    3   18 1   
     7    4    5 1   
     8    4   11 1   
     9    6    8 1   
    10    6    9 1   
    11    8   10 1   
    12    9   12 1   
    13   10   12 1   
    14   11   34 1   
    15   11   35 1   
    16   13   21 1   
    17   14   16 1   
    18   14   23 1   
    19   14   36 1   
    20   15   22 1   
    21   16   37 1   
    22   16   38 1   
    23   16   39 1   
    24   17   30 1   
    25   18   19 1   
    26   19   20 1   
    27   20   40 1   
    28   21   41 1   
    29   23   42 1   
    30   23   43 1   
    31   23   44 1   
    32   24   26 1   
    33   24   27 1   
    34   25   28 1   
    35   25   45 1   
    36   26   46 1   
    37   27   29 1   
    38   27   47 1   
    39   27   48 1   
    40   28   49 1   
    41   29   50 1   
    42   29   51 1   
    43   30   52 1   
@<TRIPOS>SUBSTRUCTURE
     1 3RW         1 TEMP              0 ****  ****    0 ROOT
