@<TRIPOS>MOLECULE
3RW
   52    55     1     0     0
SMALL
bcc


@<TRIPOS>ATOM
      1 C1          0.6600   -0.1490    0.2190 ca        1 3RW      0.681900
      2 N1          7.0860    2.4800    4.3260 nu        1 3RW     -0.827900
      3 O1          2.9460   -0.2140    6.0830 o         1 3RW     -0.496100
      4 C2          2.4630    0.0690    1.6860 ca        1 3RW      0.726200
      5 N2          2.0060   -0.0600    0.3980 nb        1 3RW     -0.786000
      6 C3          0.2710    0.1240    4.6760 cc        1 3RW     -0.056100
      7 N3         -0.3320   -0.1630    1.1340 nb        1 3RW     -0.738000
      8 C4          1.5840    0.2420    4.2020 cd        1 3RW     -0.208400
      9 N4         -0.6200   -0.0310    3.6150 na        1 3RW     -0.156100
     10 C5          1.5260    0.1180    2.7680 ca        1 3RW     -0.341400
     11 N5          3.8170    0.1950    1.9330 nv        1 3RW     -0.940500
     12 C6          0.1210   -0.0370    2.4210 ca        1 3RW      0.472800
     13 N6          3.7100    4.0000    4.2390 nb        1 3RW     -0.605000
     14 C7         -2.0600   -0.1580    3.7310 c3        1 3RW      0.048000
     15 N7          4.9460    1.4830    4.7290 nb        1 3RW     -0.673000
     16 C8         -2.4750   -1.3920    4.5360 c3        1 3RW     -0.112100
     17 N8         11.2950    6.4230    4.4170 nb        1 3RW     -0.660000
     18 C9          2.7330    0.4620    5.0720 c         1 3RW      0.511800
     19 C10         3.6030    1.6360    4.7290 ca        1 3RW      0.270500
     20 C11         2.9840    2.8900    4.4800 ca        1 3RW      0.274900
     21 C12         5.0420    3.8710    4.2290 ca        1 3RW      0.258900
     22 C13         5.6940    2.6020    4.4590 ca        1 3RW      0.517900
     23 C14        -2.7100    1.0820    4.3490 c3        1 3RW     -0.112100
     24 C15        10.1190    4.4940    5.3160 ca        1 3RW     -0.203600
     25 C16        10.4540    4.8810    6.6190 ca        1 3RW     -0.087000
     26 C17        10.5690    5.3030    4.2490 ca        1 3RW      0.399200
     27 C18         9.3310    3.2650    5.0490 c3        1 3RW     -0.044100
     28 C19        11.2080    6.0390    6.8100 ca        1 3RW     -0.243300
     29 C20         7.8910    3.6310    4.6730 c3        1 3RW      0.186800
     30 C21        11.6050    6.7770    5.6800 ca        1 3RW      0.395200
     31 H1          0.3360   -0.2400   -0.8410 h5        1 3RW      0.052100
     32 HN1         7.4620    1.6060    4.6390 hn        1 3RW      0.417800
     33 H3         -0.0870    0.1470    5.7090 h4        1 3RW      0.182000
     34 HN5         4.4490    0.0430    1.1810 hn        1 3RW      0.432300
     35 HN5A        4.1260   -0.0710    2.8370 hn        1 3RW      0.432300
     36 H7         -2.4640   -0.2760    2.6780 h1        1 3RW      0.096700
     37 H8         -2.0620   -2.3240    4.0820 hc        1 3RW      0.049200
     38 H8A        -2.1210   -1.3210    5.5920 hc        1 3RW      0.049200
     39 H8B        -3.5900   -1.4590    4.5350 hc        1 3RW      0.049200
     40 H11         1.8870    2.9970    4.4700 h4        1 3RW      0.042100
     41 H12         5.6240    4.7850    4.0210 h4        1 3RW      0.038100
     42 H14        -3.8170    0.9380    4.3550 hc        1 3RW      0.049200
     43 H14A       -2.4730    1.9970    3.7550 hc        1 3RW      0.049200
     44 H14B       -2.3630    1.2360    5.3990 hc        1 3RW      0.049200
     45 H16        10.1280    4.2790    7.4800 ha        1 3RW      0.140000
     46 H17        10.3320    5.0340    3.2040 h4        1 3RW      0.025100
     47 H18         9.3320    2.6030    5.9550 hc        1 3RW      0.060200
     48 H18A        9.8090    2.6900    4.2100 hc        1 3RW      0.060200
     49 H19        11.4890    6.3710    7.8180 ha        1 3RW      0.146000
     50 H20         7.4330    4.2130    5.5260 h1        1 3RW      0.050700
     51 H20A        7.9130    4.3110    3.7720 h1        1 3RW      0.050700
     52 H21        12.2030    7.7000    5.7870 h4        1 3RW      0.025100
@<TRIPOS>BOND
     1    1    5 ar  
     2    1    7 ar  
     3    1   31 1   
     4    2   22 1   
     5    2   29 1   
     6    2   32 1   
     7    3   18 2   
     8    4    5 ar  
     9    4   10 ar  
    10    4   11 1   
    11    6    8 2   
    12    6    9 1   
    13    6   33 1   
    14    7   12 ar  
    15    8   10 1   
    16    8   18 1   
    17    9   12 1   
    18    9   14 1   
    19   10   12 ar  
    20   11   34 1   
    21   11   35 1   
    22   13   20 ar  
    23   13   21 ar  
    24   14   16 1   
    25   14   23 1   
    26   14   36 1   
    27   15   19 ar  
    28   15   22 ar  
    29   16   37 1   
    30   16   38 1   
    31   16   39 1   
    32   17   26 ar  
    33   17   30 ar  
    34   18   19 1   
    35   19   20 ar  
    36   20   40 1   
    37   21   22 ar  
    38   21   41 1   
    39   23   42 1   
    40   23   43 1   
    41   23   44 1   
    42   24   25 ar  
    43   24   26 ar  
    44   24   27 1   
    45   25   28 ar  
    46   25   45 1   
    47   26   46 1   
    48   27   29 1   
    49   27   47 1   
    50   27   48 1   
    51   28   30 ar  
    52   28   49 1   
    53   29   50 1   
    54   29   51 1   
    55   30   52 1   
@<TRIPOS>SUBSTRUCTURE
     1 3RW         1 TEMP              0 ****  ****    0 ROOT
