@<TRIPOS>MOLECULE
3RW
   52    55     1     0     0
SMALL
bcc


@<TRIPOS>ATOM
      1 C1          0.5890   -0.0450    0.2200 ca        1 3RW      0.681900
      2 N1          7.1040    2.4790    4.2480 nh        1 3RW     -0.827900
      3 O1          3.0140   -0.2770    6.0240 o         1 3RW     -0.496100
      4 C2          2.4260    0.1360    1.6490 ca        1 3RW      0.726200
      5 N2          1.9380    0.0450    0.3700 nb        1 3RW     -0.786000
      6 C3          0.3060    0.0920    4.6910 cc        1 3RW     -0.056100
      7 N3         -0.3810   -0.0900    1.1570 nb        1 3RW     -0.738000
      8 C4          1.6070    0.2300    4.1900 cd        1 3RW     -0.208400
      9 N4         -0.6100   -0.0350    3.6480 na        1 3RW     -0.156100
     10 C5          1.5150    0.1480    2.7550 ca        1 3RW     -0.341400
     11 N5          3.7850    0.2600    1.8680 nh        1 3RW     -0.940500
     12 C6          0.1030   -0.0010    2.4370 ca        1 3RW      0.472800
     13 N6          3.7240    3.9920    4.2910 nb        1 3RW     -0.605000
     14 C7         -2.0460   -0.1700    3.7940 c3        1 3RW      0.048000
     15 N7          4.9770    1.4650    4.6730 nb        1 3RW     -0.673000
     16 C8         -2.4390   -1.4280    4.5730 c3        1 3RW     -0.112100
     17 N8         11.7510    6.1650    4.5770 nb        1 3RW     -0.660000
     18 C9          2.7760    0.4270    5.0390 c         1 3RW      0.511800
     19 C10         3.6340    1.6140    4.7100 ca        1 3RW      0.270500
     20 C11         3.0060    2.8730    4.5160 ca        1 3RW      0.273900
     21 C12         5.0560    3.8670    4.2440 ca        1 3RW      0.258900
     22 C13         5.7150    2.5940    4.4190 ca        1 3RW      0.518900
     23 C14        -2.6850    1.0500    4.4620 c3        1 3RW     -0.112100
     24 C15        10.1450    4.4720    5.2580 ca        1 3RW     -0.204600
     25 C16        10.0490    5.0580    6.5270 ca        1 3RW     -0.089000
     26 C17        11.0140    5.0680    4.3190 ca        1 3RW      0.402200
     27 C18         9.3700    3.2550    4.9100 c3        1 3RW     -0.043100
     28 C19        10.8060    6.1950    6.8090 ca        1 3RW     -0.243300
     29 C20         7.9140    3.6240    4.6040 c3        1 3RW      0.187800
     30 C21        11.6420    6.7120    5.8030 ca        1 3RW      0.396200
     31 H1          0.2400   -0.1040   -0.8340 h5        1 3RW      0.052100
     32 HN1         7.4900    1.5990    4.5270 hn        1 3RW      0.417800
     33 H3         -0.0280    0.0820    5.7330 h4        1 3RW      0.183000
     34 HN5         4.1170   -0.0340    2.7560 hn        1 3RW      0.431800
     35 HN5A        4.3990    0.1320    1.0970 hn        1 3RW      0.431800
     36 H7         -2.4740   -0.2590    2.7480 h1        1 3RW      0.096700
     37 H8         -2.0600   -1.3850    5.6220 hc        1 3RW      0.049200
     38 H8A        -2.0330   -2.3450    4.0830 hc        1 3RW      0.049200
     39 H8B        -3.5530   -1.4990    4.5970 hc        1 3RW      0.049200
     40 H11         1.9090    2.9780    4.5360 h4        1 3RW      0.042100
     41 H12         5.6300    4.7880    4.0500 h4        1 3RW      0.037100
     42 H14        -2.4650    1.9820    3.8890 hc        1 3RW      0.049200
     43 H14A       -2.3140    1.1750    5.5080 hc        1 3RW      0.049200
     44 H14B       -3.7910    0.9020    4.4900 hc        1 3RW      0.049200
     45 H16         9.3850    4.6230    7.2890 ha        1 3RW      0.139000
     46 H17        11.1270    4.6410    3.3060 h4        1 3RW      0.025100
     47 H18         9.8290    2.7480    4.0190 hc        1 3RW      0.060700
     48 H18A        9.4090    2.5300    5.7680 hc        1 3RW      0.060700
     49 H19        10.7550    6.6790    7.7930 ha        1 3RW      0.146000
     50 H20         7.8950    4.3360    3.7300 h1        1 3RW      0.050200
     51 H20A        7.4890    4.1700    5.4970 h1        1 3RW      0.050200
     52 H21        12.2590    7.6100    5.9840 h4        1 3RW      0.025100
@<TRIPOS>BOND
     1    1    5 ar  
     2    1    7 ar  
     3    1   31 1   
     4    2   22 1   
     5    2   29 1   
     6    2   32 1   
     7    3   18 2   
     8    4    5 ar  
     9    4   10 ar  
    10    4   11 1   
    11    6    8 2   
    12    6    9 1   
    13    6   33 1   
    14    7   12 ar  
    15    8   10 1   
    16    8   18 1   
    17    9   12 1   
    18    9   14 1   
    19   10   12 ar  
    20   11   34 1   
    21   11   35 1   
    22   13   20 ar  
    23   13   21 ar  
    24   14   16 1   
    25   14   23 1   
    26   14   36 1   
    27   15   19 ar  
    28   15   22 ar  
    29   16   37 1   
    30   16   38 1   
    31   16   39 1   
    32   17   26 ar  
    33   17   30 ar  
    34   18   19 1   
    35   19   20 ar  
    36   20   40 1   
    37   21   22 ar  
    38   21   41 1   
    39   23   42 1   
    40   23   43 1   
    41   23   44 1   
    42   24   25 ar  
    43   24   26 ar  
    44   24   27 1   
    45   25   28 ar  
    46   25   45 1   
    47   26   46 1   
    48   27   29 1   
    49   27   47 1   
    50   27   48 1   
    51   28   30 ar  
    52   28   49 1   
    53   29   50 1   
    54   29   51 1   
    55   30   52 1   
@<TRIPOS>SUBSTRUCTURE
     1 3RW         1 TEMP              0 ****  ****    0 ROOT
