@<TRIPOS>MOLECULE
3RX
   64    66     1     0     0
SMALL
bcc


@<TRIPOS>ATOM
      1 CAA         0.6980   -0.5350    0.6820 c3        1 3RX     -0.071900
      2 CAB         2.7570    0.6590    1.4910 c3        1 3RX     -0.071900
      3 CAC         1.2730   -0.5850   -5.1600 c3        1 3RX     -0.110900
      4 CAD         2.1630    0.6830   -0.9040 c2        1 3RX     -0.227200
      5 CAE         0.0070    1.5660   -4.9430 c2        1 3RX     -0.358200
      6 CAF         1.3240    0.3250   -2.0710 c3        1 3RX     -0.022200
      7 CAG        -0.7910    1.4010   -6.1690 c3        1 3RX      0.194000
      8 CAH        -3.0720    0.8330   -7.0010 c3        1 3RX      0.071800
      9 CAI        -4.4880    0.3200   -6.6630 c3        1 3RX      0.074800
     10 CAJ         1.7920    1.0510   -3.3230 c3        1 3RX     -0.085200
     11 CAK        -8.9730   -2.2760   -9.3830 c3        1 3RX     -0.078400
     12 CAL        -8.1650   -2.2150   -7.0260 c3        1 3RX     -0.080900
     13 CAM        -6.5350   -2.3510   -8.9040 c3        1 3RX     -0.080900
     14 CAN        -9.1800   -0.1850   -8.0450 c3        1 3RX     -0.080900
     15 CAO        -7.5440   -0.3110   -9.9250 c3        1 3RX     -0.080900
     16 NAP        -2.1780    0.8650   -5.8190 n4        1 3RX     -0.776000
     17 NAQ        -5.3880    0.3200   -7.8420 n4        1 3RX     -0.765000
     18 CAR         1.8860    0.2890    0.3500 c2        1 3RX     -0.067400
     19 CAS         0.9550    0.7050   -4.5090 c2        1 3RX      0.071600
     20 CAT        -9.2290   -1.7070   -7.9910 c3        1 3RX     -0.070700
     21 CAU        -7.5960   -1.8330   -9.8680 c3        1 3RX     -0.070700
     22 CAV        -6.7770   -1.7840   -7.5100 c3        1 3RX     -0.078700
     23 CAW        -7.8070    0.2720   -8.5420 c3        1 3RX     -0.078700
     24 CAX        -6.7680   -0.2420   -7.5210 c3        1 3RX      0.130500
     25 HAA        -0.2330    0.0810    0.5930 hc        1 3RX      0.051367
     26 HAAA        0.7590   -0.9290    1.7260 hc        1 3RX      0.051367
     27 HAAB        0.6110   -1.4030   -0.0180 hc        1 3RX      0.051367
     28 HAB         2.1570    1.1820    2.2780 hc        1 3RX      0.051367
     29 HABA        3.5930    1.3310    1.1770 hc        1 3RX      0.051367
     30 HABB        3.1980   -0.2640    1.9470 hc        1 3RX      0.051367
     31 HAC         1.5190   -1.3630   -4.3900 hc        1 3RX      0.072033
     32 HACA        0.4350   -0.9680   -5.7920 hc        1 3RX      0.072033
     33 HACB        2.1800   -0.4590   -5.8090 hc        1 3RX      0.072033
     34 HAD         3.0560    1.2950   -1.1130 ha        1 3RX      0.136000
     35 HAE        -0.1470    2.5200   -4.4080 ha        1 3RX      0.166000
     36 HAF         1.3690   -0.7870   -2.2370 hc        1 3RX      0.040200
     37 HAFA        0.2510    0.5850   -1.8630 hc        1 3RX      0.040200
     38 HAG        -0.3330    0.6750   -6.9000 hx        1 3RX      0.106700
     39 HAGA       -0.9460    2.3950   -6.6800 hx        1 3RX      0.106700
     40 HAH        -3.1270    1.8830   -7.4190 hx        1 3RX      0.122700
     41 HAHA       -2.5910    0.1700   -7.7800 hx        1 3RX      0.122700
     42 HAI        -4.9590    0.9700   -5.8670 hx        1 3RX      0.124700
     43 HAIA       -4.4370   -0.7390   -6.2690 hx        1 3RX      0.124700
     44 HAJ         2.8600    0.7670   -3.5380 hc        1 3RX      0.086200
     45 HAJA        1.7730    2.1580   -3.1360 hc        1 3RX      0.086200
     46 HAL        -8.3550   -1.8200   -5.9950 hc        1 3RX      0.066075
     47 HALA       -8.1980   -3.3350   -6.9760 hc        1 3RX      0.066075
     48 HAM        -5.5100   -2.0940   -9.2770 hc        1 3RX      0.066075
     49 HAMA       -6.5920   -3.4710   -8.8540 hc        1 3RX      0.066075
     50 HAN        -9.9640    0.1990   -8.7510 hc        1 3RX      0.066075
     51 HANA       -9.3900    0.2480   -7.0340 hc        1 3RX      0.066075
     52 HAO        -6.5540    0.0310  -10.3220 hc        1 3RX      0.066075
     53 HAOA       -8.3310    0.0630  -10.6330 hc        1 3RX      0.066075
     54 HNAP       -2.0710   -0.0780   -5.4260 hn        1 3RX      0.456800
     55 HNAQ       -4.9840   -0.2490   -8.6000 hn        1 3RX      0.460300
     56 HAT       -10.2430   -2.0340   -7.6310 hc        1 3RX      0.096200
     57 HAU        -7.4060   -2.2530  -10.8940 hc        1 3RX      0.096200
     58 HAV        -6.0030   -2.1720   -6.7950 hc        1 3RX      0.058700
     59 HAW        -7.7890    1.3950   -8.5840 hc        1 3RX      0.058700
     60 HAX        -7.0350    0.1460   -6.4930 hx        1 3RX      0.103700
     61 HAK        -9.0270   -3.3940   -9.3550 hc        1 3RX      0.075200
     62 HAP2       -2.5770    1.4650   -5.0860 hn        1 3RX      0.456800
     63 HAQ2       -5.5080    1.2790   -8.1920 hn        1 3RX      0.460300
     64 HAKA       -9.7610   -1.9140  -10.0940 hc        1 3RX      0.075200
@<TRIPOS>BOND
     1    1   18 1   
     2    1   25 1   
     3    1   26 1   
     4    1   27 1   
     5    2   18 1   
     6    2   28 1   
     7    2   29 1   
     8    2   30 1   
     9    3   19 1   
    10    3   31 1   
    11    3   32 1   
    12    3   33 1   
    13    4    6 1   
    14    4   18 2   
    15    4   34 1   
    16    5    7 1   
    17    5   19 2   
    18    5   35 1   
    19    6   10 1   
    20    6   36 1   
    21    6   37 1   
    22    7   16 1   
    23    7   38 1   
    24    7   39 1   
    25    8    9 1   
    26    8   16 1   
    27    8   40 1   
    28    8   41 1   
    29    9   17 1   
    30    9   42 1   
    31    9   43 1   
    32   10   19 1   
    33   10   44 1   
    34   10   45 1   
    35   11   20 1   
    36   11   21 1   
    37   11   61 1   
    38   11   64 1   
    39   12   20 1   
    40   12   22 1   
    41   12   46 1   
    42   12   47 1   
    43   13   21 1   
    44   13   22 1   
    45   13   48 1   
    46   13   49 1   
    47   14   20 1   
    48   14   23 1   
    49   14   50 1   
    50   14   51 1   
    51   15   21 1   
    52   15   23 1   
    53   15   52 1   
    54   15   53 1   
    55   16   54 1   
    56   16   62 1   
    57   17   24 1   
    58   17   55 1   
    59   17   63 1   
    60   20   56 1   
    61   21   57 1   
    62   22   24 1   
    63   22   58 1   
    64   23   24 1   
    65   23   59 1   
    66   24   60 1   
@<TRIPOS>SUBSTRUCTURE
     1 3RX         1 TEMP              0 ****  ****    0 ROOT
