@<TRIPOS>MOLECULE
3RX
   64    66     1     0     0
SMALL
bcc


@<TRIPOS>ATOM
      1 CAA         0.7270   -0.5590    0.6680 c3        1 3RX     -0.071900
      2 CAB         2.7730    0.6560    1.4800 c3        1 3RX     -0.071900
      3 CAC         1.2720   -0.5760   -5.1690 c3        1 3RX     -0.110900
      4 CAD         2.1690    0.6920   -0.9120 c2        1 3RX     -0.227200
      5 CAE         0.0040    1.5730   -4.9460 c2        1 3RX     -0.357200
      6 CAF         1.3290    0.3310   -2.0790 c3        1 3RX     -0.022200
      7 CAG        -0.7970    1.4080   -6.1710 c3        1 3RX      0.194000
      8 CAH        -3.0810    0.8390   -6.9970 c3        1 3RX      0.071800
      9 CAI        -4.4930    0.3180   -6.6570 c3        1 3RX      0.074800
     10 CAJ         1.7940    1.0590   -3.3310 c3        1 3RX     -0.085200
     11 CAK        -8.9780   -2.2750   -9.3810 c3        1 3RX     -0.078400
     12 CAL        -8.1580   -2.2330   -7.0270 c3        1 3RX     -0.080900
     13 CAM        -6.5360   -2.3420   -8.9150 c3        1 3RX     -0.080900
     14 CAN        -9.1890   -0.1990   -8.0220 c3        1 3RX     -0.080900
     15 CAO        -7.5610   -0.2980   -9.9100 c3        1 3RX     -0.080900
     16 NAP        -2.1820    0.8680   -5.8180 ny        1 3RX     -0.776000
     17 NAQ        -5.3990    0.3240   -7.8320 ny        1 3RX     -0.765000
     18 CAR         1.9020    0.2840    0.3400 c2        1 3RX     -0.067400
     19 CAS         0.9540    0.7130   -4.5160 c2        1 3RX      0.071600
     20 CAT        -9.2300   -1.7210   -7.9820 c3        1 3RX     -0.070700
     21 CAU        -7.6050   -1.8210   -9.8690 c3        1 3RX     -0.070700
     22 CAV        -6.7750   -1.7910   -7.5140 c3        1 3RX     -0.078700
     23 CAW        -7.8200    0.2700   -8.5210 c3        1 3RX     -0.078700
     24 CAX        -6.7730   -0.2490   -7.5090 c3        1 3RX      0.130500
     25 HAA         0.7840   -0.9410    1.7170 hc        1 3RX      0.051533
     26 HAAA        0.6640   -1.4360   -0.0240 hc        1 3RX      0.051533
     27 HAAB       -0.2150    0.0370    0.5630 hc        1 3RX      0.051533
     28 HAB         2.1690    1.1710    2.2700 hc        1 3RX      0.051533
     29 HABA        3.6010    1.3370    1.1670 hc        1 3RX      0.051533
     30 HABB        3.2230   -0.2640    1.9310 hc        1 3RX      0.051533
     31 HAC         2.1790   -0.4480   -5.8190 hc        1 3RX      0.071700
     32 HACA        1.5200   -1.3540   -4.4000 hc        1 3RX      0.071700
     33 HACB        0.4350   -0.9590   -5.8000 hc        1 3RX      0.071700
     34 HAD         3.0520    1.3170   -1.1200 ha        1 3RX      0.136000
     35 HAE        -0.1510    2.5260   -4.4100 ha        1 3RX      0.166000
     36 HAF         1.3760   -0.7800   -2.2450 hc        1 3RX      0.040200
     37 HAFA        0.2560    0.5890   -1.8680 hc        1 3RX      0.040200
     38 HAG        -0.9560    2.4030   -6.6790 hx        1 3RX      0.106700
     39 HAGA       -0.3390    0.6840   -6.9040 hx        1 3RX      0.106700
     40 HAH        -2.6000    0.1830   -7.7810 hx        1 3RX      0.122700
     41 HAHA       -3.1420    1.8910   -7.4080 hx        1 3RX      0.122700
     42 HAI        -4.9630    0.9610   -5.8540 hx        1 3RX      0.124700
     43 HAIA       -4.4360   -0.7430   -6.2710 hx        1 3RX      0.124700
     44 HAJ         1.7730    2.1670   -3.1430 hc        1 3RX      0.086200
     45 HAJA        2.8620    0.7770   -3.5480 hc        1 3RX      0.086200
     46 HAL        -8.3450   -1.8490   -5.9920 hc        1 3RX      0.066075
     47 HALA       -8.1850   -3.3540   -6.9880 hc        1 3RX      0.066075
     48 HAM        -5.5140   -2.0770   -9.2900 hc        1 3RX      0.066075
     49 HAMA       -6.5870   -3.4630   -8.8760 hc        1 3RX      0.066075
     50 HAN        -9.3960    0.2240   -7.0050 hc        1 3RX      0.066075
     51 HANA       -9.9770    0.1880   -8.7200 hc        1 3RX      0.066075
     52 HAO        -6.5750    0.0530  -10.3090 hc        1 3RX      0.066075
     53 HAOA       -8.3530    0.0790  -10.6110 hc        1 3RX      0.066075
     54 HNAP       -2.5790    1.4640   -5.0800 hn        1 3RX      0.456800
     55 HNAQ       -4.9940   -0.2360   -8.5960 hn        1 3RX      0.460300
     56 HAT       -10.2400   -2.0570   -7.6210 hc        1 3RX      0.096700
     57 HAU        -7.4180   -2.2290  -10.8990 hc        1 3RX      0.096700
     58 HAV        -5.9950   -2.1820   -6.8070 hc        1 3RX      0.058700
     59 HAW        -7.8080    1.3940   -8.5520 hc        1 3RX      0.058700
     60 HAX        -7.0370    0.1280   -6.4770 hx        1 3RX      0.103700
     61 HAK        -9.7710   -1.9110  -10.0840 hc        1 3RX      0.075200
     62 HAP2       -2.0720   -0.0770   -5.4290 hn        1 3RX      0.456800
     63 HAQ2       -5.5240    1.2860   -8.1730 hn        1 3RX      0.460300
     64 HAKA       -9.0250   -3.3940   -9.3630 hc        1 3RX      0.075200
@<TRIPOS>BOND
     1    1   18 1   
     2    1   25 1   
     3    1   26 1   
     4    1   27 1   
     5    2   18 1   
     6    2   28 1   
     7    2   29 1   
     8    2   30 1   
     9    3   19 1   
    10    3   31 1   
    11    3   32 1   
    12    3   33 1   
    13    4    6 1   
    14    4   18 2   
    15    4   34 1   
    16    5    7 1   
    17    5   19 2   
    18    5   35 1   
    19    6   10 1   
    20    6   36 1   
    21    6   37 1   
    22    7   16 1   
    23    7   38 1   
    24    7   39 1   
    25    8    9 1   
    26    8   16 1   
    27    8   40 1   
    28    8   41 1   
    29    9   17 1   
    30    9   42 1   
    31    9   43 1   
    32   10   19 1   
    33   10   44 1   
    34   10   45 1   
    35   11   20 1   
    36   11   21 1   
    37   11   61 1   
    38   11   64 1   
    39   12   20 1   
    40   12   22 1   
    41   12   46 1   
    42   12   47 1   
    43   13   21 1   
    44   13   22 1   
    45   13   48 1   
    46   13   49 1   
    47   14   20 1   
    48   14   23 1   
    49   14   50 1   
    50   14   51 1   
    51   15   21 1   
    52   15   23 1   
    53   15   52 1   
    54   15   53 1   
    55   16   54 1   
    56   16   62 1   
    57   17   24 1   
    58   17   55 1   
    59   17   63 1   
    60   20   56 1   
    61   21   57 1   
    62   22   24 1   
    63   22   58 1   
    64   23   24 1   
    65   23   59 1   
    66   24   60 1   
@<TRIPOS>SUBSTRUCTURE
     1 3RX         1 TEMP              0 ****  ****    0 ROOT
