@<TRIPOS>MOLECULE
3RX
   64    66     1     0     0
SMALL
bcc


@<TRIPOS>ATOM
      1 CAA         1.1640   -0.9560    0.6020 c3        1 3RX     -0.072900
      2 CAB         2.8140    0.7100    1.5030 c3        1 3RX     -0.072900
      3 CAC         1.2120   -0.5980   -5.0240 c3        1 3RX     -0.110900
      4 CAD         2.0000    0.9010   -0.8180 c2        1 3RX     -0.229200
      5 CAE        -0.0230    1.5810   -4.9530 c2        1 3RX     -0.358200
      6 CAF         1.1870    0.4900   -1.9860 c3        1 3RX     -0.021200
      7 CAG        -0.7980    1.3630   -6.1860 c3        1 3RX      0.194000
      8 CAH        -3.0780    0.8080   -7.0330 c3        1 3RX      0.071800
      9 CAI        -4.5110    0.3450   -6.6970 c3        1 3RX      0.074800
     10 CAJ         1.7130    1.1260   -3.2650 c3        1 3RX     -0.085200
     11 CAK        -9.0090   -2.2710   -9.3760 c3        1 3RX     -0.078400
     12 CAL        -8.2380   -2.1240   -7.0110 c3        1 3RX     -0.080900
     13 CAM        -6.5800   -2.3790   -8.8530 c3        1 3RX     -0.080900
     14 CAN        -9.1900   -0.1190   -8.1360 c3        1 3RX     -0.080900
     15 CAO        -7.5260   -0.3650   -9.9800 c3        1 3RX     -0.080900
     16 NAP        -2.2040    0.8790   -5.8370 n4        1 3RX     -0.776000
     17 NAQ        -5.3910    0.3100   -7.8910 n4        1 3RX     -0.765000
     18 CAR         1.9870    0.2540    0.3590 c2        1 3RX     -0.064400
     19 CAS         0.9010    0.7300   -4.4520 c2        1 3RX      0.071600
     20 CAT        -9.2740   -1.6360   -8.0160 c3        1 3RX     -0.070700
     21 CAU        -7.6140   -1.8820   -9.8570 c3        1 3RX     -0.070700
     22 CAV        -6.8330   -1.7460   -7.4900 c3        1 3RX     -0.078700
     23 CAW        -7.7980    0.2840   -8.6290 c3        1 3RX     -0.078700
     24 CAX        -6.7880   -0.2060   -7.5680 c3        1 3RX      0.130500
     25 HAA         0.1430   -0.8400    0.1620 hc        1 3RX      0.052200
     26 HAAA        1.6500   -1.8480    0.1310 hc        1 3RX      0.052200
     27 HAAB        1.0550   -1.1550    1.6970 hc        1 3RX      0.052200
     28 HAB         3.4640    1.5760    1.2290 hc        1 3RX      0.052200
     29 HABA        2.1520    1.0190    2.3520 hc        1 3RX      0.052200
     30 HABB        3.4670   -0.1260    1.8590 hc        1 3RX      0.052200
     31 HAC         2.1380   -0.5210   -5.6550 hc        1 3RX      0.071700
     32 HACA        1.4260   -1.3360   -4.2080 hc        1 3RX      0.071700
     33 HACB        0.3850   -1.0010   -5.6570 hc        1 3RX      0.071700
     34 HAD         2.6300    1.7940   -0.9560 ha        1 3RX      0.135000
     35 HAE        -0.1730    2.5650   -4.4750 ha        1 3RX      0.166000
     36 HAF         0.1190    0.8010   -1.8250 hc        1 3RX      0.039700
     37 HAFA        1.1970   -0.6290   -2.0880 hc        1 3RX      0.039700
     38 HAG        -0.9180    2.3290   -6.7560 hx        1 3RX      0.106700
     39 HAGA       -0.3420    0.5850   -6.8630 hx        1 3RX      0.106700
     40 HAH        -3.1000    1.8360   -7.5030 hx        1 3RX      0.122700
     41 HAHA       -2.5990    0.0950   -7.7680 hx        1 3RX      0.122700
     42 HAI        -4.4920   -0.6950   -6.2520 hx        1 3RX      0.124700
     43 HAIA       -4.9800    1.0430   -5.9410 hx        1 3RX      0.124700
     44 HAJ         1.7190    2.2440   -3.1480 hc        1 3RX      0.086200
     45 HAJA        2.7790    0.8020   -3.4260 hc        1 3RX      0.086200
     46 HAL        -8.2970   -3.2400   -6.9120 hc        1 3RX      0.066075
     47 HALA       -8.4350   -1.6790   -6.0020 hc        1 3RX      0.066075
     48 HAM        -6.6640   -3.4950   -8.7550 hc        1 3RX      0.066075
     49 HAMA       -5.5440   -2.1620   -9.2190 hc        1 3RX      0.066075
     50 HAN        -9.4060    0.3630   -7.1490 hc        1 3RX      0.066075
     51 HANA       -9.9520    0.2500   -8.8720 hc        1 3RX      0.066075
     52 HAO        -8.2930   -0.0060  -10.7180 hc        1 3RX      0.066075
     53 HAOA       -6.5230   -0.0630  -10.3750 hc        1 3RX      0.066075
     54 HNAP       -2.1280   -0.0440   -5.3930 hn        1 3RX      0.456800
     55 HNAQ       -4.9870   -0.3020   -8.6140 hn        1 3RX      0.460300
     56 HAT       -10.3010   -1.9240   -7.6590 hc        1 3RX      0.096200
     57 HAU        -7.4180   -2.3510  -10.8600 hc        1 3RX      0.096200
     58 HAV        -6.0790   -2.1190   -6.7460 hc        1 3RX      0.058700
     59 HAW        -7.7540    1.4040   -8.7210 hc        1 3RX      0.058700
     60 HAX        -7.0630    0.2330   -6.5640 hx        1 3RX      0.103700
     61 HAK        -9.7770   -1.9250  -10.1160 hc        1 3RX      0.075200
     62 HAP2       -2.6010    1.5260   -5.1430 hn        1 3RX      0.456800
     63 HAQ2       -5.4830    1.2550   -8.2870 hn        1 3RX      0.460300
     64 HAKA       -9.0880   -3.3860   -9.3000 hc        1 3RX      0.075200
@<TRIPOS>BOND
     1    1   18 1   
     2    1   25 1   
     3    1   26 1   
     4    1   27 1   
     5    2   18 1   
     6    2   28 1   
     7    2   29 1   
     8    2   30 1   
     9    3   19 1   
    10    3   31 1   
    11    3   32 1   
    12    3   33 1   
    13    4    6 1   
    14    4   18 2   
    15    4   34 1   
    16    5    7 1   
    17    5   19 2   
    18    5   35 1   
    19    6   10 1   
    20    6   36 1   
    21    6   37 1   
    22    7   16 1   
    23    7   38 1   
    24    7   39 1   
    25    8    9 1   
    26    8   16 1   
    27    8   40 1   
    28    8   41 1   
    29    9   17 1   
    30    9   42 1   
    31    9   43 1   
    32   10   19 1   
    33   10   44 1   
    34   10   45 1   
    35   11   20 1   
    36   11   21 1   
    37   11   61 1   
    38   11   64 1   
    39   12   20 1   
    40   12   22 1   
    41   12   46 1   
    42   12   47 1   
    43   13   21 1   
    44   13   22 1   
    45   13   48 1   
    46   13   49 1   
    47   14   20 1   
    48   14   23 1   
    49   14   50 1   
    50   14   51 1   
    51   15   21 1   
    52   15   23 1   
    53   15   52 1   
    54   15   53 1   
    55   16   54 1   
    56   16   62 1   
    57   17   24 1   
    58   17   55 1   
    59   17   63 1   
    60   20   56 1   
    61   21   57 1   
    62   22   24 1   
    63   22   58 1   
    64   23   24 1   
    65   23   59 1   
    66   24   60 1   
@<TRIPOS>SUBSTRUCTURE
     1 3RX         1 TEMP              0 ****  ****    0 ROOT
