@<TRIPOS>MOLECULE
3RX
   62    62     1     0     0
SMALL
bcc


@<TRIPOS>ATOM
      1 CAA         6.4850    0.3160    1.9890 c3        1 3RX     -0.180500
      2 CAB         7.8520    0.0510    4.2190 c3        1 3RX     -0.180500
      3 CAC         2.1710   -3.9570    2.2900 c3        1 3RX     -0.184000
      4 CAD         5.7190   -1.1960    3.8230 c1        1 3RX     -0.175000
      5 CAE         1.1890   -1.7020    2.7800 c1        1 3RX     -0.175000
      6 CAF         4.5090   -1.5580    2.9580 c2        1 3RX     -0.125000
      7 CAG        -0.0190   -2.0890    1.9030 c2        1 3RX     -0.043000
      8 CAH        -1.5900   -1.0300    0.4790 c3        1 3RX     -0.076000
      9 CAI        -2.0210    0.3860    0.0200 c3        1 3RX     -0.073000
     10 CAJ         3.4260   -2.2010    3.8350 c3        1 3RX     -0.122000
     11 CAK        -4.5840    2.0400   -4.5190 c3        1 3RX     -0.147000
     12 CAL        -5.0810    1.5900   -2.5390 c3        1 3RX     -0.147500
     13 CAM        -3.8970    3.2650   -2.9640 c3        1 3RX     -0.147500
     14 CAN        -3.3860    0.1870   -3.5260 c3        1 3RX     -0.147500
     15 CAO        -2.2580    1.8280   -3.9670 c3        1 3RX     -0.147500
     16 NAP        -0.8910   -0.9350    1.7430 n3        1 3RX     -0.301000
     17 NAQ        -2.9580    0.2730   -1.0960 n3        1 3RX     -0.300000
     18 CAR         6.6500   -0.3090    3.3590 c2        1 3RX     -0.114000
     19 CAS         2.2190   -2.5880    2.9590 c2        1 3RX     -0.112000
     20 CAT        -4.8970    1.1790   -3.6840 c3        1 3RX     -0.103000
     21 CAU        -3.7300    2.8400   -4.1150 c3        1 3RX     -0.103000
     22 CAV        -4.2200    2.3890   -2.1510 c3        1 3RX     -0.115000
     23 CAW        -2.4920    0.9140   -3.1410 c3        1 3RX     -0.115000
     24 CAX        -2.7310    1.3660   -2.0350 c3        1 3RX     -0.011000
     25 HAA         5.6220    0.7580    1.9370 hc        1 3RX      0.079833
     26 HAAA        7.2020    0.9750    1.8400 hc        1 3RX      0.079833
     27 HAAB        6.5360   -0.3820    1.3030 hc        1 3RX      0.079833
     28 HAB         8.1560   -0.7410    4.7030 hc        1 3RX      0.079833
     29 HABA        7.5980    0.7470    4.8590 hc        1 3RX      0.079833
     30 HABB        8.5800    0.3840    3.6430 hc        1 3RX      0.079833
     31 HAC         1.4070   -4.4670    2.6430 hc        1 3RX      0.081667
     32 HACA        3.0060   -4.4430    2.4780 hc        1 3RX      0.081667
     33 HACB        2.0700   -3.8450    1.3290 hc        1 3RX      0.081667
     34 HAD         5.8240   -1.5950    4.6990 ha        1 3RX      0.121000
     35 HAE         1.2200   -0.8190    3.2120 ha        1 3RX      0.134000
     36 HAF         4.1540   -0.7520    2.5420 ha        1 3RX      0.090000
     37 HAFA        4.7840   -2.1930    2.2600 ha        1 3RX      0.090000
     38 HAG         0.2960   -2.3830    1.0270 h4        1 3RX      0.076500
     39 HAGA       -0.5140   -2.8150    2.3320 h4        1 3RX      0.076500
     40 HAH        -0.9980   -1.4250   -0.1940 h1        1 3RX      0.073500
     41 HAHA       -2.3850   -1.5950    0.5860 h1        1 3RX      0.073500
     42 HAI        -1.2360    0.8890   -0.2640 h1        1 3RX      0.073500
     43 HAIA       -2.4550    0.8530    0.7640 h1        1 3RX      0.073500
     44 HAJ         3.1400   -1.5650    4.5180 hc        1 3RX      0.085500
     45 HAJA        3.7890   -3.0060    4.2670 hc        1 3RX      0.085500
     46 HAK        -5.3930    2.5440   -4.7690 hc        1 3RX      0.079500
     47 HAKA       -4.2360    1.5890   -5.3180 hc        1 3RX      0.079500
     48 HAL        -5.9580    2.0330   -2.5030 hc        1 3RX      0.079875
     49 HALA       -5.0930    0.8200   -1.9270 hc        1 3RX      0.079875
     50 HAM        -4.6050    3.9540   -2.9820 hc        1 3RX      0.079875
     51 HAMA       -3.0670    3.6780   -2.6610 hc        1 3RX      0.079875
     52 HAN        -3.1500   -0.1950   -4.3960 hc        1 3RX      0.079875
     53 HANA       -3.5300   -0.5350   -2.8750 hc        1 3RX      0.079875
     54 HAO        -2.0360    1.4370   -4.8380 hc        1 3RX      0.079875
     55 HAOA       -1.5100    2.3760   -3.6510 hc        1 3RX      0.079875
     56 HNAP       -1.4980   -0.9150    2.4260 hn        1 3RX      0.151000
     57 HNAQ       -3.8200    0.3160   -0.7780 hn        1 3RX      0.153000
     58 HAT        -5.6480    0.6320   -3.9950 hc        1 3RX      0.087500
     59 HAU        -3.5930    3.5740   -4.7540 hc        1 3RX      0.087500
     60 HAV        -4.4530    2.7740   -1.2810 hc        1 3RX      0.095000
     61 HAW        -1.6820    0.3700   -3.0680 hc        1 3RX      0.095000
     62 HAX        -1.9830    1.9080   -1.7330 h1        1 3RX      0.097000
@<TRIPOS>BOND
     1    1   18 1   
     2    1   25 1   
     3    1   26 1   
     4    1   27 1   
     5    2   18 1   
     6    2   28 1   
     7    2   29 1   
     8    2   30 1   
     9    3   19 1   
    10    3   31 1   
    11    3   32 1   
    12    3   33 1   
    13    4   18 1   
    14    4   34 1   
    15    5   19 1   
    16    5   35 1   
    17    6   10 1   
    18    6   36 1   
    19    6   37 1   
    20    7   16 1   
    21    7   38 1   
    22    7   39 1   
    23    8    9 1   
    24    8   16 1   
    25    8   40 1   
    26    8   41 1   
    27    9   17 1   
    28    9   42 1   
    29    9   43 1   
    30   10   19 1   
    31   10   44 1   
    32   10   45 1   
    33   11   20 1   
    34   11   21 1   
    35   11   46 1   
    36   11   47 1   
    37   12   20 1   
    38   12   22 1   
    39   12   48 1   
    40   12   49 1   
    41   13   21 1   
    42   13   22 1   
    43   13   50 1   
    44   13   51 1   
    45   14   20 1   
    46   14   23 1   
    47   14   52 1   
    48   14   53 1   
    49   15   21 1   
    50   15   23 1   
    51   15   54 1   
    52   15   55 1   
    53   16   56 1   
    54   17   24 1   
    55   17   57 1   
    56   20   58 1   
    57   21   59 1   
    58   22   24 1   
    59   22   60 1   
    60   23   24 1   
    61   23   61 1   
    62   24   62 1   
@<TRIPOS>SUBSTRUCTURE
     1 3RX         1 TEMP              0 ****  ****    0 ROOT
