@<TRIPOS>MOLECULE
3RX
   62    64     1     0     0
SMALL
bcc


@<TRIPOS>ATOM
      1 CAA        -7.8940    2.2660   -1.6150 c3        1 3RX     -0.058400
      2 CAB        -9.6570    2.1180    0.1720 c3        1 3RX     -0.058400
      3 CAC        -4.4700   -2.2050   -0.8610 c3        1 3RX     -0.061900
      4 CAD        -7.6270    0.7170    0.2960 c2        1 3RX     -0.178200
      5 CAE        -3.1970   -0.9080    0.8210 c2        1 3RX     -0.178200
      6 CAF        -6.3210    0.2180   -0.1940 c3        1 3RX     -0.042200
      7 CAG        -1.8960   -1.4590    0.3370 c3        1 3RX      0.197000
      8 CAH         0.5050   -1.2150    0.2760 c3        1 3RX      0.158800
      9 CAI         1.7080   -0.3850    0.7750 c3        1 3RX      0.161800
     10 CAJ        -5.6590   -0.7170    0.8020 c3        1 3RX     -0.039200
     11 CAK         7.2470    0.7270   -0.8150 c3        1 3RX     -0.070400
     12 CAL         5.5480    1.9410    0.5420 c3        1 3RX     -0.067900
     13 CAM         4.8770    0.8190   -1.5780 c3        1 3RX     -0.067900
     14 CAN         6.5030   -0.2020    1.3720 c3        1 3RX     -0.067900
     15 CAO         5.8320   -1.3220   -0.7480 c3        1 3RX     -0.067900
     16 NAP        -0.7320   -0.8080    0.9120 n3        1 3RX     -0.822200
     17 NAQ         2.9440   -0.8000    0.1440 n3        1 3RX     -0.826200
     18 CAR        -8.3510    1.6460   -0.3470 c2        1 3RX     -0.123400
     19 CAS        -4.3730   -1.2590    0.2770 c2        1 3RX     -0.120400
     20 CAT         6.8050    1.0800    0.6020 c3        1 3RX     -0.061700
     21 CAU         6.1340   -0.0420   -1.5200 c3        1 3RX     -0.061700
     22 CAV         4.4320    1.1790   -0.1660 c3        1 3RX     -0.059200
     23 CAW         5.3930   -0.9780    0.6700 c3        1 3RX     -0.059200
     24 CAX         4.1180   -0.0990    0.6520 c3        1 3RX      0.187500
     25 HAA        -8.6870    2.9160   -2.0590 hc        1 3RX      0.040533
     26 HAAA       -6.9850    2.8930   -1.4320 hc        1 3RX      0.040533
     27 HAAB       -7.6230    1.4770   -2.3610 hc        1 3RX      0.040533
     28 HAB        -9.6300    3.2250    0.3300 hc        1 3RX      0.040533
     29 HABA      -10.4670    1.8910   -0.5650 hc        1 3RX      0.040533
     30 HABB       -9.9160    1.6290    1.1430 hc        1 3RX      0.040533
     31 HAC        -3.8690   -3.1270   -0.6560 hc        1 3RX      0.042367
     32 HACA       -5.5290   -2.5100   -1.0470 hc        1 3RX      0.042367
     33 HACB       -4.0710   -1.7310   -1.7930 hc        1 3RX      0.042367
     34 HAD        -7.9910    0.2770    1.2390 ha        1 3RX      0.122000
     35 HAE        -3.1590   -0.2080    1.6720 ha        1 3RX      0.134000
     36 HAF        -6.4680   -0.3190   -1.1720 hc        1 3RX      0.049200
     37 HAFA       -5.6390    1.0870   -0.4030 hc        1 3RX      0.049200
     38 HAG        -1.8400   -2.5520    0.6230 h1        1 3RX      0.037200
     39 HAGA       -1.8860   -1.4200   -0.7960 h1        1 3RX      0.037200
     40 HAH         0.4530   -1.1380   -0.8510 h1        1 3RX      0.035200
     41 HAHA        0.6680   -2.3010    0.5290 h1        1 3RX      0.035200
     42 HAI         1.5470    0.7000    0.5160 h1        1 3RX      0.034700
     43 HAIA        1.7550   -0.4570    1.9030 h1        1 3RX      0.034700
     44 HAJ        -5.4880   -0.1680    1.7660 hc        1 3RX      0.047700
     45 HAJA       -6.3500   -1.5750    1.0260 hc        1 3RX      0.047700
     46 HAKA        8.1770    0.1040   -0.7780 hc        1 3RX      0.039700
     47 HAL         5.2270    2.2180    1.5790 hc        1 3RX      0.042700
     48 HALA        5.7650    2.8880   -0.0150 hc        1 3RX      0.042700
     49 HAM         5.0900    1.7570   -2.1530 hc        1 3RX      0.042700
     50 HAMA        4.0610    0.2660   -2.1090 hc        1 3RX      0.042700
     51 HAN         7.4250   -0.8370    1.4270 hc        1 3RX      0.042700
     52 HANA        6.1940    0.0480    2.4190 hc        1 3RX      0.042700
     53 HAO         5.0310   -1.9010   -1.2730 hc        1 3RX      0.042700
     54 HAOA        6.7500   -1.9640   -0.7080 hc        1 3RX      0.042700
     55 HNAP       -0.8350    0.1890    0.8820 hn        1 3RX      0.357800
     56 HNAQ        3.0660   -1.7920    0.2230 hn        1 3RX      0.360800
     57 HAT         7.6240    1.6450    1.1210 hc        1 3RX      0.047700
     58 HAU         6.4600   -0.3020   -2.5620 hc        1 3RX      0.047700
     59 HAV         3.5150    1.8250   -0.2180 hc        1 3RX      0.047200
     60 HAW         5.1910   -1.9250    1.2390 hc        1 3RX      0.047200
     61 HAX         3.9370    0.2350    1.7230 h1        1 3RX      0.025700
     62 HAK         7.4810    1.6630   -1.3830 hc        1 3RX      0.039700
@<TRIPOS>BOND
     1    1   18 1   
     2    1   25 1   
     3    1   26 1   
     4    1   27 1   
     5    2   18 1   
     6    2   28 1   
     7    2   29 1   
     8    2   30 1   
     9    3   19 1   
    10    3   31 1   
    11    3   32 1   
    12    3   33 1   
    13    4    6 1   
    14    4   18 2   
    15    4   34 1   
    16    5    7 1   
    17    5   19 2   
    18    5   35 1   
    19    6   10 1   
    20    6   36 1   
    21    6   37 1   
    22    7   16 1   
    23    7   38 1   
    24    7   39 1   
    25    8    9 1   
    26    8   16 1   
    27    8   40 1   
    28    8   41 1   
    29    9   17 1   
    30    9   42 1   
    31    9   43 1   
    32   10   19 1   
    33   10   44 1   
    34   10   45 1   
    35   11   20 1   
    36   11   21 1   
    37   11   46 1   
    38   11   62 1   
    39   12   20 1   
    40   12   22 1   
    41   12   47 1   
    42   12   48 1   
    43   13   21 1   
    44   13   22 1   
    45   13   49 1   
    46   13   50 1   
    47   14   20 1   
    48   14   23 1   
    49   14   51 1   
    50   14   52 1   
    51   15   21 1   
    52   15   23 1   
    53   15   53 1   
    54   15   54 1   
    55   16   55 1   
    56   17   24 1   
    57   17   56 1   
    58   20   57 1   
    59   21   58 1   
    60   22   24 1   
    61   22   59 1   
    62   23   24 1   
    63   23   60 1   
    64   24   61 1   
@<TRIPOS>SUBSTRUCTURE
     1 3RX         1 TEMP              0 ****  ****    0 ROOT
