@<TRIPOS>MOLECULE
3RY
   42    45     1     0     0
SMALL
bcc


@<TRIPOS>ATOM
      1 O8          0.3870    0.4550    0.1760 o         1 3RY     -0.826300
      2 C7          1.5740    0.0760   -0.0070 c         1 3RY      0.913200
      3 O1          2.3130   -0.3340    0.9450 o         1 3RY     -0.826300
      4 C5          2.1200    0.1200   -1.4290 ca        1 3RY     -0.150600
      5 C4          3.4620   -0.1720   -1.7880 ca        1 3RY      0.123600
      6 C3          3.8610   -0.0800   -3.1380 ca        1 3RY     -0.145000
      7 C2          2.9430    0.2900   -4.1150 ca        1 3RY     -0.137000
      8 C1          1.6220    0.5700   -3.7700 ca        1 3RY     -0.163000
      9 C6          1.2240    0.4830   -2.4390 ca        1 3RY     -0.095000
     10 N11         4.3670   -0.6240   -0.7930 nu        1 3RY     -0.653600
     11 C13         5.6370   -0.1470   -0.6580 ce        1 3RY      0.816500
     12 N14         6.5020    0.3590   -1.4930 nf        1 3RY     -0.661100
     13 C15         7.7730    0.6230   -0.8410 c         1 3RY      0.743700
     14 S17         6.3610   -0.2730    1.0980 sx        1 3RY      0.270400
     15 O18         8.7130    1.1530   -1.4500 o         1 3RY     -0.577100
     16 C16         7.7780    0.2020    0.5650 ce        1 3RY     -0.950400
     17 C19         9.0540    0.2320    1.2930 c3        1 3RY      0.098100
     18 C21         9.8050   -1.0640    1.2330 ca        1 3RY     -0.061300
     19 C22        10.4310   -1.3910    0.0450 ca        1 3RY     -0.125000
     20 C23        11.1770   -2.5820   -0.0860 ca        1 3RY     -0.119000
     21 C24        11.2970   -3.4420    0.9770 ca        1 3RY     -0.142000
     22 C25        10.6650   -3.1450    2.2120 ca        1 3RY     -0.038000
     23 C26         9.9050   -1.9500    2.3490 ca        1 3RY     -0.032000
     24 C39        10.7800   -4.0360    3.3160 ca        1 3RY     -0.122000
     25 C38        10.1620   -3.7600    4.5090 ca        1 3RY     -0.136000
     26 C37         9.3990   -2.5770    4.6500 ca        1 3RY     -0.140000
     27 C36         9.2740   -1.7000    3.6010 ca        1 3RY     -0.115000
     28 H2          4.8990   -0.2970   -3.4330 ha        1 3RY      0.147000
     29 H3          3.2680    0.3610   -5.1620 ha        1 3RY      0.115000
     30 H4          0.9000    0.8620   -4.5450 ha        1 3RY      0.114000
     31 H5          0.1850    0.7100   -2.1430 ha        1 3RY      0.161000
     32 H6          3.8940   -0.8540    0.0850 hn        1 3RY      0.497800
     33 H7          8.8920    0.5470    2.3570 hc        1 3RY      0.047700
     34 H8          9.7050    1.0270    0.8240 hc        1 3RY      0.047700
     35 H9         10.3350   -0.7100   -0.8190 ha        1 3RY      0.161000
     36 H10        11.6570   -2.8070   -1.0500 ha        1 3RY      0.126000
     37 H11        11.8770   -4.3720    0.8900 ha        1 3RY      0.121000
     38 H12        11.3730   -4.9530    3.1880 ha        1 3RY      0.123000
     39 H13        10.2480   -4.4480    5.3620 ha        1 3RY      0.123000
     40 H14         8.9030   -2.3730    5.6100 ha        1 3RY      0.126000
     41 H15         8.6710   -0.7880    3.7290 ha        1 3RY      0.132000
     42 H16         6.4330   -1.5670    1.2380 hs        1 3RY      0.208000
@<TRIPOS>BOND
     1    1    2 1   
     2    2    3 1   
     3    2    4 1   
     4    4    5 ar  
     5    4    9 ar  
     6    5    6 ar  
     7    5   10 1   
     8    6    7 ar  
     9    6   28 1   
    10    7    8 ar  
    11    7   29 1   
    12    8    9 ar  
    13    8   30 1   
    14    9   31 1   
    15   10   11 1   
    16   10   32 1   
    17   11   12 2   
    18   11   14 1   
    19   12   13 1   
    20   13   15 2   
    21   13   16 1   
    22   14   16 2   
    23   14   42 1   
    24   16   17 1   
    25   17   18 1   
    26   17   33 1   
    27   17   34 1   
    28   18   19 ar  
    29   18   23 ar  
    30   19   20 ar  
    31   19   35 1   
    32   20   21 ar  
    33   20   36 1   
    34   21   22 ar  
    35   21   37 1   
    36   22   23 ar  
    37   22   24 ar  
    38   23   27 ar  
    39   24   25 ar  
    40   24   38 1   
    41   25   26 ar  
    42   25   39 1   
    43   26   27 ar  
    44   26   40 1   
    45   27   41 1   
@<TRIPOS>SUBSTRUCTURE
     1 3RY         1 TEMP              0 ****  ****    0 ROOT
