@<TRIPOS>MOLECULE
3RY
   42    45     1     0     0
SMALL
bcc


@<TRIPOS>ATOM
      1 O8          0.3830    0.4380    0.1800 o         1 3RY     -0.826300
      2 C7          1.5710    0.0640   -0.0030 c         1 3RY      0.913200
      3 O1          2.3120   -0.3450    0.9480 o         1 3RY     -0.826300
      4 C5          2.1170    0.1120   -1.4250 ca        1 3RY     -0.150600
      5 C4          3.4590   -0.1760   -1.7850 ca        1 3RY      0.123600
      6 C3          3.8570   -0.0810   -3.1350 ca        1 3RY     -0.145000
      7 C2          2.9380    0.2880   -4.1110 ca        1 3RY     -0.137000
      8 C1          1.6170    0.5640   -3.7660 ca        1 3RY     -0.163000
      9 C6          1.2200    0.4740   -2.4350 ca        1 3RY     -0.095000
     10 N11         4.3660   -0.6270   -0.7920 nh        1 3RY     -0.653600
     11 C13         5.6340   -0.1470   -0.6560 ce        1 3RY      0.816500
     12 N14         6.4980    0.3620   -1.4900 nf        1 3RY     -0.661100
     13 C15         7.7690    0.6280   -0.8390 c         1 3RY      0.743700
     14 S17         6.3600   -0.2750    1.0990 sx        1 3RY      0.270400
     15 O18         8.7070    1.1600   -1.4480 o         1 3RY     -0.577100
     16 C16         7.7760    0.2040    0.5660 ce        1 3RY     -0.950400
     17 C19         9.0520    0.2350    1.2940 c3        1 3RY      0.098100
     18 C21         9.8050   -1.0600    1.2320 ca        1 3RY     -0.061300
     19 C22        10.4290   -1.3850    0.0420 ca        1 3RY     -0.125000
     20 C23        11.1770   -2.5740   -0.0920 ca        1 3RY     -0.119000
     21 C24        11.3010   -3.4350    0.9700 ca        1 3RY     -0.142000
     22 C25        10.6700   -3.1400    2.2080 ca        1 3RY     -0.038000
     23 C26         9.9090   -1.9460    2.3470 ca        1 3RY     -0.032000
     24 C39        10.7890   -4.0320    3.3100 ca        1 3RY     -0.122000
     25 C38        10.1730   -3.7570    4.5040 ca        1 3RY     -0.136000
     26 C37         9.4080   -2.5760    4.6480 ca        1 3RY     -0.140000
     27 C36         9.2800   -1.6980    3.6000 ca        1 3RY     -0.115000
     28 H2          4.8960   -0.2950   -3.4310 ha        1 3RY      0.147000
     29 H3          3.2630    0.3620   -5.1590 ha        1 3RY      0.115000
     30 H4          0.8930    0.8560   -4.5390 ha        1 3RY      0.114000
     31 H5          0.1800    0.6980   -2.1370 ha        1 3RY      0.161000
     32 H6          3.8930   -0.8590    0.0870 hn        1 3RY      0.497800
     33 H7          9.7010    1.0320    0.8250 hc        1 3RY      0.047700
     34 H8          8.8890    0.5480    2.3590 hc        1 3RY      0.047700
     35 H9         10.3310   -0.7020   -0.8210 ha        1 3RY      0.161000
     36 H10        11.6550   -2.7980   -1.0570 ha        1 3RY      0.126000
     37 H11        11.8820   -4.3640    0.8810 ha        1 3RY      0.121000
     38 H12        11.3830   -4.9480    3.1800 ha        1 3RY      0.123000
     39 H13        10.2610   -4.4460    5.3560 ha        1 3RY      0.123000
     40 H14         8.9140   -2.3730    5.6090 ha        1 3RY      0.126000
     41 H15         8.6760   -0.7880    3.7300 ha        1 3RY      0.132000
     42 H16         6.4350   -1.5690    1.2370 hs        1 3RY      0.208000
@<TRIPOS>BOND
     1    1    2 1   
     2    2    3 1   
     3    2    4 1   
     4    4    5 ar  
     5    4    9 ar  
     6    5    6 ar  
     7    5   10 1   
     8    6    7 ar  
     9    6   28 1   
    10    7    8 ar  
    11    7   29 1   
    12    8    9 ar  
    13    8   30 1   
    14    9   31 1   
    15   10   11 1   
    16   10   32 1   
    17   11   12 2   
    18   11   14 1   
    19   12   13 1   
    20   13   15 2   
    21   13   16 1   
    22   14   16 2   
    23   14   42 1   
    24   16   17 1   
    25   17   18 1   
    26   17   33 1   
    27   17   34 1   
    28   18   19 ar  
    29   18   23 ar  
    30   19   20 ar  
    31   19   35 1   
    32   20   21 ar  
    33   20   36 1   
    34   21   22 ar  
    35   21   37 1   
    36   22   23 ar  
    37   22   24 ar  
    38   23   27 ar  
    39   24   25 ar  
    40   24   38 1   
    41   25   26 ar  
    42   25   39 1   
    43   26   27 ar  
    44   26   40 1   
    45   27   41 1   
@<TRIPOS>SUBSTRUCTURE
     1 3RY         1 TEMP              0 ****  ****    0 ROOT
