@<TRIPOS>MOLECULE
3RZ
   32    34     1     0     0
SMALL
bcc


@<TRIPOS>ATOM
      1 C1          1.7670    3.0960   -1.0860 c3        1 3RZ     -0.138400
      2 N2          3.3650    1.2700   -0.7310 nb        1 3RZ     -0.793000
      3 C3          3.6500   -0.0010   -0.3640 ca        1 3RZ      0.711200
      4 N4          4.9450   -0.4640   -0.5210 nh        1 3RZ     -0.945500
      5 C5          2.6070   -0.8990    0.1350 ca        1 3RZ     -0.307600
      6 C6          1.2860   -0.3540    0.1980 ca        1 3RZ      0.471600
      7 C7          0.2360   -1.1850    0.7070 ca        1 3RZ     -0.204900
      8 N8          1.0130    0.9360   -0.2030 nb        1 3RZ     -0.750000
      9 C9          2.0440    1.6770   -0.6440 ca        1 3RZ      0.712300
     10 C10         1.8040   -3.0070    1.0190 ca        1 3RZ     -0.159000
     11 C11         0.5020   -2.4760    1.1150 ca        1 3RZ     -0.044000
     12 C12         2.8360   -2.2320    0.5380 ca        1 3RZ     -0.067000
     13 O14        -1.7370   -0.7590    1.9740 o         1 3RZ     -0.591100
     14 N15        -1.7780   -0.1890   -0.2720 n         1 3RZ     -0.504400
     15 C16        -3.0440    0.4030   -0.2760 cc        1 3RZ      0.418200
     16 C17        -4.0230    0.3900    0.8060 cc        1 3RZ     -0.285300
     17 C18        -5.1270    1.0780    0.2900 cd        1 3RZ     -0.144300
     18 N19        -4.7930    1.4590   -1.0090 na        1 3RZ     -0.022600
     19 N20        -3.5690    1.0770   -1.3690 nd        1 3RZ     -0.563800
     20 H1          2.0700    3.2180   -2.1550 hc        1 3RZ      0.065700
     21 H1A         0.6830    3.3470   -0.9830 hc        1 3RZ      0.065700
     22 H1B         2.3640    3.8030   -0.4580 hc        1 3RZ      0.065700
     23 HN4         5.6550    0.1930   -0.7510 hn        1 3RZ      0.428300
     24 HN4A        5.2210   -1.2360    0.0360 hn        1 3RZ      0.428300
     25 H10         1.9840   -4.0450    1.3370 ha        1 3RZ      0.143000
     26 H11        -0.3100   -3.0960    1.5280 ha        1 3RZ      0.157000
     27 H12         3.8410   -2.6750    0.4690 ha        1 3RZ      0.130000
     28 HN15       -1.2140   -0.0330   -1.0790 hn        1 3RZ      0.338500
     29 H17        -3.8900   -0.0540    1.7880 ha        1 3RZ      0.195000
     30 H18        -6.0910    1.3160    0.7370 h4        1 3RZ      0.174000
     31 HN19       -5.3560    1.9600   -1.6530 hn        1 3RZ      0.319700
     32 C13        -1.1600   -0.6690    0.8740 c         1 3RZ      0.696700
@<TRIPOS>BOND
     1    1    9 1   
     2    1   20 1   
     3    1   21 1   
     4    1   22 1   
     5    2    3 ar  
     6    2    9 ar  
     7    3    4 1   
     8    3    5 ar  
     9    4   23 1   
    10    4   24 1   
    11    5    6 ar  
    12    5   12 ar  
    13    6    7 ar  
    14    6    8 ar  
    15    7   11 ar  
    16    7   32 1   
    17    8    9 ar  
    18   10   11 ar  
    19   10   12 ar  
    20   10   25 1   
    21   11   26 1   
    22   12   27 1   
    23   13   32 2   
    24   14   15 1   
    25   14   28 1   
    26   14   32 1   
    27   15   16 1   
    28   15   19 2   
    29   16   17 2   
    30   16   29 1   
    31   17   18 1   
    32   17   30 1   
    33   18   19 1   
    34   18   31 1   
@<TRIPOS>SUBSTRUCTURE
     1 3RZ         1 TEMP              0 ****  ****    0 ROOT
