@<TRIPOS>MOLECULE
3RZ
   32    27     1     0     0
SMALL
bcc


@<TRIPOS>ATOM
      1 C1         -1.6960   -0.3870   -3.5930 c3        1 3RZ     -0.161000
      2 N2          0.7030   -0.2770   -3.5390 n1        1 3RZ     -0.267000
      3 C3          1.9130   -0.2390   -2.9530 c1        1 3RZ      0.189000
      4 N4          2.7180   -0.3920   -4.1100 n3        1 3RZ     -0.343000
      5 C5          2.0150   -0.2780   -1.5720 c1        1 3RZ     -0.176000
      6 C6          0.8930   -0.3550   -0.8120 c1        1 3RZ      0.076000
      7 C7          0.9950   -0.3970    0.5960 c2        1 3RZ     -0.117000
      8 N8         -0.3310   -0.3930   -1.4090 n1        1 3RZ     -0.227000
      9 C9         -0.4290   -0.3550   -2.7710 c1        1 3RZ      0.088000
     10 C10         3.3840   -0.2810    0.4260 c1        1 3RZ     -0.156000
     11 C11         2.2400   -0.3600    1.2010 c1        1 3RZ     -0.046000
     12 C12         3.2840   -0.2400   -0.9550 c2        1 3RZ     -0.071000
     13 C13        -0.0650   -0.4440    1.6720 c2        1 3RZ      0.362000
     14 O14        -0.2970   -1.4870    2.2500 o         1 3RZ     -0.318000
     15 N15        -0.8300    0.7150    1.9640 n         1 3RZ     -0.279000
     16 C16        -1.8650    0.6550    2.9300 c2        1 3RZ      0.010000
     17 C17        -2.7440    1.6560    3.2260 c1        1 3RZ     -0.262000
     18 C18        -3.6200    1.1840    4.1610 c1        1 3RZ     -0.109000
     19 N19        -3.2850   -0.0930    4.4380 n2        1 3RZ     -0.169000
     20 N20        -2.1950   -0.4220    3.6730 n2        1 3RZ     -0.072000
     21 H1         -2.2410    0.4000   -3.3850 hc        1 3RZ      0.103333
     22 H1A        -2.2020   -1.2000   -3.3820 hc        1 3RZ      0.103333
     23 H1B        -1.4670   -0.3830   -4.5460 hc        1 3RZ      0.103333
     24 HN4         2.3330   -0.6080   -4.9100 hn        1 3RZ      0.223000
     25 HN4A        3.6240   -0.2750   -4.0560 hn        1 3RZ      0.223000
     26 H10         4.2600   -0.2550    0.8530 ha        1 3RZ      0.143000
     27 H11         2.3100   -0.3890    2.1740 ha        1 3RZ      0.159000
     28 H12         4.0910   -0.1840   -1.5010 ha        1 3RZ      0.130000
     29 HN15       -0.6800    1.4880    1.5040 hn        1 3RZ      0.248000
     30 H17        -2.7460    2.5530    2.8380 DU        1 3RZ      0.204000
     31 H18        -4.3590    1.6830    4.5590 DU        1 3RZ      0.204000
     32 HN19       -3.7090   -0.6420    5.0290 DU        1 3RZ      0.204000
@<TRIPOS>BOND
     1    1    9 1   
     2    1   21 1   
     3    1   22 1   
     4    1   23 1   
     5    2    9 1   
     6    3    4 1   
     7    3    5 1   
     8    4   24 1   
     9    4   25 1   
    10    5   12 1   
    11    6    7 1   
    12    6    8 1   
    13    7   11 1   
    14    7   13 1   
    15   10   12 1   
    16   10   26 1   
    17   11   27 1   
    18   12   28 1   
    19   13   14 1   
    20   13   15 1   
    21   15   16 1   
    22   15   29 1   
    23   16   17 1   
    24   16   20 1   
    25   17   18 1   
    26   18   19 1   
    27   19   20 1   
@<TRIPOS>SUBSTRUCTURE
     1 3RZ         1 TEMP              0 ****  ****    0 ROOT
