@<TRIPOS>MOLECULE
3RZ
   32    33     1     0     0
SMALL
bcc


@<TRIPOS>ATOM
      1 C1          1.1160   -1.4460   -1.0420 c3        1 3RZ     -0.160000
      2 N2          2.4660    0.3740   -0.0970 n2        1 3RZ     -0.230000
      3 C3          3.0220    1.0100    0.9860 c2        1 3RZ      0.161000
      4 N4          3.6800    2.2160    0.7860 nv        1 3RZ     -0.334000
      5 C5          2.8700    0.4760    2.3150 c2        1 3RZ     -0.150000
      6 C6          2.1020   -0.7060    2.4370 c2        1 3RZ      0.094000
      7 C7          1.8820   -1.3190    3.7660 c2        1 3RZ     -0.114000
      8 N8          1.5490   -1.3330    1.3720 n2        1 3RZ     -0.193000
      9 C9          1.7510   -0.7580    0.1450 c2        1 3RZ      0.072000
     10 C10         3.6880    2.3810    3.7020 c1        1 3RZ      0.216000
     11 C11         2.2750   -2.5650    4.0480 c2        1 3RZ     -0.127000
     12 C12         3.4780    1.1010    3.4640 c2        1 3RZ     -0.431000
     13 O14         0.0480    0.0890    4.4380 o         1 3RZ     -0.309000
     14 N15         1.6420   -0.4130    6.0260 ns        1 3RZ     -0.306000
     15 C16         1.0570    0.2920    7.0620 c2        1 3RZ      0.026000
     16 C17        -0.2380    1.1190    6.9280 c3        1 3RZ     -0.172000
     17 C18        -0.3100    1.6100    8.3610 c2        1 3RZ     -0.182000
     18 N19         0.7090    1.1460    9.0710 n2        1 3RZ     -0.049000
     19 N20         1.5240    0.3720    8.3340 n2        1 3RZ     -0.145000
     20 H1          1.3530   -2.5370   -1.0220 hc        1 3RZ      0.104667
     21 H1A         0.0070   -1.3160   -0.9820 hc        1 3RZ      0.104667
     22 H1B         1.4800   -1.0120   -2.0050 hc        1 3RZ      0.104667
     23 HN4         3.8670    2.4890   -0.1520 hn        1 3RZ      0.222000
     24 HN4A        4.3810    2.4510    1.4530 hn        1 3RZ      0.222000
     25 H10         3.8000    0.3990    4.2690 ha        1 3RZ      0.192000
     26 H11         2.1020   -3.0400    5.0240 ha        1 3RZ      0.136500
     27 H12         2.7830   -3.1950    3.3020 ha        1 3RZ      0.136500
     28 HN15        2.4790   -0.9160    6.2230 hn        1 3RZ      0.249000
     29 H17        -1.1070    0.4820    6.6340 hc        1 3RZ      0.160500
     30 H18        -0.1260    1.9430    6.1830 hc        1 3RZ      0.160500
     31 HN19       -1.0940    2.2580    8.7550 h4        1 3RZ      0.184000
     32 C13         1.1040   -0.4890    4.7350 c2        1 3RZ      0.354000
@<TRIPOS>BOND
     1    1    9 1   
     2    1   20 1   
     3    1   21 1   
     4    1   22 1   
     5    2    3 1   
     6    2    9 1   
     7    3    4 1   
     8    3    5 1   
     9    4   23 1   
    10    4   24 1   
    11    5    6 1   
    12    5   12 1   
    13    6    7 1   
    14    6    8 1   
    15    7   11 1   
    16    7   32 1   
    17    8    9 1   
    18   10   12 1   
    19   11   26 1   
    20   11   27 1   
    21   12   25 1   
    22   13   32 1   
    23   14   15 1   
    24   14   28 1   
    25   14   32 1   
    26   15   16 1   
    27   15   19 1   
    28   16   17 1   
    29   16   29 1   
    30   16   30 1   
    31   17   18 1   
    32   17   31 1   
    33   18   19 1   
@<TRIPOS>SUBSTRUCTURE
     1 3RZ         1 TEMP              0 ****  ****    0 ROOT
