@<TRIPOS>MOLECULE
3RZ
   34    36     1     0     0
SMALL
bcc


@<TRIPOS>ATOM
      1 C1         -0.2030    0.8990    0.6030 c3        1 3RZ     -0.162400
      2 N2          2.2090    0.4720    0.2530 nb        1 3RZ     -0.591000
      3 C3          3.4130    0.1600    0.7140 ca        1 3RZ      0.510200
      4 N4          4.5170    0.1000   -0.2730 n4        1 3RZ     -0.836300
      5 C5          3.6890   -0.1220    2.1150 ca        1 3RZ     -0.127400
      6 C6          2.5350   -0.0350    2.9680 ca        1 3RZ      0.394100
      7 C7          2.6890   -0.3260    4.3540 ce        1 3RZ      0.076000
      8 N8          1.2860    0.2970    2.4830 nb        1 3RZ     -0.621000
      9 C9          1.1440    0.5380    1.1720 ca        1 3RZ      0.737300
     10 C10         5.1100   -0.7320    3.9760 c2        1 3RZ      0.021800
     11 C11         3.9820   -0.6900    4.9000 c3        1 3RZ     -0.157000
     12 C12         4.9580   -0.4630    2.6420 ce        1 3RZ     -0.167200
     13 O14         1.5140   -1.4740    6.0190 o         1 3RZ     -0.559300
     14 N15         0.6310    0.5860    5.3860 n         1 3RZ     -0.379400
     15 C16        -0.5010    0.5550    6.2130 c2        1 3RZ      0.308900
     16 C17        -0.7870   -0.4980    7.2980 c3        1 3RZ     -0.249000
     17 C18        -2.1140    0.0720    7.7740 c2        1 3RZ      0.391200
     18 N19        -2.4320    1.1660    7.0880 ne        1 3RZ     -0.324700
     19 N20        -1.5000    1.4650    6.1700 ne        1 3RZ     -0.330700
     20 H1         -0.9820    0.9420    1.4070 hc        1 3RZ      0.115700
     21 H1A        -0.5070    0.1320   -0.1570 hc        1 3RZ      0.115700
     22 H1B        -0.1440    1.9000    0.1000 hc        1 3RZ      0.115700
     23 HN4         4.1750    0.3190   -1.2280 hn        1 3RZ      0.495467
     24 HN4A        5.2410    0.7850   -0.0160 hn        1 3RZ      0.495467
     25 H10         5.8450   -0.5190    1.9870 ha        1 3RZ      0.173000
     26 H11         6.1030   -0.9960    4.3970 ha        1 3RZ      0.215000
     27 H12         4.2280   -0.0270    5.8100 hc        1 3RZ      0.249200
     28 HN15        3.8640   -1.7110    5.4460 hc        1 3RZ      0.249200
     29 H17        -0.0100   -0.5020    8.1000 hc        1 3RZ      0.130700
     30 H18        -0.8860   -1.5280    6.8760 hc        1 3RZ      0.130700
     31 HN19       -2.7280   -0.3570    8.5730 h4        1 3RZ      0.087800
     32 H43         4.9180   -0.8490   -0.2760 hn        1 3RZ      0.495467
     33 H152        0.7040    1.3650    4.7620 hn        1 3RZ      0.359500
     34 C13         1.5240   -0.4420    5.3210 c2        1 3RZ      0.636300
@<TRIPOS>BOND
     1    1    9 1   
     2    1   20 1   
     3    1   21 1   
     4    1   22 1   
     5    2    3 ar  
     6    2    9 ar  
     7    3    4 1   
     8    3    5 ar  
     9    4   23 1   
    10    4   24 1   
    11    4   32 1   
    12    5    6 ar  
    13    5   12 1   
    14    6    7 1   
    15    6    8 ar  
    16    7   11 1   
    17    7   34 2   
    18    8    9 ar  
    19   10   11 1   
    20   10   12 2   
    21   10   26 1   
    22   11   27 1   
    23   11   28 1   
    24   12   25 1   
    25   13   34 1   
    26   14   15 1   
    27   14   33 1   
    28   14   34 1   
    29   15   16 1   
    30   15   19 2   
    31   16   17 1   
    32   16   29 1   
    33   16   30 1   
    34   17   18 2   
    35   17   31 1   
    36   18   19 1   
@<TRIPOS>SUBSTRUCTURE
     1 3RZ         1 TEMP              0 ****  ****    0 ROOT
