@<TRIPOS>MOLECULE
3RZ
   32    33     1     0     0
SMALL
bcc


@<TRIPOS>ATOM
      1 C1          0.0710   -1.5580    0.6420 c3        1 3RZ     -0.163000
      2 N2          2.1310   -0.3070    0.1740 n2        1 3RZ     -0.237000
      3 C3          3.2820    0.3020    0.6120 c2        1 3RZ      0.179000
      4 N4          4.1640    0.8230   -0.3160 nh        1 3RZ     -0.341000
      5 C5          3.6030    0.3500    2.0180 c2        1 3RZ     -0.166000
      6 C6          2.7030   -0.2820    2.9000 c2        1 3RZ      0.094000
      7 C7          2.9740   -0.2980    4.3520 c2        1 3RZ     -0.111000
      8 N8          1.5740   -0.8950    2.4660 n2        1 3RZ     -0.230000
      9 C9          1.3350   -0.8790    1.1190 c2        1 3RZ      0.085000
     10 C10         4.9620    2.2530    2.8660 c1        1 3RZ      0.237000
     11 C11         4.1110   -0.7600    4.8780 c2        1 3RZ     -0.123000
     12 C12         4.8150    1.0080    2.4630 c2        1 3RZ     -0.452000
     13 O14         2.0600    1.3280    5.8570 o         1 3RZ     -0.336000
     14 N15         0.7390   -0.4940    5.3480 n         1 3RZ     -0.281000
     15 C16        -0.3550   -0.0980    6.0960 c2        1 3RZ      0.029000
     16 C17        -0.3950    1.1760    6.9680 c3        1 3RZ     -0.174000
     17 C18        -1.8020    1.0070    7.5050 c2        1 3RZ     -0.189000
     18 N19        -2.3630   -0.0950    7.0240 n2        1 3RZ     -0.049000
     19 N20        -1.5370   -0.7580    6.1970 n2        1 3RZ     -0.143000
     20 H1          0.1150   -2.6440    0.9050 hc        1 3RZ      0.107333
     21 H1A        -0.0530   -1.4570   -0.4630 hc        1 3RZ      0.107333
     22 H1B        -0.8130   -1.0990    1.1500 hc        1 3RZ      0.107333
     23 HN4         3.8630    0.9230   -1.2570 hn        1 3RZ      0.228500
     24 HN4A        4.8330    1.4740    0.0210 hn        1 3RZ      0.228500
     25 H10         5.7260    0.3650    2.4480 ha        1 3RZ      0.196000
     26 H11         4.2980   -0.7600    5.9610 ha        1 3RZ      0.134500
     27 H12         4.9220   -1.1600    4.2520 ha        1 3RZ      0.134500
     28 HN15        0.6390   -1.3120    4.7800 hn        1 3RZ      0.275000
     29 H17         0.3870    1.1560    7.7640 hc        1 3RZ      0.157500
     30 H18        -0.2630    2.0990    6.3540 hc        1 3RZ      0.157500
     31 HN19       -2.2900    1.6980    8.1930 h4        1 3RZ      0.181000
     32 C13         1.9020    0.2640    5.2340 c2        1 3RZ      0.357000
@<TRIPOS>BOND
     1    1    9 1   
     2    1   20 1   
     3    1   21 1   
     4    1   22 1   
     5    2    3 1   
     6    2    9 1   
     7    3    4 1   
     8    3    5 1   
     9    4   23 1   
    10    4   24 1   
    11    5    6 1   
    12    5   12 1   
    13    6    7 1   
    14    6    8 1   
    15    7   11 1   
    16    7   32 1   
    17    8    9 1   
    18   10   12 1   
    19   11   26 1   
    20   11   27 1   
    21   12   25 1   
    22   13   32 1   
    23   14   15 1   
    24   14   28 1   
    25   14   32 1   
    26   15   16 1   
    27   15   19 1   
    28   16   17 1   
    29   16   29 1   
    30   16   30 1   
    31   17   18 1   
    32   17   31 1   
    33   18   19 1   
@<TRIPOS>SUBSTRUCTURE
     1 3RZ         1 TEMP              0 ****  ****    0 ROOT
