@<TRIPOS>MOLECULE
3S0
   48    49     1     0     0
SMALL
bcc


@<TRIPOS>ATOM
      1 OBD         0.1740   -0.4130   -0.1690 o         1 3S0     -0.445000
      2 CBB         1.3900   -0.4650   -0.0430 c         1 3S0      0.646100
      3 NBC         2.0780   -1.3910    0.8880 nz        1 3S0     -0.746400
      4 OBA         2.2790    0.3510   -0.6560 os        1 3S0     -0.394900
      5 CAZ         2.0030    0.7610   -2.0160 c3        1 3S0      0.163400
      6 CAT         2.3570   -0.3190   -3.0390 c3        1 3S0     -0.187000
      7 CAS         3.7080   -0.9460   -2.7390 ce        1 3S0      0.414300
      8 CAW         3.6280   -1.8190   -1.4930 c         1 3S0      0.821300
      9 OAX         4.4240   -1.6750   -0.5210 o         1 3S0     -0.837800
     10 OAY         2.6330   -2.6110   -1.4000 o         1 3S0     -0.837800
     11 NAR         4.7990   -0.8590   -3.4090 n2        1 3S0     -0.583900
     12 CAU         2.2140    0.2960   -4.4220 c3        1 3S0     -0.025300
     13 SAV         3.3790   -0.2490   -5.6250 ss        1 3S0     -0.285200
     14 CB          4.8800   -0.0920   -4.6200 c3        1 3S0      0.191600
     15 CA          6.0490   -0.4460   -5.5510 c3        1 3S0     -0.038500
     16 C           6.9870    0.8540   -5.7850 c         1 3S0      0.936600
     17 OXT         8.1950    0.5790   -6.0120 o         1 3S0     -0.756300
     18 O           6.4210    1.9570   -5.7250 o         1 3S0     -0.756300
     19 N           6.9320   -1.5600   -5.0950 ny        1 3S0     -0.638800
     20 CAJ         6.6340   -2.9150   -5.6190 c         1 3S0      0.455800
     21 OAK         5.7570   -3.0910   -6.4530 o         1 3S0     -0.408100
     22 CAF         7.5220   -4.0020   -5.0670 ce        1 3S0      0.271300
     23 NAG         8.3640   -4.7010   -5.7930 n2        1 3S0     -0.356200
     24 OAH         8.4460   -4.3700   -7.0580 os        1 3S0     -0.178300
     25 CAI         9.3890   -5.1630   -7.8260 c3        1 3S0      0.133700
     26 CAE         7.3740   -4.2850   -3.6560 cc        1 3S0      0.146400
     27 CAD         7.8900   -5.2500   -2.8050 cd        1 3S0     -0.161300
     28 OAA         6.5210   -3.4260   -2.9380 os        1 3S0     -0.371800
     29 CAB         6.5250   -3.8720   -1.6210 cc        1 3S0      0.312600
     30 CAC         7.3420   -4.9810   -1.4960 cd        1 3S0     -0.300300
     31 HBC         2.1000   -2.3340    0.3980 hn        1 3S0      0.497800
     32 HKL         1.6020   -1.4380    1.7830 hn        1 3S0      0.497800
     33 HBM         2.6800    1.6560   -2.1050 h1        1 3S0      0.091200
     34 HAZ         0.9250    1.0550   -2.1070 h1        1 3S0      0.091200
     35 H1          1.6130   -1.1680   -2.9410 hc        1 3S0      0.114700
     36 HBL         2.2740    1.4130   -4.3580 h1        1 3S0      0.078700
     37 HAU         1.2080    0.0390   -4.8430 h1        1 3S0      0.078700
     38 HB          4.9970    1.0090   -4.3640 h2        1 3S0      0.142700
     39 HA          5.6420   -0.7180   -6.5690 hx        1 3S0      0.114700
     40 H           7.8970   -1.2890   -5.4180 hn        1 3S0      0.489800
     41 HAK         9.2930   -4.7030   -8.8410 h1        1 3S0      0.062367
     42 HAI         9.0800   -6.2350   -7.8340 h1        1 3S0      0.062367
     43 HAJ        10.4210   -5.0440   -7.4220 h1        1 3S0      0.062367
     44 HAD         8.5750   -6.0540   -3.0630 ha        1 3S0      0.173000
     45 HAB         5.8890   -3.2690   -0.9610 h4        1 3S0      0.106100
     46 HAC         7.5460   -5.5540   -0.5960 ha        1 3S0      0.169000
     47 HBC3        3.0790   -1.1160    0.9740 hn        1 3S0      0.497800
     48 H2          6.9420   -1.6000   -4.0660 hn        1 3S0      0.489800
@<TRIPOS>BOND
     1    1    2 2   
     2    2    3 1   
     3    2    4 1   
     4    3   31 1   
     5    3   32 1   
     6    3   47 1   
     7    4    5 1   
     8    5    6 1   
     9    5   33 1   
    10    5   34 1   
    11    6    7 1   
    12    6   12 1   
    13    6   35 1   
    14    7    8 1   
    15    7   11 2   
    16    8    9 1   
    17    8   10 1   
    18   11   14 1   
    19   12   13 1   
    20   12   36 1   
    21   12   37 1   
    22   13   14 1   
    23   14   15 1   
    24   14   38 1   
    25   15   16 1   
    26   15   19 1   
    27   15   39 1   
    28   16   17 1   
    29   16   18 1   
    30   19   20 1   
    31   19   40 1   
    32   19   48 1   
    33   20   21 2   
    34   20   22 1   
    35   22   23 2   
    36   22   26 1   
    37   23   24 1   
    38   24   25 1   
    39   25   41 1   
    40   25   42 1   
    41   25   43 1   
    42   26   27 2   
    43   26   28 1   
    44   27   30 1   
    45   27   44 1   
    46   28   29 1   
    47   29   30 2   
    48   29   45 1   
    49   30   46 1   
@<TRIPOS>SUBSTRUCTURE
     1 3S0         1 TEMP              0 ****  ****    0 ROOT
