@<TRIPOS>MOLECULE
3S1
   32    27     1     0     0
SMALL
bcc


@<TRIPOS>ATOM
      1 C5          0.6070   -1.2800   -3.5560 c1        1 3S1     -0.131000
      2 C4          1.9900   -1.2750   -3.6330 c2        1 3S1     -0.127000
      3 C6         -0.0200   -1.0840   -2.3350 c1        1 3S1     -0.116000
      4 C9         -0.6070   -1.3410    0.8810 c1        1 3S1     -0.147000
      5 C10        -1.4680   -0.9340    1.8910 c2        1 3S1     -0.065000
      6 C3          2.7470   -1.0730   -2.4890 c1        1 3S1     -0.105000
      7 C16        -0.6630    0.8710   -0.0600 c1        1 3S1     -0.135000
      8 C8         -0.2040   -0.4380   -0.0940 c1        1 3S1     -0.003000
      9 C7          0.7370   -0.8820   -1.1920 c2        1 3S1     -0.055000
     10 C11        -1.9330    0.3900    1.9260 c1        1 3S1     -0.137000
     11 C15        -1.5340    1.2830    0.9620 c1        1 3S1      0.026000
     12 C2          2.1210   -0.8770   -1.2690 c2        1 3S1     -0.062000
     13 C14        -1.9810    2.7210    1.0390 c2        1 3S1     -0.228000
     14 C13        -2.8560    3.1710    2.1660 c1        1 3S1      0.003000
     15 C12        -2.8930    0.8460    3.0530 c2        1 3S1      0.340000
     16 C1          3.1960   -0.7360   -0.2150 c3        1 3S1      0.015000
     17 N1         -3.2670    2.2370    3.1660 n2        1 3S1     -0.300000
     18 O2         -3.3400    0.0320    3.8360 o         1 3S1     -0.362000
     19 O1          4.0070   -1.8910   -0.2140 oh        1 3S1     -0.329000
     20 H5          0.0730   -1.4230   -4.3610 DU        1 3S1      0.142750
     21 H4          2.4320   -1.4130   -4.4920 ha        1 3S1      0.134000
     22 H6         -0.9950   -1.0880   -2.2810 DU        1 3S1      0.142750
     23 H9         -0.2840   -2.2620    0.8570 DU        1 3S1      0.142750
     24 H10        -1.7510   -1.5690    2.5760 ha        1 3S1      0.160000
     25 H3          3.7220   -1.0700   -2.5440 DU        1 3S1      0.142750
     26 H16        -0.3790    1.5050   -0.7450 ha        1 3S1      0.144000
     27 H14        -1.6990    3.3580    0.3550 ha        1 3S1      0.151000
     28 H13        -3.1080    4.1110    2.2430 ha        1 3S1      0.150000
     29 H1          3.7470    0.0490   -0.4130 h1        1 3S1      0.078000
     30 H1A         2.7790   -0.6290    0.6650 h1        1 3S1      0.078000
     31 HO1         4.6230   -1.8190    0.4240 ho        1 3S1      0.204000
     32 H141       -3.8000    2.5110    3.8530 hn        1 3S1      0.248000
@<TRIPOS>BOND
     1    1    2 1   
     2    1    3 1   
     3    2    6 1   
     4    2   21 1   
     5    3    9 1   
     6    4    5 1   
     7    4    8 1   
     8    5   10 1   
     9    5   24 1   
    10    6   12 1   
    11    7   11 1   
    12    7   26 1   
    13    8    9 1   
    14    9   12 1   
    15   10   15 1   
    16   11   13 1   
    17   12   16 1   
    18   13   14 1   
    19   13   27 1   
    20   14   28 1   
    21   15   17 1   
    22   15   18 1   
    23   16   19 1   
    24   16   29 1   
    25   16   30 1   
    26   17   32 1   
    27   19   31 1   
@<TRIPOS>SUBSTRUCTURE
     1 3S1         1 TEMP              0 ****  ****    0 ROOT
