@<TRIPOS>MOLECULE
3S1
   32    34     1     0     0
SMALL
bcc


@<TRIPOS>ATOM
      1 C5         -0.0270   -0.0910    0.0050 ca        1 3S1     -0.130000
      2 C4          1.3670   -0.0590   -0.0330 ca        1 3S1     -0.127000
      3 C6         -0.6890   -0.0820    1.2300 ca        1 3S1     -0.118000
      4 C9         -0.4890   -1.0410    4.6620 ca        1 3S1     -0.149000
      5 C10        -1.2080   -1.0430    5.8470 ca        1 3S1     -0.065000
      6 C3          2.0940   -0.0190    1.1550 ca        1 3S1     -0.104000
      7 C16        -1.6600    0.9530    3.9340 ca        1 3S1     -0.134000
      8 C8         -0.7090   -0.0390    3.6960 cp        1 3S1     -0.001000
      9 C7          0.0330   -0.0480    2.4320 cp        1 3S1     -0.049000
     10 C11        -2.1590   -0.0410    6.0940 ca        1 3S1     -0.157600
     11 C15        -2.3920    0.9660    5.1340 ca        1 3S1      0.015200
     12 C2          1.4380   -0.0140    2.3910 ca        1 3S1     -0.069300
     13 C14        -3.3760    1.9790    5.4140 cc        1 3S1     -0.215200
     14 C13        -4.0630    1.9500    6.5920 cd        1 3S1      0.005600
     15 C12        -2.9140   -0.0490    7.3610 c         1 3S1      0.703100
     16 C1          2.2300    0.0190    3.6590 c3        1 3S1      0.172700
     17 N1         -3.8540    0.9760    7.5470 ns        1 3S1     -0.456100
     18 O2         -2.7730   -0.8950    8.2640 o         1 3S1     -0.637500
     19 O1          3.5120    0.5710    3.3920 oh        1 3S1     -0.600800
     20 H5         -0.6050   -0.1230   -0.9300 ha        1 3S1      0.133000
     21 H4          1.8930   -0.0620   -0.9980 ha        1 3S1      0.134000
     22 H6         -1.7880   -0.1040    1.2630 ha        1 3S1      0.136000
     23 H10        -1.0470   -1.8250    6.6070 ha        1 3S1      0.159000
     24 H3          3.1950    0.0200    1.1330 ha        1 3S1      0.154000
     25 H16        -1.8410    1.7340    3.1810 ha        1 3S1      0.144000
     26 H14        -3.5610    2.7650    4.6720 ha        1 3S1      0.151000
     27 H13        -4.8270    2.7080    6.8450 h4        1 3S1      0.150000
     28 H1          1.6990    0.6360    4.4350 h1        1 3S1      0.037200
     29 H1A         2.3530   -1.0300    4.0510 h1        1 3S1      0.037200
     30 HO1         3.9470    0.6630    4.2480 ho        1 3S1      0.404000
     31 H141       -4.3770    0.9910    8.3940 hn        1 3S1      0.334500
     32 H9          0.2520   -1.8290    4.4630 ha        1 3S1      0.142000
@<TRIPOS>BOND
     1    1    2 ar  
     2    1    3 ar  
     3    1   20 1   
     4    2    6 ar  
     5    2   21 1   
     6    3    9 ar  
     7    3   22 1   
     8    4    5 ar  
     9    4    8 ar  
    10    4   32 1   
    11    5   10 ar  
    12    5   23 1   
    13    6   12 ar  
    14    6   24 1   
    15    7    8 ar  
    16    7   11 ar  
    17    7   25 1   
    18    8    9 1   
    19    9   12 ar  
    20   10   11 ar  
    21   10   15 1   
    22   11   13 1   
    23   12   16 1   
    24   13   14 2   
    25   13   26 1   
    26   14   17 1   
    27   14   27 1   
    28   15   17 1   
    29   15   18 2   
    30   16   19 1   
    31   16   28 1   
    32   16   29 1   
    33   17   31 1   
    34   19   30 1   
@<TRIPOS>SUBSTRUCTURE
     1 3S1         1 TEMP              0 ****  ****    0 ROOT
