@<TRIPOS>MOLECULE
3S1
   32    34     1     0     0
SMALL
bcc


@<TRIPOS>ATOM
      1 C5          3.6730   -2.0620    0.7200 ca        1 3S1     -0.130000
      2 C4          4.6090   -1.1280    0.2770 ca        1 3S1     -0.127000
      3 C6          2.3180   -1.7430    0.7150 ca        1 3S1     -0.118000
      4 C9         -0.0580    0.9040    1.0110 ca        1 3S1     -0.149000
      5 C10        -1.4190    1.1630    1.0410 ca        1 3S1     -0.065000
      6 C3          4.1870    0.1230   -0.1670 ca        1 3S1     -0.104000
      7 C16        -0.4360   -1.0330   -0.3950 ca        1 3S1     -0.134000
      8 C8          0.4440   -0.1960    0.2890 cp        1 3S1     -0.001000
      9 C7          1.8810   -0.4840    0.2760 cp        1 3S1     -0.049000
     10 C11        -2.3080    0.3280    0.3460 ca        1 3S1     -0.157600
     11 C15        -1.8190   -0.7790   -0.3780 ca        1 3S1      0.015200
     12 C2          2.8270    0.4550   -0.1700 ca        1 3S1     -0.069300
     13 C14        -2.7550   -1.6190   -1.0790 cc        1 3S1     -0.215200
     14 C13        -4.0890   -1.3360   -1.0320 cd        1 3S1      0.005600
     15 C12        -3.7540    0.6140    0.3790 c         1 3S1      0.703100
     16 C1          2.3880    1.8040   -0.6400 c3        1 3S1      0.172700
     17 N1         -4.5920   -0.2580   -0.3320 n         1 3S1     -0.456100
     18 O2         -4.2730    1.5700    0.9880 o         1 3S1     -0.637500
     19 O1          3.3800    2.3430   -1.5030 oh        1 3S1     -0.600800
     20 H5          4.0020   -3.0510    1.0710 ha        1 3S1      0.133000
     21 H4          5.6800   -1.3780    0.2760 ha        1 3S1      0.134000
     22 H6          1.5760   -2.4790    1.0610 ha        1 3S1      0.136000
     23 H10        -1.8230    2.0180    1.6070 ha        1 3S1      0.159000
     24 H3          4.9190    0.8610   -0.5300 ha        1 3S1      0.154000
     25 H16        -0.0510   -1.8980   -0.9560 ha        1 3S1      0.144000
     26 H14        -2.3810   -2.4820   -1.6440 ha        1 3S1      0.151000
     27 H13        -4.8390   -1.9560   -1.5560 h4        1 3S1      0.150000
     28 H1          1.4060    1.7290   -1.1830 h1        1 3S1      0.037200
     29 H1A         2.2600    2.4870    0.2470 h1        1 3S1      0.037200
     30 HO1         3.0120    3.1610   -1.8570 ho        1 3S1      0.404000
     31 H141       -5.5720   -0.0860   -0.3230 hn        1 3S1      0.334500
     32 H9          0.6400    1.5540    1.5620 ha        1 3S1      0.142000
@<TRIPOS>BOND
     1    1    2 ar  
     2    1    3 ar  
     3    1   20 1   
     4    2    6 ar  
     5    2   21 1   
     6    3    9 ar  
     7    3   22 1   
     8    4    5 ar  
     9    4    8 ar  
    10    4   32 1   
    11    5   10 ar  
    12    5   23 1   
    13    6   12 ar  
    14    6   24 1   
    15    7    8 ar  
    16    7   11 ar  
    17    7   25 1   
    18    8    9 1   
    19    9   12 ar  
    20   10   11 ar  
    21   10   15 1   
    22   11   13 1   
    23   12   16 1   
    24   13   14 2   
    25   13   26 1   
    26   14   17 1   
    27   14   27 1   
    28   15   17 1   
    29   15   18 2   
    30   16   19 1   
    31   16   28 1   
    32   16   29 1   
    33   17   31 1   
    34   19   30 1   
@<TRIPOS>SUBSTRUCTURE
     1 3S1         1 TEMP              0 ****  ****    0 ROOT
