@<TRIPOS>MOLECULE
3S1
   32    34     1     0     0
SMALL
bcc


@<TRIPOS>ATOM
      1 C5         -0.0310   -0.1090    0.0060 ca        1 3S1     -0.130000
      2 C4          1.3620   -0.0700   -0.0340 ca        1 3S1     -0.127000
      3 C6         -0.6910   -0.0960    1.2320 ca        1 3S1     -0.118000
      4 C9         -0.4830   -1.0370    4.6670 ca        1 3S1     -0.149000
      5 C10        -1.2000   -1.0370    5.8540 ca        1 3S1     -0.065000
      6 C3          2.0910   -0.0200    1.1520 ca        1 3S1     -0.104000
      7 C16        -1.6620    0.9480    3.9320 ca        1 3S1     -0.134000
      8 C8         -0.7080   -0.0410    3.6980 cp        1 3S1     -0.001000
      9 C7          0.0320   -0.0520    2.4330 cp        1 3S1     -0.050000
     10 C11        -2.1540   -0.0380    6.0980 ca        1 3S1     -0.157600
     11 C15        -2.3920    0.9640    5.1340 ca        1 3S1      0.015200
     12 C2          1.4370   -0.0120    2.3890 ca        1 3S1     -0.069300
     13 C14        -3.3800    1.9740    5.4110 cc        1 3S1     -0.215200
     14 C13        -4.0660    1.9480    6.5900 cd        1 3S1      0.005600
     15 C12        -2.9080   -0.0420    7.3650 c         1 3S1      0.703100
     16 C1          2.2300    0.0310    3.6550 c3        1 3S1      0.172700
     17 N1         -3.8510    0.9800    7.5490 n         1 3S1     -0.456100
     18 O2         -2.7620   -0.8850    8.2730 o         1 3S1     -0.637500
     19 O1          3.5100    0.5870    3.3840 oh        1 3S1     -0.600800
     20 H5         -0.6100   -0.1480   -0.9280 ha        1 3S1      0.133000
     21 H4          1.8870   -0.0760   -1.0000 ha        1 3S1      0.134000
     22 H6         -1.7910   -0.1240    1.2660 ha        1 3S1      0.136000
     23 H10        -1.0350   -1.8150    6.6170 ha        1 3S1      0.159000
     24 H3          3.1920    0.0250    1.1280 ha        1 3S1      0.154000
     25 H16        -1.8470    1.7260    3.1760 ha        1 3S1      0.144000
     26 H14        -3.5690    2.7570    4.6650 ha        1 3S1      0.151000
     27 H13        -4.8320    2.7050    6.8400 h4        1 3S1      0.150000
     28 H1          2.3580   -1.0150    4.0540 h1        1 3S1      0.037200
     29 H1A         1.6980    0.6510    4.4290 h1        1 3S1      0.037200
     30 HO1         3.9450    0.6850    4.2390 ho        1 3S1      0.404000
     31 H141       -4.3730    0.9960    8.3960 hn        1 3S1      0.334500
     32 H9          0.2610   -1.8240    4.4710 ha        1 3S1      0.142000
@<TRIPOS>BOND
     1    1    2 ar  
     2    1    3 ar  
     3    1   20 1   
     4    2    6 ar  
     5    2   21 1   
     6    3    9 ar  
     7    3   22 1   
     8    4    5 ar  
     9    4    8 ar  
    10    4   32 1   
    11    5   10 ar  
    12    5   23 1   
    13    6   12 ar  
    14    6   24 1   
    15    7    8 ar  
    16    7   11 ar  
    17    7   25 1   
    18    8    9 1   
    19    9   12 ar  
    20   10   11 ar  
    21   10   15 1   
    22   11   13 1   
    23   12   16 1   
    24   13   14 2   
    25   13   26 1   
    26   14   17 1   
    27   14   27 1   
    28   15   17 1   
    29   15   18 2   
    30   16   19 1   
    31   16   28 1   
    32   16   29 1   
    33   17   31 1   
    34   19   30 1   
@<TRIPOS>SUBSTRUCTURE
     1 3S1         1 TEMP              0 ****  ****    0 ROOT
