@<TRIPOS>MOLECULE
3S2
   45    44     1     0     0
SMALL
bcc


@<TRIPOS>ATOM
      1 C4          0.0400    0.0950    0.1870 c3        1 3S2     -0.107400
      2 C5          1.5050   -0.1430    0.5140 c3        1 3S2     -0.104400
      3 C6         -0.7740    0.1280    1.4770 c3        1 3S2      0.099800
      4 C7          2.3020   -0.1680   -0.7870 c3        1 3S2      0.109800
      5 C8          6.6120   -1.7280   -4.0650 c         1 3S2      0.557900
      6 C10         6.6610   -0.5230   -3.1270 c3        1 3S2     -0.076300
      7 N12        -2.2310    0.3620    1.2390 n4        1 3S2     -0.757000
      8 C1         -3.0020    0.3920    2.5080 c3        1 3S2      0.076100
      9 C2          8.1260   -0.7730   -1.1580 c3        1 3S2     -0.106400
     10 C3          6.6610   -0.8010   -0.7090 c3        1 3S2      0.065000
     11 C9          8.1140   -0.2090   -2.5970 c3        1 3S2      0.180500
     12 C11         4.5240   -0.3670   -1.9400 c         1 3S2      0.640100
     13 N13         3.7630   -0.3810   -0.5800 n4        1 3S2     -0.670800
     14 N14         9.2230   -0.6410   -3.4050 n3        1 3S2     -0.960800
     15 N15         5.8400   -0.7110   -1.9150 n         1 3S2     -0.406800
     16 O16        11.5080    1.2090   -3.5250 o         1 3S2     -0.574067
     17 O17         7.2450   -1.7110   -5.1150 o         1 3S2     -0.460100
     18 O18         3.8100   -0.1090   -2.9130 o         1 3S2     -0.484100
     19 O19        10.6310    0.8540   -1.3860 o         1 3S2     -0.574067
     20 O20        11.9720   -0.7930   -2.3570 o         1 3S2     -0.693867
     21 S21        11.3780    0.4180   -2.4390 s4        1 3S2      1.814000
     22 H4         -0.3300   -0.7250   -0.4870 hc        1 3S2      0.083700
     23 H4A        -0.0660    1.0670   -0.3670 hc        1 3S2      0.083700
     24 H5          1.6170   -1.1170    1.0620 hc        1 3S2      0.077700
     25 H5A         1.8780    0.6750    1.1880 hc        1 3S2      0.077700
     26 H6         -0.4000    0.9540    2.1500 hx        1 3S2      0.115700
     27 H6A        -0.6700   -0.8530    2.0270 hx        1 3S2      0.115700
     28 H7          2.1750    0.8080   -1.3430 hx        1 3S2      0.126700
     29 H7A         1.9290   -0.9940   -1.4620 hx        1 3S2      0.126700
     30 H8          5.9760   -2.5840   -3.7590 h4        1 3S2      0.031200
     31 H10         6.2750    0.3670   -3.7090 h1        1 3S2      0.120700
     32 HN12       -2.6000   -0.3830    0.6350 hn        1 3S2      0.460800
     33 H1         -2.8920   -0.5920    3.0410 hx        1 3S2      0.121033
     34 H1A        -2.6210    1.2200    3.1640 hx        1 3S2      0.121033
     35 H1B        -4.0880    0.5700    2.2710 hx        1 3S2      0.121033
     36 H2          8.7430   -0.1070   -0.4950 hc        1 3S2      0.116200
     37 H2A         8.5620   -1.8030   -1.1150 hc        1 3S2      0.116200
     38 H3          6.4240   -1.7610   -0.1730 h1        1 3S2      0.061200
     39 H3A         6.4570    0.0670   -0.0210 h1        1 3S2      0.061200
     40 H9          8.1930    0.9210   -2.5320 h1        1 3S2      0.105700
     41 HN13        3.9210   -1.2780   -0.1110 hn        1 3S2      0.455800
     42 HN14        9.1370   -0.3040   -4.3500 hn        1 3S2      0.407300
     43 H122       -2.3550    1.2570    0.7460 hn        1 3S2      0.460800
     44 H132        4.1420    0.3640    0.0130 hn        1 3S2      0.455800
     45 H142        9.3260   -1.6400   -3.4160 hn        1 3S2      0.407300
@<TRIPOS>BOND
     1    1    2 1   
     2    1    3 1   
     3    1   22 1   
     4    1   23 1   
     5    2    4 1   
     6    2   24 1   
     7    2   25 1   
     8    3    7 1   
     9    3   26 1   
    10    3   27 1   
    11    4   13 1   
    12    4   28 1   
    13    4   29 1   
    14    5    6 1   
    15    5   17 2   
    16    5   30 1   
    17    6   11 1   
    18    6   15 1   
    19    6   31 1   
    20    7    8 1   
    21    7   32 1   
    22    7   43 1   
    23    8   33 1   
    24    8   34 1   
    25    8   35 1   
    26    9   10 1   
    27    9   11 1   
    28    9   36 1   
    29    9   37 1   
    30   10   15 1   
    31   10   38 1   
    32   10   39 1   
    33   11   14 1   
    34   11   40 1   
    35   12   13 1   
    36   12   15 1   
    37   12   18 2   
    38   13   41 1   
    39   13   44 1   
    40   14   42 1   
    41   14   45 1   
    42   16   21 1   
    43   19   21 1   
    44   20   21 2   
@<TRIPOS>SUBSTRUCTURE
     1 3S2         1 TEMP              0 ****  ****    0 ROOT
