@<TRIPOS>MOLECULE
3S2
   42    42     1     0     0
SMALL
bcc


@<TRIPOS>ATOM
      1 C4         -5.8090    0.2610   -0.0030 c3        1 3S2     -0.083400
      2 C5         -4.4820   -0.4610   -0.1000 c3        1 3S2     -0.089400
      3 C6         -6.9200   -0.6120   -0.5810 c3        1 3S2      0.160800
      4 C7         -3.3770    0.4070    0.5030 c3        1 3S2      0.086000
      5 C8          1.4970    2.0540    0.3100 c         1 3S2      0.613900
      6 C10         1.5240    0.7090    1.0160 c3        1 3S2     -0.045300
      7 N12        -8.2250    0.0200   -0.5450 n3        1 3S2     -0.826200
      8 C1         -9.3070   -0.8760   -0.8520 c3        1 3S2      0.155100
      9 C2          2.0280   -1.6530    0.6890 c3        1 3S2     -0.132400
     10 C3          0.5130   -1.4480    0.7290 c3        1 3S2      0.074000
     11 C9          2.6320   -0.2430    0.4200 c3        1 3S2      0.261500
     12 C11        -0.9450    0.5740    0.6850 c         1 3S2      0.746100
     13 N13        -2.0850   -0.2290    0.4570 n         1 3S2     -0.551900
     14 N14         2.9810   -0.0060   -0.9300 n3        1 3S2     -0.898100
     15 N15         0.2690   -0.0420    1.0280 n         1 3S2     -0.441800
     16 O16         5.4720   -0.0890   -0.6400 o         1 3S2     -0.743200
     17 O17         1.9350    3.0620    0.8610 o         1 3S2     -0.539100
     18 O18        -1.0470    1.8260    0.6150 o         1 3S2     -0.649100
     19 O19         4.4130   -1.8710   -1.7710 o         1 3S2     -0.743200
     20 O20         4.5610    0.2430   -2.8270 o         1 3S2     -0.743200
     21 S21         4.4860   -0.4600   -1.5940 s6        1 3S2      1.530700
     22 H4         -6.0290    0.5050    1.0700 hc        1 3S2      0.049200
     23 H4A        -5.7530    1.2310   -0.5620 hc        1 3S2      0.049200
     24 H5         -4.5450   -1.4420    0.4420 hc        1 3S2      0.045700
     25 H5A        -4.2500   -0.6860   -1.1730 hc        1 3S2      0.045700
     26 H6         -6.6870   -0.8330   -1.6620 h1        1 3S2      0.029200
     27 H6A        -6.9170   -1.6020   -0.0330 h1        1 3S2      0.029200
     28 H7         -3.3090    1.3790   -0.0670 h1        1 3S2      0.050700
     29 H7A        -3.6580    0.6620    1.5680 h1        1 3S2      0.050700
     30 H8          1.0780    2.0690   -0.7170 h4        1 3S2      0.013200
     31 H10         1.7840    0.8910    2.1030 h1        1 3S2      0.074700
     32 HN12       -8.3740    0.4680    0.3400 hn        1 3S2      0.355800
     33 H1         -9.1640   -1.2810   -1.8880 h1        1 3S2      0.026367
     34 H1A        -9.3900   -1.7490   -0.1460 h1        1 3S2      0.026367
     35 H1B       -10.2690   -0.3000   -0.8190 h1        1 3S2      0.026367
     36 H2          2.3970   -2.0330    1.6720 hc        1 3S2      0.069700
     37 H2A         2.3210   -2.3830   -0.1060 hc        1 3S2      0.069700
     38 H3          0.0620   -1.7460   -0.2590 h1        1 3S2      0.033200
     39 H3A         0.0370   -2.0700    1.5350 h1        1 3S2      0.033200
     40 H9          3.5680   -0.1180    1.0420 h1        1 3S2      0.090700
     41 HN13       -2.0610   -1.1690    0.7830 hn        1 3S2      0.290500
     42 HN14        2.2250    0.2110   -1.5250 hn        1 3S2      0.396800
@<TRIPOS>BOND
     1    1    2 1   
     2    1    3 1   
     3    1   22 1   
     4    1   23 1   
     5    2    4 1   
     6    2   24 1   
     7    2   25 1   
     8    3    7 1   
     9    3   26 1   
    10    3   27 1   
    11    4   13 1   
    12    4   28 1   
    13    4   29 1   
    14    5    6 1   
    15    5   17 2   
    16    5   30 1   
    17    6   11 1   
    18    6   15 1   
    19    6   31 1   
    20    7    8 1   
    21    7   32 1   
    22    8   33 1   
    23    8   34 1   
    24    8   35 1   
    25    9   10 1   
    26    9   11 1   
    27    9   36 1   
    28    9   37 1   
    29   10   15 1   
    30   10   38 1   
    31   10   39 1   
    32   11   14 1   
    33   11   40 1   
    34   12   13 1   
    35   12   15 1   
    36   12   18 2   
    37   13   41 1   
    38   14   21 1   
    39   14   42 1   
    40   16   21 1   
    41   19   21 1   
    42   20   21 1   
@<TRIPOS>SUBSTRUCTURE
     1 3S2         1 TEMP              0 ****  ****    0 ROOT
