@<TRIPOS>MOLECULE
3S2
   45    44     1     0     0
SMALL
bcc


@<TRIPOS>ATOM
      1 C4          0.0460    0.0910    0.1980 c3        1 3S2     -0.107400
      2 C5          1.5120   -0.1400    0.5250 c3        1 3S2     -0.104400
      3 C6         -0.7680    0.1250    1.4890 c3        1 3S2      0.099800
      4 C7          2.3080   -0.1650   -0.7770 c3        1 3S2      0.109800
      5 C8          6.6170   -1.7170   -4.0570 c         1 3S2      0.557900
      6 C10         6.6650   -0.5120   -3.1190 c3        1 3S2     -0.076300
      7 N12        -2.2260    0.3520    1.2520 ny        1 3S2     -0.757000
      8 C1         -2.9960    0.3820    2.5210 c3        1 3S2      0.076100
      9 C2          8.1330   -0.7580   -1.1510 c3        1 3S2     -0.106400
     10 C3          6.6680   -0.7880   -0.7020 c3        1 3S2      0.065000
     11 C9          8.1180   -0.1960   -2.5910 c3        1 3S2      0.180500
     12 C11         4.5290   -0.3580   -1.9310 c         1 3S2      0.640100
     13 N13         3.7690   -0.3720   -0.5710 ny        1 3S2     -0.670800
     14 N14         9.2280   -0.6270   -3.3990 n8        1 3S2     -0.960800
     15 N15         5.8460   -0.7000   -1.9070 n         1 3S2     -0.406800
     16 O16        11.5120    1.2250   -3.5220 o         1 3S2     -0.574067
     17 O17         7.2500   -1.7000   -5.1070 o         1 3S2     -0.460100
     18 O18         3.8140   -0.1020   -2.9040 o         1 3S2     -0.484100
     19 O19        10.6360    0.8700   -1.3820 o         1 3S2     -0.574067
     20 O20        11.9770   -0.7760   -2.3530 o         1 3S2     -0.693867
     21 S21        11.3830    0.4340   -2.4350 s4        1 3S2      1.814000
     22 H4         -0.0660    1.0610   -0.3590 hc        1 3S2      0.083700
     23 H4A        -0.3220   -0.7320   -0.4730 hc        1 3S2      0.083700
     24 H5          1.8820    0.6810    1.1970 hc        1 3S2      0.077700
     25 H5A         1.6270   -1.1130    1.0750 hc        1 3S2      0.077700
     26 H6         -0.3970    0.9540    2.1590 hx        1 3S2      0.115700
     27 H6A        -0.6600   -0.8540    2.0420 hx        1 3S2      0.115700
     28 H7          2.1760    0.8090   -1.3360 hx        1 3S2      0.126700
     29 H7A         1.9380   -0.9950   -1.4490 hx        1 3S2      0.126700
     30 H8          5.9820   -2.5740   -3.7500 h4        1 3S2      0.031200
     31 H10         6.2780    0.3770   -3.7020 h1        1 3S2      0.120700
     32 HN12       -2.3540    1.2450    0.7560 hn        1 3S2      0.460800
     33 H1         -2.8820   -0.5990    3.0570 hx        1 3S2      0.121033
     34 H1A        -2.6180    1.2150    3.1740 hx        1 3S2      0.121033
     35 H1B        -4.0830    0.5560    2.2840 hx        1 3S2      0.121033
     36 H2          8.7490   -0.0920   -0.4890 hc        1 3S2      0.116200
     37 H2A         8.5700   -1.7880   -1.1080 hc        1 3S2      0.116200
     38 H3          6.4330   -1.7490   -0.1650 h1        1 3S2      0.061200
     39 H3A         6.4630    0.0800   -0.0140 h1        1 3S2      0.061200
     40 H9          8.1960    0.9340   -2.5270 h1        1 3S2      0.105700
     41 HN13        4.1460    0.3760    0.0210 hn        1 3S2      0.455800
     42 HN14        9.3320   -1.6250   -3.4100 hn        1 3S2      0.407300
     43 H122       -2.5930   -0.3970    0.6500 hn        1 3S2      0.460800
     44 H132        3.9310   -1.2680   -0.0990 hn        1 3S2      0.455800
     45 H142        9.1410   -0.2900   -4.3450 hn        1 3S2      0.407300
@<TRIPOS>BOND
     1    1    2 1   
     2    1    3 1   
     3    1   22 1   
     4    1   23 1   
     5    2    4 1   
     6    2   24 1   
     7    2   25 1   
     8    3    7 1   
     9    3   26 1   
    10    3   27 1   
    11    4   13 1   
    12    4   28 1   
    13    4   29 1   
    14    5    6 1   
    15    5   17 2   
    16    5   30 1   
    17    6   11 1   
    18    6   15 1   
    19    6   31 1   
    20    7    8 1   
    21    7   32 1   
    22    7   43 1   
    23    8   33 1   
    24    8   34 1   
    25    8   35 1   
    26    9   10 1   
    27    9   11 1   
    28    9   36 1   
    29    9   37 1   
    30   10   15 1   
    31   10   38 1   
    32   10   39 1   
    33   11   14 1   
    34   11   40 1   
    35   12   13 1   
    36   12   15 1   
    37   12   18 2   
    38   13   41 1   
    39   13   44 1   
    40   14   42 1   
    41   14   45 1   
    42   16   21 1   
    43   19   21 1   
    44   20   21 2   
@<TRIPOS>SUBSTRUCTURE
     1 3S2         1 TEMP              0 ****  ****    0 ROOT
