@<TRIPOS>MOLECULE
3S2
   42    40     1     0     0
SMALL
bcc


@<TRIPOS>ATOM
      1 C4         -3.6170    0.1970    2.2030 c3        1 3S2     -0.158000
      2 C5         -2.1750    0.4530    1.9320 c3        1 3S2     -0.194000
      3 C6         -3.9600    0.6620    3.6470 c3        1 3S2     -0.076000
      4 C7         -1.7600   -0.2740    0.6340 c3        1 3S2     -0.041000
      5 C8          3.6270   -1.6090   -1.3650 c1        1 3S2      0.210000
      6 C10         2.6070   -1.1250   -2.2110 c2        1 3S2     -0.083000
      7 N12        -5.3880    0.5230    3.8830 n3        1 3S2     -0.305000
      8 C1         -5.6440    0.5000    5.3470 c3        1 3S2     -0.121000
      9 C2          2.9670    1.2140   -2.2790 c3        1 3S2     -0.204000
     10 C3          1.8220    1.2060   -1.6470 c3        1 3S2     -0.047000
     11 C9          3.0970   -0.2090   -3.0320 c3        1 3S2      0.067000
     12 C11         0.4950   -0.7350   -0.4340 c1        1 3S2      0.357000
     13 N13        -0.4160    0.1880    0.2100 n2        1 3S2     -0.343000
     14 N14         4.4910   -0.4930   -3.3180 n3        1 3S2     -0.862000
     15 N15         1.5320   -0.2300   -1.3380 n3        1 3S2     -0.295000
     16 O16         4.9570    0.2050   -5.7990 o         1 3S2     -1.064333
     17 O17         4.0310   -2.7380   -1.4940 o         1 3S2     -0.285000
     18 O18         0.3650   -1.9230   -0.2710 o         1 3S2     -0.382000
     19 O19         4.0430   -2.0650   -5.3200 o         1 3S2     -1.064333
     20 O20         6.3700   -1.3880   -4.8580 o         1 3S2     -1.064333
     21 S21         4.9430   -0.9690   -4.8300 s6        1 3S2      2.837000
     22 H4         -3.7970   -0.7500    2.1170 hc        1 3S2      0.086000
     23 H4A        -4.1580    0.6870    1.5690 hc        1 3S2      0.086000
     24 H5         -1.6560    0.1300    2.6560 hc        1 3S2      0.086000
     25 H5A        -2.0300    1.4090    1.8300 hc        1 3S2      0.086000
     26 H6         -3.4730    0.1140    4.2880 h1        1 3S2      0.069500
     27 H6A        -3.6960    1.6180    3.7590 h1        1 3S2      0.069500
     28 H7         -1.7360   -1.2420    0.7950 h1        1 3S2      0.104000
     29 H7A        -2.4210   -0.0740   -0.0810 h1        1 3S2      0.104000
     30 H8          4.0200   -1.0290   -0.7050 ha        1 3S2      0.079000
     31 H10         2.2940   -1.9270   -2.5920 h4        1 3S2      0.147000
     32 HN12       -5.8190    1.2130    3.5160 hn        1 3S2      0.149000
     33 H1         -5.1710    1.2440    5.7710 h1        1 3S2      0.065667
     34 H1A        -6.6180    0.5890    5.5150 h1        1 3S2      0.065667
     35 H1B        -5.3240   -0.3480    5.7220 h1        1 3S2      0.065667
     36 H2          2.9830    1.9310   -2.9240 hc        1 3S2      0.098500
     37 H2A         3.7180    1.3260   -1.6230 hc        1 3S2      0.098500
     38 H3          1.1260    1.5680   -2.2150 h1        1 3S2      0.073000
     39 H3A         1.8880    1.7240   -0.8160 h1        1 3S2      0.073000
     40 H9          2.5690   -0.1920   -3.8810 h1        1 3S2      0.129000
     41 HN13       -0.1810    1.0400    0.3220 hn        1 3S2      0.196000
     42 HN14        5.0920   -0.4230   -2.6830 hn        1 3S2      0.190000
@<TRIPOS>BOND
     1    1    2 1   
     2    1    3 1   
     3    1   22 1   
     4    1   23 1   
     5    2    4 1   
     6    2   24 1   
     7    2   25 1   
     8    3    7 1   
     9    3   26 1   
    10    3   27 1   
    11    4   13 1   
    12    4   28 1   
    13    4   29 1   
    14    5   17 1   
    15    5   30 1   
    16    6   11 1   
    17    6   15 1   
    18    6   31 1   
    19    7    8 1   
    20    7   32 1   
    21    8   33 1   
    22    8   34 1   
    23    8   35 1   
    24    9   10 1   
    25    9   11 1   
    26    9   36 1   
    27    9   37 1   
    28   10   15 1   
    29   10   38 1   
    30   10   39 1   
    31   11   14 1   
    32   11   40 1   
    33   12   15 1   
    34   12   18 1   
    35   13   41 1   
    36   14   21 1   
    37   14   42 1   
    38   16   21 1   
    39   19   21 1   
    40   20   21 1   
@<TRIPOS>SUBSTRUCTURE
     1 3S2         1 TEMP              0 ****  ****    0 ROOT
