@<TRIPOS>MOLECULE
3S3
   44    45     1     0     0
SMALL
bcc


@<TRIPOS>ATOM
      1 OAK        -0.3800    0.8840    0.3120 o         1 3S3     -0.449000
      2 CAI         0.7520    0.6110   -0.0600 c         1 3S3      0.677100
      3 CAG         2.0110    1.4460    0.1010 c3        1 3S3      0.120800
      4 CAF         2.0520    2.2440    1.3690 ca        1 3S3     -0.163300
      5 CAA         2.7860    3.4390    1.3530 ca        1 3S3     -0.094500
      6 CAB         2.8600    4.2180    2.5060 ca        1 3S3     -0.134000
      7 CAC         2.2050    3.8110    3.6690 ca        1 3S3     -0.097000
      8 CAD         1.4720    2.6240    3.6810 ca        1 3S3     -0.134000
      9 CAE         1.3940    1.8370    2.5330 ca        1 3S3     -0.094500
     10 NAH         3.2750    0.6470   -0.0290 nz        1 3S3     -0.832600
     11 N          -0.4090    1.1870   -2.5270 n8        1 3S3     -0.939800
     12 CA         -0.0050   -0.1330   -2.9420 c3        1 3S3      0.130500
     13 C           0.2410   -1.0570   -1.7520 c         1 3S3      0.678100
     14 O           0.9590   -0.6240   -0.6390 os        1 3S3     -0.514200
     15 OXT        -0.0020   -2.2550   -1.6970 o         1 3S3     -0.454000
     16 CB          1.3140   -0.1320   -3.7820 c3        1 3S3      0.224600
     17 NAQ         2.3910    0.4340   -3.0400 n2        1 3S3     -0.678900
     18 SAU         0.8740    0.6440   -5.3560 ss        1 3S3     -0.374200
     19 CAT         2.4300    1.3460   -5.8420 c3        1 3S3      0.003700
     20 CAS         3.1290    2.1320   -4.7530 c3        1 3S3     -0.147000
     21 CAY         2.5160    3.5090   -4.5770 c3        1 3S3     -0.095100
     22 CAR         3.1390    1.4040   -3.4350 ce        1 3S3      0.426300
     23 CAV         4.1370    1.9250   -2.3820 c         1 3S3      0.808300
     24 OAW         3.7940    2.9580   -1.7380 o         1 3S3     -0.815800
     25 OAX         5.1300    1.2130   -2.0790 o         1 3S3     -0.815800
     26 HAG         2.0100    2.1720   -0.7940 hx        1 3S3      0.194700
     27 HAA         3.2950    3.7580    0.4220 ha        1 3S3      0.166500
     28 HAB         3.4340    5.1570    2.4940 ha        1 3S3      0.145500
     29 HAC         2.2620    4.4300    4.5780 ha        1 3S3      0.141000
     30 HAD         0.9480    2.3070    4.5960 ha        1 3S3      0.145500
     31 HAE         0.7930    0.9140    2.5390 ha        1 3S3      0.166500
     32 HBP         3.2440    0.0750   -0.8880 hn        1 3S3      0.476467
     33 HAH         3.4040    0.0430    0.7790 hn        1 3S3      0.476467
     34 HBO         4.0730    1.3070   -0.1190 hn        1 3S3      0.476467
     35 H          -1.3830    1.2150   -2.3010 hn        1 3S3      0.388800
     36 HA         -0.7890   -0.6580   -3.5730 h1        1 3S3      0.079700
     37 HB          1.5740   -1.2070   -4.0020 h2        1 3S3      0.104700
     38 HBL         2.1900    2.0110   -6.7080 h1        1 3S3      0.081200
     39 HAT         3.0980    0.5270   -6.2050 h1        1 3S3      0.081200
     40 HAS         4.2110    2.2600   -5.0560 hc        1 3S3      0.092700
     41 HBN         2.9730    4.0170   -3.6900 hc        1 3S3      0.052700
     42 HBM         1.4140    3.4290   -4.4170 hc        1 3S3      0.052700
     43 HAY         2.7010    4.1250   -5.4890 hc        1 3S3      0.052700
     44 H2         -0.1820    1.8710   -3.2240 hn        1 3S3      0.388800
@<TRIPOS>BOND
     1    1    2 2   
     2    2    3 1   
     3    2   14 1   
     4    3    4 1   
     5    3   10 1   
     6    3   26 1   
     7    4    5 ar  
     8    4    9 ar  
     9    5    6 ar  
    10    5   27 1   
    11    6    7 ar  
    12    6   28 1   
    13    7    8 ar  
    14    7   29 1   
    15    8    9 ar  
    16    8   30 1   
    17    9   31 1   
    18   10   32 1   
    19   10   33 1   
    20   10   34 1   
    21   11   12 1   
    22   11   35 1   
    23   11   44 1   
    24   12   13 1   
    25   12   16 1   
    26   12   36 1   
    27   13   14 1   
    28   13   15 2   
    29   16   17 1   
    30   16   18 1   
    31   16   37 1   
    32   17   22 2   
    33   18   19 1   
    34   19   20 1   
    35   19   38 1   
    36   19   39 1   
    37   20   21 1   
    38   20   22 1   
    39   20   40 1   
    40   21   41 1   
    41   21   42 1   
    42   21   43 1   
    43   22   23 1   
    44   23   24 1   
    45   23   25 1   
@<TRIPOS>SUBSTRUCTURE
     1 3S3         1 TEMP              0 ****  ****    0 ROOT
