@<TRIPOS>MOLECULE
3S3
   44    45     1     0     0
SMALL
bcc


@<TRIPOS>ATOM
      1 OAK        -0.4490    1.0100    0.2660 o         1 3S3     -0.449000
      2 CAI         0.6670    0.6690   -0.0980 c         1 3S3      0.677100
      3 CAG         1.9770    1.4130    0.0970 c3        1 3S3      0.120800
      4 CAF         2.0540    2.1790    1.3830 ca        1 3S3     -0.163300
      5 CAA         2.8660    3.3220    1.4020 ca        1 3S3     -0.094500
      6 CAB         2.9760    4.0690    2.5730 ca        1 3S3     -0.134000
      7 CAC         2.2790    3.6830    3.7190 ca        1 3S3     -0.097000
      8 CAD         1.4680    2.5480    3.6960 ca        1 3S3     -0.134000
      9 CAE         1.3540    1.7920    2.5290 ca        1 3S3     -0.094500
     10 NAH         3.1860    0.5330   -0.0350 n4        1 3S3     -0.832600
     11 N          -0.4180    1.3740   -2.5660 n3        1 3S3     -0.939800
     12 CA         -0.0980    0.0380   -3.0050 c3        1 3S3      0.130500
     13 C           0.0690   -0.9250   -1.8320 c         1 3S3      0.678100
     14 O           0.7990   -0.5650   -0.7020 os        1 3S3     -0.514200
     15 OXT        -0.2560   -2.1040   -1.8070 o         1 3S3     -0.454000
     16 CB          1.2290   -0.0320   -3.8280 c3        1 3S3      0.224600
     17 NAQ         2.3310    0.4440   -3.0600 n2        1 3S3     -0.678900
     18 SAU         0.8650    0.8050   -5.3900 ss        1 3S3     -0.374200
     19 CAT         2.4720    1.4100   -5.8410 c3        1 3S3      0.003700
     20 CAS         3.2060    2.1240   -4.7260 c3        1 3S3     -0.147000
     21 CAY         2.6850    3.5350   -4.5280 c3        1 3S3     -0.095100
     22 CAR         3.1490    1.3690   -3.4250 ce        1 3S3      0.426300
     23 CAV         4.1650    1.7990   -2.3480 c         1 3S3      0.808300
     24 OAW         3.8840    2.8400   -1.6860 o         1 3S3     -0.815800
     25 OAX         5.1040    1.0150   -2.0490 o         1 3S3     -0.815800
     26 HAG         2.0380    2.1560   -0.7820 hx        1 3S3      0.194700
     27 HAA         3.4090    3.6260    0.4850 ha        1 3S3      0.166500
     28 HAB         3.6120    4.9680    2.5880 ha        1 3S3      0.145500
     29 HAC         2.3660    4.2770    4.6410 ha        1 3S3      0.141000
     30 HAD         0.9120    2.2480    4.5960 ha        1 3S3      0.145500
     31 HAE         0.6920    0.9120    2.5070 ha        1 3S3      0.166500
     32 HBP         4.0280    1.1390   -0.1010 hn        1 3S3      0.476467
     33 HAH         3.1280   -0.0180   -0.9070 hn        1 3S3      0.476467
     34 HBO         3.2630   -0.0950    0.7620 hn        1 3S3      0.476467
     35 H          -1.3900    1.4630   -2.3520 hn        1 3S3      0.388800
     36 HA         -0.9070   -0.4190   -3.6570 h1        1 3S3      0.079700
     37 HB          1.4200   -1.1180   -4.0680 h2        1 3S3      0.104700
     38 HBL         3.0880    0.5550   -6.2130 h1        1 3S3      0.081200
     39 HAT         2.2880    2.1080   -6.6960 h1        1 3S3      0.081200
     40 HAS         4.2980    2.1850   -5.0130 hc        1 3S3      0.092700
     41 HBN         3.1630    3.9930   -3.6240 hc        1 3S3      0.052700
     42 HBM         1.5770    3.5270   -4.3830 hc        1 3S3      0.052700
     43 HAY         2.9230    4.1570   -5.4230 hc        1 3S3      0.052700
     44 H2         -0.1360    2.0560   -3.2450 hn        1 3S3      0.388800
@<TRIPOS>BOND
     1    1    2 2   
     2    2    3 1   
     3    2   14 1   
     4    3    4 1   
     5    3   10 1   
     6    3   26 1   
     7    4    5 ar  
     8    4    9 ar  
     9    5    6 ar  
    10    5   27 1   
    11    6    7 ar  
    12    6   28 1   
    13    7    8 ar  
    14    7   29 1   
    15    8    9 ar  
    16    8   30 1   
    17    9   31 1   
    18   10   32 1   
    19   10   33 1   
    20   10   34 1   
    21   11   12 1   
    22   11   35 1   
    23   11   44 1   
    24   12   13 1   
    25   12   16 1   
    26   12   36 1   
    27   13   14 1   
    28   13   15 2   
    29   16   17 1   
    30   16   18 1   
    31   16   37 1   
    32   17   22 2   
    33   18   19 1   
    34   19   20 1   
    35   19   38 1   
    36   19   39 1   
    37   20   21 1   
    38   20   22 1   
    39   20   40 1   
    40   21   41 1   
    41   21   42 1   
    42   21   43 1   
    43   22   23 1   
    44   23   24 1   
    45   23   25 1   
@<TRIPOS>SUBSTRUCTURE
     1 3S3         1 TEMP              0 ****  ****    0 ROOT
