@<TRIPOS>MOLECULE
3S4
   24    23     1     0     0
SMALL
bcc


@<TRIPOS>ATOM
      1 C           1.4990   -0.2670   -0.4020 c3        1 3S4     -0.113100
      2 O          -2.0470   -0.2110    2.7300 oh        1 3S4     -0.719800
      3 P          -0.4840   -3.0040    0.3980 p5        1 3S4      1.371900
      4 C1         -0.0310   -0.2320   -0.2480 c3        1 3S4      0.306800
      5 O1         -0.0460    2.9820   -0.7840 o         1 3S4     -0.907300
      6 C2         -0.3450    0.4510    1.1060 c3        1 3S4     -0.143400
      7 O2          0.6900    2.2390   -2.7230 o         1 3S4     -0.907300
      8 C3         -1.8170    0.4170    1.4810 c3        1 3S4      0.172400
      9 O3         -0.6300   -1.4660   -0.4020 os        1 3S4     -0.618200
     10 C4         -0.5840    0.6750   -1.3880 c3        1 3S4     -0.178400
     11 O4          0.9940   -3.2740    0.4900 o         1 3S4     -0.944833
     12 C5          0.0780    2.0300   -1.6220 c         1 3S4      0.901600
     13 O5         -1.1510   -2.7400    1.7310 o         1 3S4     -0.944833
     14 O6         -1.2540   -3.9090   -0.5250 o         1 3S4     -0.944833
     15 H           1.8970    0.7750   -0.4290 hc        1 3S4      0.018367
     16 HA          1.9750   -0.8260    0.4370 hc        1 3S4      0.018367
     17 HB          1.7580   -0.7800   -1.3570 hc        1 3S4      0.018367
     18 HO         -1.7550   -1.1440    2.6220 ho        1 3S4      0.487000
     19 H2          0.2490   -0.0460    1.9160 hc        1 3S4      0.038200
     20 H2A        -0.0070    1.5170    1.0240 hc        1 3S4      0.038200
     21 H3         -2.4130   -0.1050    0.6850 h1        1 3S4      0.009200
     22 H3A        -2.2170    1.4610    1.6110 h1        1 3S4      0.009200
     23 H4         -0.5140    0.0830   -2.3370 hc        1 3S4      0.017700
     24 H4A        -1.6690    0.8600   -1.1790 hc        1 3S4      0.017700
@<TRIPOS>BOND
     1    1    4 1   
     2    1   15 1   
     3    1   16 1   
     4    1   17 1   
     5    2    8 1   
     6    2   18 1   
     7    3    9 1   
     8    3   11 1   
     9    3   13 1   
    10    3   14 1   
    11    4    6 1   
    12    4    9 1   
    13    4   10 1   
    14    5   12 1   
    15    6    8 1   
    16    6   19 1   
    17    6   20 1   
    18    7   12 1   
    19    8   21 1   
    20    8   22 1   
    21   10   12 1   
    22   10   23 1   
    23   10   24 1   
@<TRIPOS>SUBSTRUCTURE
     1 3S4         1 TEMP              0 ****  ****    0 ROOT
