@<TRIPOS>MOLECULE
3S5
   20    17     1     0     0
SMALL
bcc


@<TRIPOS>ATOM
      1 N01         0.9540   -0.1210   -0.3640 nz        1 3S5     -0.901600
      2 C02         2.1120   -0.7740    0.4400 c2        1 3S5      0.733100
      3 N03         2.3340   -0.5120    1.6720 n2        1 3S5     -0.736100
      4 N04         2.7850   -1.7160   -0.3680 nv        1 3S5     -0.882800
      5 C05         2.5490    1.4490   -2.7080 c2        1 3S5     -0.246500
      6 C06         1.5320    0.9880   -3.4290 c2        1 3S5     -0.246500
      7 S07         6.5360   -0.1610   -1.6230 s4        1 3S5      1.807000
      8 O08         7.3740   -1.1810   -1.3750 o         1 3S5     -0.560733
      9 O09         6.9420    1.0410   -2.0640 o         1 3S5     -0.560733
     10 O10         5.2010   -0.3510   -1.4080 o         1 3S5     -0.680533
     11 H1          0.4370    0.5430    0.2110 hn        1 3S5      0.462467
     12 H2          0.3160   -0.8550   -0.6870 hn        1 3S5      0.462467
     13 H3          1.7330    0.0630    2.2190 hn        1 3S5      0.460400
     14 H4          3.2880   -2.4000    0.1700 hn        1 3S5      0.453300
     15 H5          2.6080    2.4950   -2.3690 ha        1 3S5      0.129750
     16 H6          3.4300    0.8370   -2.4550 ha        1 3S5      0.129750
     17 H7          0.6820    1.6190   -3.7280 ha        1 3S5      0.129750
     18 H8          1.5000   -0.0380   -3.8250 ha        1 3S5      0.129750
     19 H013        1.3350    0.3720   -1.1920 hn        1 3S5      0.462467
     20 H042        3.3570   -1.2970   -1.0830 hn        1 3S5      0.453300
@<TRIPOS>BOND
     1    1    2 1   
     2    1   11 1   
     3    1   12 1   
     4    1   19 1   
     5    2    3 2   
     6    2    4 1   
     7    3   13 1   
     8    4   14 1   
     9    4   20 1   
    10    5    6 2   
    11    5   15 1   
    12    5   16 1   
    13    6   17 1   
    14    6   18 1   
    15    7    8 1   
    16    7    9 1   
    17    7   10 2   
@<TRIPOS>SUBSTRUCTURE
     1 3S5         1 TEMP              0 ****  ****    0 ROOT
