@<TRIPOS>MOLECULE
3S6
   31    31     1     0     0
SMALL
bcc


@<TRIPOS>ATOM
      1 CAA        -0.1380    0.2200    0.2690 c2        1 3S6     -0.226000
      2 CAF         1.0300   -0.4140    0.3320 c2        1 3S6     -0.163200
      3 CAH         2.0330   -0.1480    1.3970 c3        1 3S6      0.164600
      4 OAI         3.0620   -1.1350    1.2610 os        1 3S6     -0.439600
      5 CAN         4.0820   -1.0210    2.2310 c3        1 3S6      0.302900
      6 OAJ         4.7290    0.2150    1.9560 os        1 3S6     -0.437600
      7 CAL         5.0810   -2.1770    1.9950 c3        1 3S6      0.087100
      8 OAD         5.1970   -3.0100    3.1280 oh        1 3S6     -0.586800
      9 CAM         6.4390   -1.4700    1.7780 c3        1 3S6      0.123100
     10 OAE         7.1010   -1.9690    0.6340 oh        1 3S6     -0.591800
     11 CAO         6.0740    0.0030    1.5020 c3        1 3S6      0.151100
     12 CAK         7.0130    0.9820    2.2140 c3        1 3S6      0.142100
     13 OAC         7.0910    0.6230    3.5840 oh        1 3S6     -0.600800
     14 CAG         6.5010    2.4170    2.0480 c3        1 3S6      0.094400
     15 OAB         7.4180    3.2460    2.7450 oh        1 3S6     -0.616800
     16 H1         -0.4480    0.9750    1.0030 ha        1 3S6      0.113500
     17 H2         -0.8660    0.0230   -0.5290 ha        1 3S6      0.113500
     18 H4          1.3270   -1.1730   -0.4110 ha        1 3S6      0.141000
     19 H6          2.4870    0.8730    1.2780 h1        1 3S6      0.045700
     20 H7          1.5770   -0.2310    2.4210 h1        1 3S6      0.045700
     21 H8          3.6740   -0.9740    3.2760 h2        1 3S6      0.076700
     22 H9          4.7860   -2.7730    1.0890 h1        1 3S6      0.080700
     23 H10         4.3470   -3.4540    3.2360 ho        1 3S6      0.411000
     24 H11         7.0820   -1.5690    2.6950 h1        1 3S6      0.095700
     25 H12         7.4180   -2.8520    0.8640 ho        1 3S6      0.413000
     26 H13         6.0940    0.2150    0.3970 h1        1 3S6      0.079700
     27 H14         8.0380    0.8880    1.7540 h1        1 3S6      0.056700
     28 H15         7.5350    1.3540    4.0350 ho        1 3S6      0.423000
     29 H16         6.4790    2.6960    0.9620 h1        1 3S6      0.045700
     30 H17         5.4720    2.5090    2.4860 h1        1 3S6      0.045700
     31 H18         7.0300    4.1280    2.7720 ho        1 3S6      0.409000
@<TRIPOS>BOND
     1    1    2 2   
     2    1   16 1   
     3    1   17 1   
     4    2    3 1   
     5    2   18 1   
     6    3    4 1   
     7    3   19 1   
     8    3   20 1   
     9    4    5 1   
    10    5    6 1   
    11    5    7 1   
    12    5   21 1   
    13    6   11 1   
    14    7    8 1   
    15    7    9 1   
    16    7   22 1   
    17    8   23 1   
    18    9   10 1   
    19    9   11 1   
    20    9   24 1   
    21   10   25 1   
    22   11   12 1   
    23   11   26 1   
    24   12   13 1   
    25   12   14 1   
    26   12   27 1   
    27   13   28 1   
    28   14   15 1   
    29   14   29 1   
    30   14   30 1   
    31   15   31 1   
@<TRIPOS>SUBSTRUCTURE
     1 3S6         1 TEMP              0 ****  ****    0 ROOT
