@<TRIPOS>MOLECULE
3S9
   25    25     1     0     0
SMALL
bcc


@<TRIPOS>ATOM
      1 N14        -0.9350   -0.1570   -2.2830 n1        1 3S9     -0.193800
      2 C13        -0.3680   -0.2600   -1.2740 c1        1 3S9      0.114700
      3 C12         0.2910   -0.4360    0.0040 c3        1 3S9      0.198900
      4 N11         1.5000    0.4440    0.1240 n4        1 3S9     -0.649800
      5 C9          2.0920    0.3540    1.5080 c         1 3S9      0.617100
      6 O10         1.3960    0.3900    2.5110 o         1 3S9     -0.418000
      7 O8          3.4200    0.2450    1.4330 os        1 3S9     -0.404900
      8 C7          4.1420    0.1780    2.7350 c3        1 3S9      0.224700
      9 C2          6.3430    1.2290    2.2120 ca        1 3S9     -0.085000
     10 C3          7.6990    1.1240    1.9110 ca        1 3S9     -0.129000
     11 C4          8.2850   -0.1340    1.7520 ca        1 3S9     -0.077000
     12 C5          7.5140   -1.2890    1.8950 ca        1 3S9     -0.129000
     13 C6          6.1580   -1.1900    2.1970 ca        1 3S9     -0.085000
     14 C1          5.5690    0.0710    2.3620 ca        1 3S9     -0.159300
     15 H1          0.6220   -1.5130    0.1260 hx        1 3S9      0.149700
     16 H2         -0.4210   -0.1770    0.8520 hx        1 3S9      0.149700
     17 H3          1.2360    1.4240   -0.0460 hn        1 3S9      0.480800
     18 H4          3.7500   -0.7230    3.2730 h1        1 3S9      0.086200
     19 H5          3.8930    1.1200    3.2890 h1        1 3S9      0.086200
     20 H6          5.8850    2.2210    2.3440 ha        1 3S9      0.137500
     21 H7          8.3100    2.0340    1.8020 ha        1 3S9      0.155000
     22 H8          9.3590   -0.2150    1.5170 ha        1 3S9      0.156000
     23 H9          7.9790   -2.2800    1.7740 ha        1 3S9      0.155000
     24 H10         5.5530   -2.1020    2.3160 ha        1 3S9      0.137500
     25 H112        2.2120    0.1730   -0.5690 hn        1 3S9      0.480800
@<TRIPOS>BOND
     1    1    2 3   
     2    2    3 1   
     3    3    4 1   
     4    3   15 1   
     5    3   16 1   
     6    4    5 1   
     7    4   17 1   
     8    4   25 1   
     9    5    6 2   
    10    5    7 1   
    11    7    8 1   
    12    8   14 1   
    13    8   18 1   
    14    8   19 1   
    15    9   10 ar  
    16    9   14 ar  
    17    9   20 1   
    18   10   11 ar  
    19   10   21 1   
    20   11   12 ar  
    21   11   22 1   
    22   12   13 ar  
    23   12   23 1   
    24   13   14 ar  
    25   13   24 1   
@<TRIPOS>SUBSTRUCTURE
     1 3S9         1 TEMP              0 ****  ****    0 ROOT
