@<TRIPOS>MOLECULE
3S9
   25    25     1     0     0
SMALL
bcc


@<TRIPOS>ATOM
      1 N14        -0.9170    0.2380   -2.2890 n1        1 3S9     -0.193800
      2 C13        -0.3570    0.2810   -1.2710 c1        1 3S9      0.114700
      3 C12         0.2900    0.3790    0.0210 c3        1 3S9      0.198900
      4 N11         1.5300   -0.4640    0.0780 ny        1 3S9     -0.649800
      5 C9          2.1140   -0.4630    1.4690 c         1 3S9      0.617100
      6 O10         1.4160   -0.6030    2.4610 o         1 3S9     -0.418000
      7 O8          3.4380   -0.3000    1.4110 os        1 3S9     -0.404900
      8 C7          4.1520   -0.3110    2.7180 c3        1 3S9      0.224700
      9 C2          6.1180    1.1690    2.3030 ca        1 3S9     -0.085000
     10 C3          7.4710    1.3410    2.0190 ca        1 3S9     -0.129000
     11 C4          8.2840    0.2300    1.7890 ca        1 3S9     -0.077000
     12 C5          7.7450   -1.0570    1.8430 ca        1 3S9     -0.129000
     13 C6          6.3930   -1.2360    2.1270 ca        1 3S9     -0.085000
     14 C1          5.5750   -0.1220    2.3640 ca        1 3S9     -0.159300
     15 H1          0.5810    1.4540    0.2300 hx        1 3S9      0.149700
     16 H2         -0.4140    0.0280    0.8410 hx        1 3S9      0.149700
     17 H3          1.3030   -1.4360   -0.1710 hn        1 3S9      0.480800
     18 H4          3.7260    0.5300    3.3240 h1        1 3S9      0.086200
     19 H5          3.9370   -1.3020    3.1940 h1        1 3S9      0.086200
     20 H6          5.4800    2.0450    2.4920 ha        1 3S9      0.137500
     21 H7          7.8990    2.3550    1.9810 ha        1 3S9      0.155000
     22 H8          9.3550    0.3680    1.5680 ha        1 3S9      0.156000
     23 H9          8.3890   -1.9330    1.6660 ha        1 3S9      0.155000
     24 H10         5.9710   -2.2510    2.1760 ha        1 3S9      0.137500
     25 H112        2.2350   -0.1130   -0.5870 hn        1 3S9      0.480800
@<TRIPOS>BOND
     1    1    2 3   
     2    2    3 1   
     3    3    4 1   
     4    3   15 1   
     5    3   16 1   
     6    4    5 1   
     7    4   17 1   
     8    4   25 1   
     9    5    6 2   
    10    5    7 1   
    11    7    8 1   
    12    8   14 1   
    13    8   18 1   
    14    8   19 1   
    15    9   10 ar  
    16    9   14 ar  
    17    9   20 1   
    18   10   11 ar  
    19   10   21 1   
    20   11   12 ar  
    21   11   22 1   
    22   12   13 ar  
    23   12   23 1   
    24   13   14 ar  
    25   13   24 1   
@<TRIPOS>SUBSTRUCTURE
     1 3S9         1 TEMP              0 ****  ****    0 ROOT
