@<TRIPOS>MOLECULE
3SB
   39    40     1     0     0
SMALL
bcc


@<TRIPOS>ATOM
      1 C1         -3.8090    0.0900   -0.3650 ca        1 3SB     -0.104300
      2 N1         -4.2760   -2.1000   -1.3800 n3        1 3SB     -0.880800
      3 O1         -1.5990   -2.6040   -0.7500 o         1 3SB     -0.561100
      4 C2         -3.3500   -0.9930   -1.3080 c3        1 3SB      0.156800
      5 N2         -0.9780   -0.3550   -0.8600 n         1 3SB     -0.326900
      6 O2          6.6200    0.0920    0.8220 oh        1 3SB     -0.494100
      7 C3         -1.9010   -1.4150   -0.9270 c         1 3SB      0.633100
      8 N3          0.3120   -0.5470   -0.5840 n2        1 3SB     -0.468300
      9 O3          2.3660   -2.0120    0.9270 oh        1 3SB     -0.500100
     10 C4          1.0980    0.4500   -0.2730 ce        1 3SB      0.392800
     11 C5          2.5250    0.2710   -0.0040 ca        1 3SB     -0.249900
     12 C6         -3.9860   -0.1760    0.9970 ca        1 3SB     -0.118500
     13 C7         -4.4160    0.8340    1.8560 ca        1 3SB     -0.127000
     14 C8         -4.6720    2.1130    1.3600 ca        1 3SB     -0.120000
     15 C9         -4.5010    2.3790    0.0020 ca        1 3SB     -0.127000
     16 C10        -4.0730    1.3710   -0.8610 ca        1 3SB     -0.118500
     17 C11         3.3950    1.3420   -0.3170 ca        1 3SB      0.007700
     18 C12         2.8770    2.5760   -0.9590 c3        1 3SB     -0.061800
     19 C13         4.7540    1.2610   -0.0340 ca        1 3SB     -0.201000
     20 C14         5.2710    0.0990    0.5660 ca        1 3SB      0.174100
     21 C15         4.4450   -0.9820    0.8710 ca        1 3SB     -0.266000
     22 C16         3.0710   -0.8940    0.5730 ca        1 3SB      0.219100
     23 HN1        -3.8570   -2.8680   -1.8720 hn        1 3SB      0.366300
     24 HN1A       -4.5440   -2.4070   -0.4650 hn        1 3SB      0.366300
     25 H2         -3.2830   -0.5720   -2.3600 h1        1 3SB      0.088700
     26 HN2        -1.3660    0.5730   -0.8400 hn        1 3SB      0.302500
     27 HO2         6.8460   -0.7610    1.2220 ho        1 3SB      0.424000
     28 HO3         1.4590   -1.9610    0.5890 ho        1 3SB      0.456000
     29 H4          0.7540    1.5080   -0.2080 h4        1 3SB     -0.007200
     30 H6         -3.7830   -1.1830    1.3930 ha        1 3SB      0.138500
     31 H7         -4.5540    0.6200    2.9260 ha        1 3SB      0.138000
     32 H8         -5.0130    2.9080    2.0390 ha        1 3SB      0.137000
     33 H9         -4.7100    3.3850   -0.3930 ha        1 3SB      0.138000
     34 H10        -3.9560    1.5820   -1.9350 ha        1 3SB      0.138500
     35 H12         2.2470    3.1540   -0.2360 hc        1 3SB      0.049033
     36 H12A        3.7140    3.2370   -1.2940 hc        1 3SB      0.049033
     37 H12B        2.2530    2.3230   -1.8530 hc        1 3SB      0.049033
     38 H13         5.4360    2.0890   -0.2740 ha        1 3SB      0.153000
     39 H15         4.8370   -1.8990    1.3310 ha        1 3SB      0.155000
@<TRIPOS>BOND
     1    1    4 1   
     2    1   12 ar  
     3    1   16 ar  
     4    2    4 1   
     5    2   23 1   
     6    2   24 1   
     7    3    7 2   
     8    4    7 1   
     9    4   25 1   
    10    5    7 1   
    11    5    8 1   
    12    5   26 1   
    13    6   20 1   
    14    6   27 1   
    15    8   10 2   
    16    9   22 1   
    17    9   28 1   
    18   10   11 1   
    19   10   29 1   
    20   11   17 ar  
    21   11   22 ar  
    22   12   13 ar  
    23   12   30 1   
    24   13   14 ar  
    25   13   31 1   
    26   14   15 ar  
    27   14   32 1   
    28   15   16 ar  
    29   15   33 1   
    30   16   34 1   
    31   17   18 1   
    32   17   19 ar  
    33   18   35 1   
    34   18   36 1   
    35   18   37 1   
    36   19   20 ar  
    37   19   38 1   
    38   20   21 ar  
    39   21   22 ar  
    40   21   39 1   
@<TRIPOS>SUBSTRUCTURE
     1 3SB         1 TEMP              0 ****  ****    0 ROOT
