@<TRIPOS>MOLECULE
3SB
   41    43     1     0     0
SMALL
bcc


@<TRIPOS>ATOM
      1 C1          0.0000    0.0000    0.0000 ca        1 3SB     -0.211000
      2 N1         -0.0840   -0.8950   -2.2570 nz        1 3SB      0.853000
      3 O1         -0.0120    1.7160   -2.7450 o         1 3SB     -0.155000
      4 C2         -0.7530    0.0000   -1.3050 c3        1 3SB     -0.213000
      5 N2         -1.6730    2.2950   -1.3920 ny        1 3SB      0.789000
      6 O2         -2.6800    9.6600   -3.5470 oh        1 3SB     -0.233000
      7 C3         -0.7850    1.3980   -1.8670 c2        1 3SB      0.079000
      8 N3         -1.7020    3.5950   -1.9150 n2        1 3SB     -0.383000
      9 O3         -0.7910    5.3000   -3.4960 oh        1 3SB     -0.198000
     10 C4         -2.5570    4.4590   -1.4590 c2        1 3SB     -0.251000
     11 C5         -2.5890    5.8250   -2.0080 c3        1 3SB     -0.179000
     12 C6          1.3820    0.0000    0.0000 ca        1 3SB     -0.108000
     13 C7          2.0740    0.0000    1.1970 ca        1 3SB     -0.056500
     14 C8          1.3830    0.0000    2.3940 ca        1 3SB     -0.017000
     15 C9          0.0000    0.0010    2.3950 ca        1 3SB     -0.056500
     16 C10        -0.6900    0.0060    1.1980 ca        1 3SB     -0.108000
     17 C11        -3.5080    6.7570   -1.5180 c2        1 3SB      0.118000
     18 C12        -4.4690    6.3660   -0.4270 c3        1 3SB     -0.081000
     19 C13        -3.5330    8.0340   -2.0350 c2        1 3SB     -0.208000
     20 C14        -2.6470    8.3990   -3.0420 c2        1 3SB      0.311000
     21 C15        -1.7320    7.4810   -3.5350 c2        1 3SB     -0.297000
     22 C16        -1.6910    6.1970   -3.0200 c2        1 3SB      0.222000
     23 HN1        -0.7020   -1.0970   -3.0170 hn        1 3SB      0.040333
     24 HN1A        0.1660   -1.7470   -1.7950 hn        1 3SB      0.040333
     25 H2         -1.7670   -0.3440   -1.1370 hx        1 3SB      0.143000
     26 HN2        -1.5050    2.3800   -0.4090 hn        1 3SB      0.036000
     27 HO2        -2.1060   10.2150   -3.0450 ho        1 3SB      0.248000
     28 HO3        -0.5620    5.5240   -4.3830 ho        1 3SB      0.242000
     29 H4         -1.8520    5.2390   -1.1980 DU        1 3SB      0.330000
     30 H6          1.9240    0.0220   -0.9380 ha        1 3SB      0.127000
     31 H7          3.1570    0.0280    1.1960 ha        1 3SB      0.140000
     32 H8          1.9250    0.0000    3.3320 ha        1 3SB      0.140000
     33 H9         -0.5410    0.0360    3.3330 ha        1 3SB      0.140000
     34 H10        -1.6890   -0.2410    1.5360 ha        1 3SB      0.127000
     35 H12        -3.9180    6.1510    0.4810 hc        1 3SB      0.076667
     36 H12A       -5.0220    5.4850   -0.7310 hc        1 3SB      0.076667
     37 H12B       -5.1600    7.1810   -0.2450 hc        1 3SB      0.076667
     38 H13        -4.2460    8.7560   -1.6550 ha        1 3SB      0.162000
     39 H15        -1.0480    7.7690   -4.3250 ha        1 3SB      0.159000
     40 H131        0.7420   -0.4520   -2.6080 hn        1 3SB      0.040333
     41 H22        -2.5850    1.9080   -1.5380 hn        1 3SB      0.036000
@<TRIPOS>BOND
     1    1    4 1   
     2    1   12 1   
     3    1   16 1   
     4    2    4 1   
     5    2   23 1   
     6    2   24 1   
     7    2   40 1   
     8    3    7 1   
     9    4    7 1   
    10    4   25 1   
    11    5    7 1   
    12    5    8 1   
    13    5   26 1   
    14    5   41 1   
    15    6   20 1   
    16    6   27 1   
    17    8   10 1   
    18    9   22 1   
    19    9   28 1   
    20   10   11 1   
    21   10   29 1   
    22   11   17 1   
    23   11   22 1   
    24   11   29 1   
    25   12   13 1   
    26   12   30 1   
    27   13   14 1   
    28   13   31 1   
    29   14   15 1   
    30   14   32 1   
    31   15   16 1   
    32   15   33 1   
    33   16   34 1   
    34   17   18 1   
    35   17   19 1   
    36   18   35 1   
    37   18   36 1   
    38   18   37 1   
    39   19   20 1   
    40   19   38 1   
    41   20   21 1   
    42   21   22 1   
    43   21   39 1   
@<TRIPOS>SUBSTRUCTURE
     1 3SB         1 TEMP              0 ****  ****    0 ROOT
