@<TRIPOS>MOLECULE
3SB
   41    43     1     0     0
SMALL
bcc


@<TRIPOS>ATOM
      1 C1        190.1510 -874.2750  220.9270 ca        1 3SB     -0.199000
      2 N1        190.9420 -872.1890  219.8830 n4        1 3SB     -0.065000
      3 O1        188.3700 -871.5300  219.4970 o         1 3SB     -0.371000
      4 C2        189.9580 -873.3290  219.7890 c3        1 3SB     -0.050000
      5 N2        187.4850 -873.6170  219.8650 n         1 3SB     -0.372000
      6 O2       -225.0290    0.4910 -256.3460 oh        1 3SB     -0.154000
      7 C3        188.5140 -872.7510  219.7230 c2        1 3SB      0.294000
      8 N3       -219.6520    0.0430 -259.5530 n1        1 3SB      0.098000
      9 O3       -223.0110    0.7350 -260.6530 oh        1 3SB     -0.167000
     10 C4       -220.6710    0.5660 -259.3600 c2        1 3SB     -0.184000
     11 C5       -221.9450    0.2250 -259.1400 c3        1 3SB      0.001000
     12 C6        189.7540 -873.9140  222.2220 ca        1 3SB     -0.104500
     13 C7        189.9380 -874.8040  223.2780 ca        1 3SB     -0.115000
     14 C8        190.5140 -876.0550  223.0460 ca        1 3SB     -0.072000
     15 C9        190.9070 -876.4170  221.7560 ca        1 3SB     -0.115000
     16 C10       190.7310 -875.5280  220.6950 ca        1 3SB     -0.104500
     17 C11      -222.0100    0.8400 -257.7710 c2        1 3SB      0.080000
     18 C12      -220.9070    0.7560 -257.4170 c3        1 3SB     -0.232000
     19 C13      -223.0350    0.5860 -256.9160 c2        1 3SB     -0.226000
     20 C14      -224.0890    0.6770 -257.2760 c2        1 3SB      0.338000
     21 C15      -224.1090    0.0400 -258.5360 c2        1 3SB     -0.407000
     22 C16      -223.0840    0.2790 -259.4330 c3        1 3SB      0.265000
     23 HN1       190.5590 -871.3720  219.3780 hn        1 3SB      0.264667
     24 HN1A      191.8390 -872.4660  219.4820 hn        1 3SB      0.264667
     25 H2        190.1500 -873.8470  218.7990 hx        1 3SB      0.168000
     26 HN2       186.5520 -873.2770  219.7920 hn        1 3SB      0.261000
     27 HO2      -225.7130    0.8600 -256.6510 ho        1 3SB      0.282000
     28 HO3      -223.7610    0.1270 -260.8170 ho        1 3SB      0.282000
     29 H4       -222.0330    0.0800 -259.8990 DU        1 3SB      0.214000
     30 H6        189.2800 -872.9360  222.4070 ha        1 3SB      0.145000
     31 H7        189.6230 -874.5210  224.2960 ha        1 3SB      0.166000
     32 H8        190.6560 -876.7590  223.8830 ha        1 3SB      0.167000
     33 H9        191.3580 -877.4060  221.5720 ha        1 3SB      0.166000
     34 H10       191.0410 -875.8230  219.6800 ha        1 3SB      0.145000
     35 H12      -219.9430    0.1840 -257.3470 hc        1 3SB      0.132500
     36 H12A     -221.0890    0.2590 -256.4330 hc        1 3SB      0.132500
     37 H12B     -220.7830    0.5460 -258.2020 DU        1 3SB      0.145000
     38 H13      -223.0880    0.0590 -255.9170 ha        1 3SB      0.209000
     39 H15      -224.9330    0.3530 -258.7930 ha        1 3SB      0.189000
     40 H131      191.0750 -871.9330  220.8670 hn        1 3SB      0.264667
     41 H22       187.6360 -874.5690  220.0960 hn        1 3SB      0.261000
@<TRIPOS>BOND
     1    1    4 1   
     2    1   12 1   
     3    1   16 1   
     4    2    4 1   
     5    2   23 1   
     6    2   24 1   
     7    2   40 1   
     8    3    7 1   
     9    4    7 1   
    10    4   25 1   
    11    5    7 1   
    12    5   26 1   
    13    5   41 1   
    14    6   20 1   
    15    6   27 1   
    16    8   10 1   
    17    9   22 1   
    18    9   28 1   
    19   10   11 1   
    20   10   37 1   
    21   11   17 1   
    22   11   22 1   
    23   11   29 1   
    24   12   13 1   
    25   12   30 1   
    26   13   14 1   
    27   13   31 1   
    28   14   15 1   
    29   14   32 1   
    30   15   16 1   
    31   15   33 1   
    32   16   34 1   
    33   17   18 1   
    34   17   19 1   
    35   18   35 1   
    36   18   36 1   
    37   18   37 1   
    38   19   20 1   
    39   19   38 1   
    40   20   21 1   
    41   21   22 1   
    42   21   39 1   
    43   22   29 1   
@<TRIPOS>SUBSTRUCTURE
     1 3SB         1 TEMP              0 ****  ****    0 ROOT
