@<TRIPOS>MOLECULE
3SB
   39    34     1     0     0
SMALL
bcc


@<TRIPOS>ATOM
      1 C1          1.9780   -3.1330    0.8310 c1        1 3SB     -0.128000
      2 N1          0.2810   -2.9520   -0.8660 n3        1 3SB     -0.330000
      3 O1          2.2850   -0.5860    0.0540 o         1 3SB     -0.361000
      4 C2          0.7450   -2.3620    0.3250 c3        1 3SB      0.012000
      5 N2          0.0900    0.0760   -0.1080 n         1 3SB     -0.295000
      6 O2         -2.6590    6.0300   -1.7670 oh        1 3SB     -0.244000
      7 C3          1.1210   -0.9170    0.0600 c2        1 3SB      0.336000
      8 N3         -1.0810   -0.2430   -0.7990 n2        1 3SB     -0.029000
      9 O3         -0.2910    2.3730   -2.8650 oh        1 3SB     -0.254000
     10 C4         -1.9550    0.7010   -1.0850 c1        1 3SB     -0.104000
     11 C5         -1.6920    2.1250   -0.6650 c1        1 3SB     -0.148000
     12 C6          3.2290   -3.1480    0.2320 c1        1 3SB     -0.127000
     13 C7          4.3090   -3.7110    0.8970 c1        1 3SB     -0.127000
     14 C8          4.1380   -4.2570    2.1590 c1        1 3SB     -0.127000
     15 C9          2.8890   -4.2420    2.7570 c1        1 3SB     -0.127000
     16 C10         1.8070   -3.6790    2.0930 c1        1 3SB     -0.106000
     17 C11        -2.5650    2.8620    0.1080 c2        1 3SB      0.021000
     18 C12        -3.1280    2.2710    1.3760 c3        1 3SB     -0.189000
     19 C13        -2.9170    4.1520   -0.2770 c1        1 3SB     -0.193000
     20 C14        -2.3920    4.6950   -1.4350 c1        1 3SB      0.132000
     21 C15        -1.5160    3.9530   -2.2100 c1        1 3SB     -0.306000
     22 C16        -1.1660    2.6680   -1.8240 c1        1 3SB      0.131000
     23 HN1         0.6230   -2.5010   -1.5820 hn        1 3SB      0.157500
     24 HN1A        0.5500   -3.8210   -0.8990 hn        1 3SB      0.157500
     25 H2          0.0390   -2.3960    1.0020 h1        1 3SB      0.141000
     26 HN2         0.1770    0.8810    0.2760 hn        1 3SB      0.233000
     27 HO2        -3.3340    6.0630   -2.3510 ho        1 3SB      0.222000
     28 HO3         0.5220    2.6390   -2.6500 ho        1 3SB      0.229000
     29 H4         -2.7620    0.4810   -1.5620 ha        1 3SB      0.164000
     30 H6          3.3500   -2.7630   -0.6600 ha        1 3SB      0.136500
     31 H7          5.1850   -3.7220    0.4770 ha        1 3SB      0.136500
     32 H8          4.9050   -4.6570    2.6300 ha        1 3SB      0.136500
     33 H9          2.7700   -4.6260    3.6430 ha        1 3SB      0.136500
     34 H10         0.9300   -3.6680    2.5130 ha        1 3SB      0.137000
     35 H12        -2.3950    2.0760    1.9990 hc        1 3SB      0.093333
     36 H12A       -3.7470    2.9100    1.7890 hc        1 3SB      0.093333
     37 H12B       -3.6090    1.4370    1.1640 hc        1 3SB      0.093333
     38 H13        -3.5350    4.6740    0.2700 ha        1 3SB      0.157000
     39 H15        -1.1810    4.3170   -3.0510 ha        1 3SB      0.140000
@<TRIPOS>BOND
     1    1    4 1   
     2    1   16 1   
     3    2    4 1   
     4    2   23 1   
     5    2   24 1   
     6    3    7 1   
     7    4    7 1   
     8    4   25 1   
     9    5    7 1   
    10    5    8 1   
    11    5   26 1   
    12    6   20 1   
    13    6   27 1   
    14    8   10 1   
    15    9   22 1   
    16    9   28 1   
    17   10   29 1   
    18   11   17 1   
    19   11   22 1   
    20   12   13 1   
    21   12   30 1   
    22   13   31 1   
    23   14   15 1   
    24   14   32 1   
    25   15   33 1   
    26   16   34 1   
    27   17   18 1   
    28   17   19 1   
    29   18   35 1   
    30   18   36 1   
    31   18   37 1   
    32   19   38 1   
    33   20   21 1   
    34   21   39 1   
@<TRIPOS>SUBSTRUCTURE
     1 3SB         1 TEMP              0 ****  ****    0 ROOT
