@<TRIPOS>MOLECULE
3SC
   41    44     1     0     0
SMALL
bcc


@<TRIPOS>ATOM
      1 C01        -0.1480    0.5490   -0.0260 cc        1 3SC     -0.208000
      2 C02         1.2670    0.3950   -0.0640 cd        1 3SC      0.374500
      3 N03         1.6560    0.2260    1.3330 na        1 3SC      0.008200
      4 N04         0.6090    0.2690    2.1630 nd        1 3SC     -0.563100
      5 C05        -0.4840    0.4610    1.3810 cc        1 3SC      0.426500
      6 N06         2.1700    0.3780   -1.0930 nd        1 3SC     -0.549000
      7 C07         3.4490    0.2020   -0.7840 cc        1 3SC      0.496800
      8 C08         3.9250    0.0360    0.5820 cc        1 3SC     -0.187300
      9 C09         3.0160    0.0440    1.6220 cd        1 3SC      0.059300
     10 N10         3.3840   -0.1310    3.0400 n4        1 3SC     -0.639400
     11 C11         4.4710    0.1860   -1.8490 ca        1 3SC     -0.176500
     12 C12         4.8570   -0.3210    3.2710 c3        1 3SC      0.173100
     13 C13         5.1300   -0.4910    4.7280 ca        1 3SC     -0.151300
     14 C14         5.3650    0.6260    5.5380 ca        1 3SC     -0.222300
     15 C15         5.6620    0.4100    6.8980 ca        1 3SC      0.419200
     16 N16         5.7280   -0.8130    7.4560 nb        1 3SC     -0.609000
     17 C17         5.5010   -1.8770    6.6630 ca        1 3SC      0.419200
     18 C18         5.1960   -1.7700    5.2910 ca        1 3SC     -0.222300
     19 C19         5.3070   -0.9280   -2.0350 ca        1 3SC      0.029400
     20 C20         6.2770   -0.9050   -3.0490 ca        1 3SC      0.018400
     21 C21         6.3990    0.2200   -3.8760 ca        1 3SC     -0.085000
     22 C22         5.5550    1.3120   -3.6960 ca        1 3SC     -0.113000
     23 C23         4.5900    1.2980   -2.6900 ca        1 3SC     -0.078000
     24 S24        -1.0940    0.7690   -1.3700 ss        1 3SC      0.247300
     25 C25        -2.5770    0.9270   -0.7510 c1        1 3SC      0.123900
     26 N26        -3.6780    1.0510   -0.3730 n1        1 3SC     -0.256800
     27 CL27        5.1270   -2.3110   -1.0630 cl        1 3SC     -0.072400
     28 CL28        7.3080   -2.2220   -3.2990 cl        1 3SC     -0.031400
     29 H05        -1.4880    0.5340    1.8180 h4        1 3SC      0.090800
     30 H08         5.0070   -0.0940    0.7330 ha        1 3SC      0.188000
     31 HN10        3.0670    0.6960    3.5720 hn        1 3SC      0.473300
     32 H121        5.3930    0.5880    2.8690 hx        1 3SC      0.116700
     33 H122        5.1860   -1.2340    2.6930 hx        1 3SC      0.116700
     34 H14         5.3430    1.6480    5.1340 ha        1 3SC      0.154500
     35 H15         5.8610    1.2630    7.5770 h4        1 3SC      0.054600
     36 H17         5.5700   -2.8680    7.1520 h4        1 3SC      0.054600
     37 H18         5.0360   -2.6760    4.6900 ha        1 3SC      0.154500
     38 H21         7.1600    0.2330   -4.6750 ha        1 3SC      0.172000
     39 H22         5.6450    2.1900   -4.3570 ha        1 3SC      0.163000
     40 H23         3.9160    2.1590   -2.5620 ha        1 3SC      0.157000
     41 H102        2.8800   -0.9510    3.4140 hn        1 3SC      0.473300
@<TRIPOS>BOND
     1    1    2 2   
     2    1    5 1   
     3    1   24 1   
     4    2    3 1   
     5    2    6 1   
     6    3    4 1   
     7    3    9 1   
     8    4    5 2   
     9    5   29 1   
    10    6    7 2   
    11    7    8 1   
    12    7   11 1   
    13    8    9 2   
    14    8   30 1   
    15    9   10 1   
    16   10   12 1   
    17   10   31 1   
    18   10   41 1   
    19   11   19 ar  
    20   11   23 ar  
    21   12   13 1   
    22   12   32 1   
    23   12   33 1   
    24   13   14 ar  
    25   13   18 ar  
    26   14   15 ar  
    27   14   34 1   
    28   15   16 ar  
    29   15   35 1   
    30   16   17 ar  
    31   17   18 ar  
    32   17   36 1   
    33   18   37 1   
    34   19   20 ar  
    35   19   27 1   
    36   20   21 ar  
    37   20   28 1   
    38   21   22 ar  
    39   21   38 1   
    40   22   23 ar  
    41   22   39 1   
    42   23   40 1   
    43   24   25 1   
    44   25   26 3   
@<TRIPOS>SUBSTRUCTURE
     1 3SC         1 TEMP              0 ****  ****    0 ROOT
