@<TRIPOS>MOLECULE
3SC
   40    43     1     0     0
SMALL
bcc


@<TRIPOS>ATOM
      1 C01        -0.1730   -0.7150    0.2390 cc        1 3SC     -0.329000
      2 C02         1.2380   -0.5020    0.1330 cd        1 3SC      0.485500
      3 N03         1.6930   -0.3180    1.4950 na        1 3SC     -0.001800
      4 N04         0.6750   -0.3960    2.3850 nd        1 3SC     -0.588100
      5 C05        -0.4400   -0.6260    1.6600 cc        1 3SC      0.458500
      6 N06         2.0710   -0.4650   -0.9490 nd        1 3SC     -0.656000
      7 C07         3.3660   -0.2340   -0.6950 cc        1 3SC      0.556800
      8 C08         3.9010   -0.0390    0.6120 cc        1 3SC     -0.396300
      9 C09         3.0530   -0.0640    1.7410 cd        1 3SC      0.319300
     10 N10         3.4940    0.1840    3.0250 nh        1 3SC     -0.760600
     11 C11         4.3250   -0.1890   -1.8210 ca        1 3SC     -0.147500
     12 C12         4.9080    0.2120    3.3120 c3        1 3SC      0.258100
     13 C13         5.2020    0.2680    4.7820 ca        1 3SC     -0.078300
     14 C14         4.6380    1.2580    5.5930 ca        1 3SC     -0.233300
     15 C15         4.9810    1.2810    6.9580 ca        1 3SC      0.398700
     16 N16         5.8270    0.4020    7.5280 nb        1 3SC     -0.652000
     17 C17         6.3620   -0.5440    6.7320 ca        1 3SC      0.398700
     18 C18         6.0800   -0.6560    5.3580 ca        1 3SC     -0.233300
     19 C19         4.2190    0.7750   -2.8370 ca        1 3SC      0.051400
     20 C20         5.1590    0.7760   -3.8820 ca        1 3SC      0.010400
     21 C21         6.1820   -0.1770   -3.9130 ca        1 3SC     -0.104000
     22 C22         6.2780   -1.1290   -2.9010 ca        1 3SC     -0.127000
     23 C23         5.3560   -1.1350   -1.8570 ca        1 3SC     -0.102000
     24 S24        -1.2540   -1.1040   -0.9460 ss        1 3SC      0.123300
     25 C25        -1.7470    0.3150   -1.5460 c1        1 3SC      0.169900
     26 N26        -2.1420    1.3100   -2.0190 n1        1 3SC     -0.347800
     27 CL27        2.9870    1.9340   -2.7970 cl        1 3SC     -0.036400
     28 CL28        5.0750    1.9240   -5.1280 cl        1 3SC     -0.060400
     29 H05        -1.4190   -0.7330    2.1380 h4        1 3SC      0.064800
     30 H08         4.9730    0.1570    0.7270 ha        1 3SC      0.166000
     31 HN10        2.8720    0.0650    3.7950 hn        1 3SC      0.464800
     32 H121        5.4120   -0.6940    2.8590 h1        1 3SC      0.061200
     33 H122        5.3530    1.1300    2.8220 h1        1 3SC      0.061200
     34 H14         3.9490    2.0090    5.1810 ha        1 3SC      0.150500
     35 H15         4.5560    2.0470    7.6330 h4        1 3SC      0.029600
     36 H17         7.0530   -1.2520    7.2250 h4        1 3SC      0.029600
     37 H18         6.5430   -1.4530    4.7610 ha        1 3SC      0.150500
     38 H21         6.9110   -0.1740   -4.7390 ha        1 3SC      0.155000
     39 H22         7.0820   -1.8800   -2.9290 ha        1 3SC      0.145000
     40 H23         5.4270   -1.8900   -1.0590 ha        1 3SC      0.144000
@<TRIPOS>BOND
     1    1    2 2   
     2    1    5 1   
     3    1   24 1   
     4    2    3 1   
     5    2    6 1   
     6    3    4 1   
     7    3    9 1   
     8    4    5 2   
     9    5   29 1   
    10    6    7 2   
    11    7    8 1   
    12    7   11 1   
    13    8    9 2   
    14    8   30 1   
    15    9   10 1   
    16   10   12 1   
    17   10   31 1   
    18   11   19 ar  
    19   11   23 ar  
    20   12   13 1   
    21   12   32 1   
    22   12   33 1   
    23   13   14 ar  
    24   13   18 ar  
    25   14   15 ar  
    26   14   34 1   
    27   15   16 ar  
    28   15   35 1   
    29   16   17 ar  
    30   17   18 ar  
    31   17   36 1   
    32   18   37 1   
    33   19   20 ar  
    34   19   27 1   
    35   20   21 ar  
    36   20   28 1   
    37   21   22 ar  
    38   21   38 1   
    39   22   23 ar  
    40   22   39 1   
    41   23   40 1   
    42   24   25 1   
    43   25   26 3   
@<TRIPOS>SUBSTRUCTURE
     1 3SC         1 TEMP              0 ****  ****    0 ROOT
