@<TRIPOS>MOLECULE
3SC
   40    43     1     0     0
SMALL
bcc


@<TRIPOS>ATOM
      1 C01        -0.2320   -0.6370    0.2150 cc        1 3SC     -0.329000
      2 C02         1.1830   -0.4450    0.1210 cd        1 3SC      0.485500
      3 N03         1.6280   -0.2670    1.4870 na        1 3SC     -0.001800
      4 N04         0.6010   -0.3300    2.3680 nd        1 3SC     -0.589100
      5 C05        -0.5100   -0.5440    1.6330 cc        1 3SC      0.458500
      6 N06         2.0260   -0.4200   -0.9540 nd        1 3SC     -0.656000
      7 C07         3.3220   -0.2070   -0.6890 cc        1 3SC      0.556800
      8 C08         3.8480   -0.0200    0.6240 cc        1 3SC     -0.396300
      9 C09         2.9900   -0.0330    1.7450 cd        1 3SC      0.319300
     10 N10         3.4230    0.2090    3.0330 nu        1 3SC     -0.760600
     11 C11         4.2910   -0.1770   -1.8060 ca        1 3SC     -0.147500
     12 C12         4.8350    0.2200    3.3320 c3        1 3SC      0.258100
     13 C13         5.1160    0.2760    4.8040 ca        1 3SC     -0.078300
     14 C14         4.5580    1.2750    5.6080 ca        1 3SC     -0.233300
     15 C15         4.8890    1.2970    6.9750 ca        1 3SC      0.398700
     16 N16         5.7190    0.4090    7.5550 nb        1 3SC     -0.652000
     17 C17         6.2490   -0.5450    6.7660 ca        1 3SC      0.398700
     18 C18         5.9780   -0.6580    5.3900 ca        1 3SC     -0.233300
     19 C19         4.2090    0.7890   -2.8220 ca        1 3SC      0.051400
     20 C20         5.1580    0.7750   -3.8600 ca        1 3SC      0.010400
     21 C21         6.1660   -0.1930   -3.8820 ca        1 3SC     -0.104000
     22 C22         6.2380   -1.1460   -2.8690 ca        1 3SC     -0.127000
     23 C23         5.3070   -1.1390   -1.8340 ca        1 3SC     -0.102000
     24 S24        -1.3080   -1.0110   -0.9790 ss        1 3SC      0.123300
     25 C25        -1.7780    0.4150   -1.5820 c1        1 3SC      0.169900
     26 N26        -2.1550    1.4150   -2.0570 n1        1 3SC     -0.347800
     27 Cl27        2.9950    1.9670   -2.7920 cl        1 3SC     -0.036400
     28 Cl28        5.1020    1.9250   -5.1050 cl        1 3SC     -0.060400
     29 H05        -1.4950   -0.6370    2.1030 h4        1 3SC      0.064800
     30 H08         4.9220    0.1600    0.7470 ha        1 3SC      0.166000
     31 HN10        2.7920    0.1000    3.7970 hn        1 3SC      0.465800
     32 H121        5.3310   -0.6930    2.8850 h1        1 3SC      0.061200
     33 H122        5.2960    1.1310    2.8430 h1        1 3SC      0.061200
     34 H14         3.8820    2.0330    5.1890 ha        1 3SC      0.150500
     35 H15         4.4680    2.0700    7.6450 h4        1 3SC      0.029600
     36 H17         6.9270   -1.2610    7.2660 h4        1 3SC      0.029600
     37 H18         6.4360   -1.4610    4.7990 ha        1 3SC      0.150500
     38 H21         6.9020   -0.2010   -4.7020 ha        1 3SC      0.155000
     39 H22         7.0310   -1.9090   -2.8900 ha        1 3SC      0.145000
     40 H23         5.3600   -1.8950   -1.0350 ha        1 3SC      0.144000
@<TRIPOS>BOND
     1    1    2 2   
     2    1    5 1   
     3    1   24 1   
     4    2    3 1   
     5    2    6 1   
     6    3    4 1   
     7    3    9 1   
     8    4    5 2   
     9    5   29 1   
    10    6    7 2   
    11    7    8 1   
    12    7   11 1   
    13    8    9 2   
    14    8   30 1   
    15    9   10 1   
    16   10   12 1   
    17   10   31 1   
    18   11   19 ar  
    19   11   23 ar  
    20   12   13 1   
    21   12   32 1   
    22   12   33 1   
    23   13   14 ar  
    24   13   18 ar  
    25   14   15 ar  
    26   14   34 1   
    27   15   16 ar  
    28   15   35 1   
    29   16   17 ar  
    30   17   18 ar  
    31   17   36 1   
    32   18   37 1   
    33   19   20 ar  
    34   19   27 1   
    35   20   21 ar  
    36   20   28 1   
    37   21   22 ar  
    38   21   38 1   
    39   22   23 ar  
    40   22   39 1   
    41   23   40 1   
    42   24   25 1   
    43   25   26 3   
@<TRIPOS>SUBSTRUCTURE
     1 3SC         1 TEMP              0 ****  ****    0 ROOT
