@<TRIPOS>MOLECULE
3SC
   40    29     1     0     0
SMALL
bcc


@<TRIPOS>ATOM
      1 C01        -3.6360   -0.0480   -0.9720 c1        1 3SC     -0.486000
      2 C02        -2.2520   -0.0230   -1.0130 c1        1 3SC      0.044000
      3 N03        -1.7970    0.0850    0.2640 n1        1 3SC     -0.115000
      4 N04        -2.9010    0.1270    1.1130 n1        1 3SC     -0.130500
      5 C05        -4.0240    0.0450    0.3480 c1        1 3SC      0.044000
      6 N06        -1.3540   -0.0130   -2.0740 n1        1 3SC     -0.130500
      7 C07        -0.0310    0.1030   -1.8390 c1        1 3SC      0.041500
      8 C08         0.4310    0.2120   -0.5440 c1        1 3SC     -0.202000
      9 C09        -0.4570    0.2030    0.5050 c1        1 3SC      0.258000
     10 N10        -0.2850    0.0360    1.9350 n2        1 3SC     -0.311000
     11 C11         0.7610    0.1650   -3.0140 c1        1 3SC      0.041500
     12 C12         0.7910    0.7280    2.6230 c3        1 3SC      0.010000
     13 C13         1.2720   -0.1220    3.8090 c1        1 3SC     -0.071000
     14 C14         0.8180    0.1490    5.0670 c1        1 3SC     -0.116000
     15 C15         1.3630   -0.5150    6.1600 c1        1 3SC     -0.116000
     16 N16         2.3480   -1.4350    5.9760 n1        1 3SC     -0.126000
     17 C17         2.8030   -1.7070    4.7200 c1        1 3SC     -0.067000
     18 C18         2.2610   -1.0460    3.6270 c1        1 3SC     -0.166000
     19 C19         0.9160    1.4200   -3.5850 c1        1 3SC     -0.055000
     20 C20         1.5880    1.5540   -4.7970 c1        1 3SC     -0.055000
     21 C21         2.1020    0.4340   -5.4330 c1        1 3SC     -0.116000
     22 C22         1.9470   -0.8220   -4.8610 c1        1 3SC     -0.116000
     23 C23         1.2760   -0.9570   -3.6510 c1        1 3SC     -0.202000
     24 S24        -4.1110    0.0580   -2.6890 s         1 3SC      0.592000
     25 C25        -5.8370   -0.3150   -2.8490 c1        1 3SC     -0.381000
     26 N26        -6.9420   -0.5540   -2.9510 n1        1 3SC     -0.026000
     27 CL27        0.2500    2.8240   -2.7980 cl        1 3SC      0.016500
     28 CL28        1.8440    3.1370   -5.4780 cl        1 3SC      0.016500
     29 H05        -4.9500    0.0300    0.6810 DU        1 3SC      0.194000
     30 H08         1.3780    0.2950   -0.3750 ha        1 3SC      0.163500
     31 HN10       -0.8740   -0.4610    2.4050 hn        1 3SC      0.258000
     32 H121        0.4660    1.5900    2.9500 h1        1 3SC      0.102500
     33 H122        1.5310    0.8720    2.0060 h1        1 3SC      0.102500
     34 H14         0.1120    0.8080    5.2000 ha        1 3SC      0.156000
     35 H15         1.0390   -0.3220    7.0580 ha        1 3SC      0.156000
     36 H17         3.5110   -2.3680    4.5900 ha        1 3SC      0.166000
     37 H18         2.5870   -1.2410    2.7300 ha        1 3SC      0.148000
     38 H21         2.5770    0.5290   -6.2880 ha        1 3SC      0.156000
     39 H22         2.3100   -1.6110   -5.3090 ha        1 3SC      0.156000
     40 H23         1.1670   -1.8420   -3.2480 ha        1 3SC      0.163500
@<TRIPOS>BOND
     1    1    2 1   
     2    1    5 1   
     3    2    6 1   
     4    3    9 1   
     5    4    5 1   
     6    7    8 1   
     7    8   30 1   
     8   10   12 1   
     9   10   31 1   
    10   11   23 1   
    11   12   13 1   
    12   12   32 1   
    13   12   33 1   
    14   13   18 1   
    15   14   15 1   
    16   14   34 1   
    17   15   35 1   
    18   16   17 1   
    19   17   36 1   
    20   18   37 1   
    21   19   20 1   
    22   19   27 1   
    23   20   28 1   
    24   21   22 1   
    25   21   38 1   
    26   22   39 1   
    27   23   40 1   
    28   24   25 1   
    29   25   26 1   
@<TRIPOS>SUBSTRUCTURE
     1 3SC         1 TEMP              0 ****  ****    0 ROOT
