@<TRIPOS>MOLECULE
3SC
   40    43     1     0     0
SMALL
bcc


@<TRIPOS>ATOM
      1 C01         0.4490    3.2010    0.5630 cc        1 3SC     -0.328000
      2 C02         0.2980    1.7810    0.4720 cd        1 3SC      0.483500
      3 N03        -1.1330    1.5560    0.4720 na        1 3SC      0.000200
      4 N04        -1.8290    2.7150    0.5580 nd        1 3SC     -0.589100
      5 C05        -0.9090    3.7020    0.6040 cc        1 3SC      0.458500
      6 N06         1.2170    0.7740    0.3870 nd        1 3SC     -0.653000
      7 C07         0.7300   -0.4720    0.3160 cc        1 3SC      0.554800
      8 C08        -0.6620   -0.7860    0.3340 cc        1 3SC     -0.389300
      9 C09        -1.6250    0.2420    0.4150 cd        1 3SC      0.309300
     10 N10        -2.9850   -0.0040    0.4930 nh        1 3SC     -0.750600
     11 C11         1.6700   -1.6110    0.2330 ca        1 3SC     -0.148500
     12 C12        -3.5030   -1.2800    0.0570 c3        1 3SC      0.251100
     13 C13        -4.9740   -1.2450   -0.2330 ca        1 3SC     -0.076300
     14 C14        -5.8400   -2.1330    0.4130 ca        1 3SC     -0.234800
     15 C15        -7.2070   -2.0950    0.0820 ca        1 3SC      0.400200
     16 N16        -7.7320   -1.2430   -0.8190 nb        1 3SC     -0.652000
     17 C17        -6.8860   -0.3900   -1.4280 ca        1 3SC      0.400200
     18 C18        -5.5030   -0.3520   -1.1720 ca        1 3SC     -0.234800
     19 C19         2.5520   -1.7570   -0.8500 ca        1 3SC      0.050400
     20 C20         3.4220   -2.8610   -0.8820 ca        1 3SC      0.010400
     21 C21         3.4130   -3.7970    0.1570 ca        1 3SC     -0.104000
     22 C22         2.5340   -3.6420    1.2260 ca        1 3SC     -0.126000
     23 C23         1.6640   -2.5560    1.2650 ca        1 3SC     -0.101000
     24 S24         1.8330    4.0870    0.7230 ss        1 3SC      0.124300
     25 C25         2.3280    4.3650   -0.7920 c1        1 3SC      0.169900
     26 N26         2.7330    4.5970   -1.8640 n1        1 3SC     -0.347800
     27 CL27        2.5570   -0.6300   -2.1120 cl        1 3SC     -0.037400
     28 CL28        4.5000   -3.0820   -2.1720 cl        1 3SC     -0.060400
     29 H05        -1.2050    4.7540    0.6700 h4        1 3SC      0.064800
     30 H08        -0.9730   -1.8370    0.2890 ha        1 3SC      0.166000
     31 HN10       -3.6180    0.7680    0.4720 hn        1 3SC      0.459800
     32 H121       -2.9660   -1.6270   -0.8780 h1        1 3SC      0.062700
     33 H122       -3.2920   -2.0350    0.8710 h1        1 3SC      0.062700
     34 H14        -5.4700   -2.8470    1.1610 ha        1 3SC      0.149000
     35 H15        -7.9230   -2.7830    0.5670 h4        1 3SC      0.029600
     36 H17        -7.3420    0.2980   -2.1630 h4        1 3SC      0.029600
     37 H18        -4.8610    0.3590   -1.7090 ha        1 3SC      0.149000
     38 H21         4.1030   -4.6550    0.1280 ha        1 3SC      0.155000
     39 H22         2.5320   -4.3780    2.0440 ha        1 3SC      0.145000
     40 H23         0.9720   -2.4300    2.1120 ha        1 3SC      0.146000
@<TRIPOS>BOND
     1    1    2 2   
     2    1    5 1   
     3    1   24 1   
     4    2    3 1   
     5    2    6 1   
     6    3    4 1   
     7    3    9 1   
     8    4    5 2   
     9    5   29 1   
    10    6    7 2   
    11    7    8 1   
    12    7   11 1   
    13    8    9 2   
    14    8   30 1   
    15    9   10 1   
    16   10   12 1   
    17   10   31 1   
    18   11   19 ar  
    19   11   23 ar  
    20   12   13 1   
    21   12   32 1   
    22   12   33 1   
    23   13   14 ar  
    24   13   18 ar  
    25   14   15 ar  
    26   14   34 1   
    27   15   16 ar  
    28   15   35 1   
    29   16   17 ar  
    30   17   18 ar  
    31   17   36 1   
    32   18   37 1   
    33   19   20 ar  
    34   19   27 1   
    35   20   21 ar  
    36   20   28 1   
    37   21   22 ar  
    38   21   38 1   
    39   22   23 ar  
    40   22   39 1   
    41   23   40 1   
    42   24   25 1   
    43   25   26 3   
@<TRIPOS>SUBSTRUCTURE
     1 3SC         1 TEMP              0 ****  ****    0 ROOT
