@<TRIPOS>MOLECULE
3SD
   83    77     1     0     0
SMALL
bcc


@<TRIPOS>ATOM
      1 C4          4.9910   -2.5490   -3.9000 c1        1 3SD     -0.182000
      2 C5          6.3480   -2.2860   -3.7400 c1        1 3SD     -0.028000
      3 C6          7.4570   -2.6080   -4.7560 c2        1 3SD     -0.165000
      4 O1          6.5090   -1.6360   -2.5770 os        1 3SD     -0.052000
      5 N2          5.2490   -1.4820   -1.9890 n2        1 3SD      0.004000
      6 C3          4.3320   -2.0440   -2.8080 c1        1 3SD     -0.155000
      7 C41         2.8130   -2.0670   -2.5800 c1        1 3SD      0.378000
      8 O42         2.0840   -2.6380   -3.3790 o         1 3SD     -0.341000
      9 C8          0.8940   -1.5550   -1.1240 c3        1 3SD      0.009000
     10 C10         0.3010   -0.1510   -1.1700 c2        1 3SD      0.276000
     11 N7          2.2470   -1.4880   -1.3550 n3        1 3SD     -0.349000
     12 C9          0.6360   -2.1840    0.2840 c3        1 3SD     -0.194000
     13 C33         0.9300   -3.7110    0.2370 c2        1 3SD      0.307000
     14 O35         1.0540   -4.2610   -0.8120 o         1 3SD     -0.371000
     15 N34         0.9370   -4.5020    1.4890 n         1 3SD     -0.369000
     16 C36         0.9140   -5.9530    1.4310 c3        1 3SD     -0.021000
     17 C37         0.9490   -6.5210    2.8510 c3        1 3SD     -0.075000
     18 C40         2.1570   -5.9250    3.6190 c3        1 3SD     -0.205333
     19 C38        -0.3670   -6.1500    3.5880 c3        1 3SD     -0.205333
     20 C39         1.0860   -8.0230    2.7880 c3        1 3SD     -0.205333
     21 O11         1.0210    0.8130   -1.4310 o         1 3SD     -0.377000
     22 N13        -1.1250    0.0370   -0.9910 n         1 3SD     -0.354000
     23 C12        -1.6390    1.3110   -0.8000 c3        1 3SD      0.009000
     24 C15        -1.5950    1.6670    0.7050 c1        1 3SD      0.270000
     25 O19        -1.7900    0.7830    1.5590 o         1 3SD     -0.366000
     26 C14        -3.0870    1.3530   -1.2930 c3        1 3SD     -0.162000
     27 C17        -3.1680    2.1950   -2.5980 c3        1 3SD     -0.123000
     28 C18        -4.6220    2.6530   -2.8240 c2        1 3SD     -0.075000
     29 C28        -4.9550    3.9990   -2.6910 c2        1 3SD     -0.129000
     30 C32        -5.5700    1.7480   -3.2750 c1        1 3SD     -0.123000
     31 C29        -6.2260    4.4310   -3.0080 c1        1 3SD     -0.128000
     32 C31        -6.8570    2.1870   -3.5950 c1        1 3SD     -0.129500
     33 C30        -7.1840    3.5130   -3.4630 c1        1 3SD     -0.129500
     34 C20        -1.1210    3.3490    2.5050 c3        1 3SD      0.000000
     35 C21        -0.5220    4.7500    2.6160 c2        1 3SD     -0.121000
     36 C22        -1.3050    5.8010    3.0680 c2        1 3SD     -0.120000
     37 C24         0.5970    7.2790    2.9490 c1        1 3SD     -0.061000
     38 C26         0.8300    4.9590    2.3270 c1        1 3SD     -0.105000
     39 N16        -1.3710    3.0440    1.1200 n2        1 3SD     -0.355000
     40 C23        -0.7440    7.0700    3.2350 c1        1 3SD     -0.132000
     41 C27         1.1790    8.7170    2.9840 c3        1 3SD     -0.181000
     42 C25         1.3880    6.2180    2.4920 c1        1 3SD     -0.132000
     43 H4          4.5660   -3.0280   -4.6840 DU        1 3SD      0.197000
     44 H6          7.4210   -3.5580   -4.9850 ha        1 3SD      0.109333
     45 H6A         7.3260   -2.0730   -5.5610 ha        1 3SD      0.109333
     46 H6B         8.3290   -2.3990   -4.3660 ha        1 3SD      0.109333
     47 H8          0.4710   -2.1110   -1.8120 h1        1 3SD      0.158000
     48 HN7         2.7890   -1.0390   -0.7670 hn        1 3SD      0.248000
     49 H9          1.2190   -1.7620    0.9370 hc        1 3SD      0.125000
     50 H9A        -0.3090   -2.0390    0.5430 hc        1 3SD      0.125000
     51 HN34        0.8890   -4.0680    2.3160 hn        1 3SD      0.229000
     52 H36         0.1020   -6.2470    0.9840 h1        1 3SD      0.100000
     53 H36A        1.6990   -6.2740    0.9290 h1        1 3SD      0.100000
     54 H40         2.3940   -6.5180    4.3670 hc        1 3SD      0.076000
     55 H40A        1.9200   -5.0420    3.9650 hc        1 3SD      0.076000
     56 H40B        2.9290   -5.8420    3.0050 hc        1 3SD      0.076000
     57 H38        -0.3210   -5.2210    3.8900 hc        1 3SD      0.076000
     58 H38A       -1.1290   -6.2580    2.9730 hc        1 3SD      0.076000
     59 H38B       -0.4870   -6.7450    4.3690 hc        1 3SD      0.076000
     60 H39         0.2990   -8.4080    2.3180 hc        1 3SD      0.076000
     61 H39A        1.1320   -8.3850    3.6930 hc        1 3SD      0.076000
     62 H39B        1.9080   -8.2570    2.2980 hc        1 3SD      0.076000
     63 HN13       -1.6870   -0.6730   -1.0560 hn        1 3SD      0.247000
     64 H12        -1.0920    1.9720   -1.3160 h1        1 3SD      0.135000
     65 H14        -3.6550    1.7590   -0.6030 hc        1 3SD      0.104500
     66 H14A       -3.4010    0.4270   -1.4780 hc        1 3SD      0.104500
     67 H17        -2.5750    2.9970   -2.5160 hc        1 3SD      0.095000
     68 H17A       -2.8760    1.6490   -3.3570 hc        1 3SD      0.095000
     69 H28        -4.2860    4.6390   -2.3740 ha        1 3SD      0.129000
     70 H32        -5.3340    0.7890   -3.3690 ha        1 3SD      0.134000
     71 H29        -6.4650    5.4000   -2.9120 ha        1 3SD      0.131000
     72 H31        -7.5510    1.5240   -3.9240 ha        1 3SD      0.131500
     73 H30        -8.0710    3.8140   -3.6840 ha        1 3SD      0.131500
     74 H20        -0.4980    2.6990    2.8740 h1        1 3SD      0.111000
     75 H20A       -1.9430    3.3150    2.9930 h1        1 3SD      0.111000
     76 H22        -2.2750    5.6490    3.2750 ha        1 3SD      0.128000
     77 H26         1.3910    4.2070    2.0050 ha        1 3SD      0.142000
     78 HN16       -1.4320    3.7130    0.5140 hn        1 3SD      0.222000
     79 H23        -1.3020    7.8170    3.5580 ha        1 3SD      0.133000
     80 H27         1.6110    8.9160    2.1260 hc        1 3SD      0.085333
     81 H27A        1.8470    8.7870    3.7150 hc        1 3SD      0.085333
     82 H27B        0.4440    9.3670    3.1420 hc        1 3SD      0.085333
     83 H25         2.3470    6.3660    2.2870 ha        1 3SD      0.135000
@<TRIPOS>BOND
     1    1    2 1   
     2    1    6 1   
     3    2    4 1   
     4    3   44 1   
     5    3   45 1   
     6    3   46 1   
     7    4    5 1   
     8    5    6 1   
     9    7    8 1   
    10    7   11 1   
    11    9   10 1   
    12    9   11 1   
    13    9   12 1   
    14    9   47 1   
    15   10   21 1   
    16   10   22 1   
    17   11   48 1   
    18   12   13 1   
    19   12   49 1   
    20   12   50 1   
    21   13   14 1   
    22   13   15 1   
    23   15   16 1   
    24   15   51 1   
    25   16   17 1   
    26   16   52 1   
    27   16   53 1   
    28   17   18 1   
    29   17   19 1   
    30   17   20 1   
    31   18   54 1   
    32   18   55 1   
    33   18   56 1   
    34   19   57 1   
    35   19   58 1   
    36   19   59 1   
    37   20   60 1   
    38   20   61 1   
    39   20   62 1   
    40   22   23 1   
    41   22   63 1   
    42   23   24 1   
    43   23   26 1   
    44   23   64 1   
    45   24   25 1   
    46   26   27 1   
    47   26   65 1   
    48   26   66 1   
    49   27   28 1   
    50   27   67 1   
    51   27   68 1   
    52   28   29 1   
    53   28   30 1   
    54   29   31 1   
    55   29   69 1   
    56   30   70 1   
    57   31   71 1   
    58   32   33 1   
    59   32   72 1   
    60   33   73 1   
    61   34   35 1   
    62   34   39 1   
    63   34   74 1   
    64   34   75 1   
    65   35   36 1   
    66   35   38 1   
    67   36   40 1   
    68   36   76 1   
    69   37   41 1   
    70   37   42 1   
    71   38   77 1   
    72   39   78 1   
    73   40   79 1   
    74   41   80 1   
    75   41   81 1   
    76   41   82 1   
    77   42   83 1   
@<TRIPOS>SUBSTRUCTURE
     1 3SD         1 TEMP              0 ****  ****    0 ROOT
