@<TRIPOS>MOLECULE
3SD
   83    85     1     0     0
SMALL
bcc


@<TRIPOS>ATOM
      1 C4          5.3940    2.6970    0.5910 cc        1 3SD     -0.311600
      2 C5          6.2580    2.8760    1.6520 cd        1 3SD      0.260000
      3 C6          7.2710    3.8570    2.0290 c3        1 3SD     -0.140400
      4 O1          6.0470    1.7990    2.5600 os        1 3SD     -0.110100
      5 N2          5.1150    0.9990    2.1060 nd        1 3SD     -0.330300
      6 C3          4.6690    1.4710    0.9210 cc        1 3SD      0.262800
      7 C41         3.6250    0.8850    0.0430 c         1 3SD      0.594600
      8 O42         3.4260    1.3550   -1.0930 o         1 3SD     -0.579100
      9 C8          1.8150   -0.7620   -0.2100 c3        1 3SD      0.033700
     10 C10         0.4690   -0.3810    0.4660 c         1 3SD      0.631100
     11 N7          2.9400   -0.2250    0.5160 n         1 3SD     -0.538900
     12 C9          1.8340   -2.2970   -0.2850 c3        1 3SD     -0.166400
     13 C33         2.9880   -2.7890   -1.1430 c         1 3SD      0.663100
     14 O35         2.7920   -3.1240   -2.3290 o         1 3SD     -0.610100
     15 N34         4.2340   -2.8520   -0.5640 n         1 3SD     -0.560900
     16 C36         5.3970   -3.3100   -1.2680 c3        1 3SD      0.095000
     17 C37         6.2180   -4.3960   -0.5350 c3        1 3SD     -0.074000
     18 C40         6.6790   -3.8960    0.8230 c3        1 3SD     -0.087100
     19 C38         5.3970   -5.6630   -0.3680 c3        1 3SD     -0.087100
     20 C39         7.4350   -4.6960   -1.4000 c3        1 3SD     -0.087100
     21 O11         0.3910   -0.2290    1.7020 o         1 3SD     -0.612100
     22 N13        -0.6100   -0.1870   -0.3690 n         1 3SD     -0.537900
     23 C12        -1.9440    0.0090    0.1440 c3        1 3SD      0.028700
     24 C15        -2.8240   -1.2500   -0.0880 c         1 3SD      0.628100
     25 O19        -2.6500   -1.9800   -1.0850 o         1 3SD     -0.611100
     26 C14        -2.6830    1.1810   -0.5220 c3        1 3SD     -0.083400
     27 C17        -2.0350    2.5120   -0.1960 c3        1 3SD     -0.036100
     28 C18        -2.8270    3.6470   -0.7480 ca        1 3SD     -0.083300
     29 C28        -3.5670    4.4770    0.1010 ca        1 3SD     -0.126000
     30 C32        -2.8260    3.9000   -2.1250 ca        1 3SD     -0.126000
     31 C29        -4.2970    5.5440   -0.4200 ca        1 3SD     -0.128000
     32 C31        -3.5570    4.9670   -2.6440 ca        1 3SD     -0.128000
     33 C30        -4.2940    5.7900   -1.7920 ca        1 3SD     -0.131000
     34 C20        -4.7570   -2.5680    0.6990 c3        1 3SD      0.126300
     35 C21        -6.1610   -2.0510    0.5610 ca        1 3SD     -0.128300
     36 C22        -6.8320   -1.5410    1.6770 ca        1 3SD     -0.113000
     37 C24        -8.7970   -1.1200    0.3230 ca        1 3SD     -0.067300
     38 C26        -6.8110   -2.0890   -0.6750 ca        1 3SD     -0.113000
     39 N16        -3.7690   -1.5340    0.8740 n         1 3SD     -0.549900
     40 C23        -8.1400   -1.0790    1.5590 ca        1 3SD     -0.132000
     41 C27       -10.1930   -0.6440    0.2000 c3        1 3SD     -0.056800
     42 C25        -8.1210   -1.6290   -0.7920 ca        1 3SD     -0.132000
     43 H4          5.2470    3.2900   -0.3070 ha        1 3SD      0.197000
     44 H6          6.9360    4.4330    2.9290 hc        1 3SD      0.069033
     45 H6A         8.2360    3.3470    2.2790 hc        1 3SD      0.069033
     46 H6B         7.4420    4.5700    1.1840 hc        1 3SD      0.069033
     47 H8          1.8480   -0.3490   -1.2660 h1        1 3SD      0.119700
     48 HN7         2.9390   -0.4060    1.4970 hn        1 3SD      0.333500
     49 H9          1.8750   -2.7440    0.7420 hc        1 3SD      0.085700
     50 H9A         0.8840   -2.6400   -0.7770 hc        1 3SD      0.085700
     51 HN34        4.3510   -2.5730    0.3800 hn        1 3SD      0.315500
     52 H36         5.0790   -3.7170   -2.2710 h1        1 3SD      0.060200
     53 H36A        6.0780   -2.4260   -1.4470 h1        1 3SD      0.060200
     54 H40         5.8250   -3.8290    1.5390 hc        1 3SD      0.036811
     55 H40A        7.4340   -4.5980    1.2540 hc        1 3SD      0.036811
     56 H40B        7.1470   -2.8860    0.7290 hc        1 3SD      0.036811
     57 H38         5.0240   -6.0160   -1.3590 hc        1 3SD      0.036811
     58 H38A        6.0230   -6.4680    0.0860 hc        1 3SD      0.036811
     59 H38B        4.5200   -5.4820    0.2980 hc        1 3SD      0.036811
     60 H39         8.0670   -3.7830   -1.5130 hc        1 3SD      0.036811
     61 H39A        8.0520   -5.4990   -0.9290 hc        1 3SD      0.036811
     62 H39B        7.1170   -5.0400   -2.4130 hc        1 3SD      0.036811
     63 HN13       -0.5490   -0.4890   -1.3170 hn        1 3SD      0.331500
     64 H12        -1.8560    0.2180    1.2550 h1        1 3SD      0.101700
     65 H14        -3.7410    1.1770   -0.1480 hc        1 3SD      0.060200
     66 H14A       -2.7170    1.0360   -1.6330 hc        1 3SD      0.060200
     67 H17        -1.9350    2.6180    0.9180 hc        1 3SD      0.057200
     68 H17A       -0.9980    2.5450   -0.6260 hc        1 3SD      0.057200
     69 H28        -3.5700    4.2890    1.1850 ha        1 3SD      0.132000
     70 H32        -2.2420    3.2530   -2.7970 ha        1 3SD      0.132000
     71 H29        -4.8750    6.1930    0.2540 ha        1 3SD      0.131500
     72 H31        -3.5510    5.1600   -3.7270 ha        1 3SD      0.131500
     73 H30        -4.8700    6.6320   -2.2030 ha        1 3SD      0.131000
     74 H20        -4.7100   -3.2400    1.6050 h1        1 3SD      0.072200
     75 H20A       -4.4830   -3.1830   -0.2080 h1        1 3SD      0.072200
     76 H22        -6.3260   -1.5120    2.6540 ha        1 3SD      0.135500
     77 H26        -6.2870   -2.4840   -1.5600 ha        1 3SD      0.135500
     78 HN16       -3.9660   -0.8450    1.5610 hn        1 3SD      0.308500
     79 H23        -8.6620   -0.6790    2.4410 ha        1 3SD      0.134000
     80 H27       -10.9010   -1.4930    0.3770 hc        1 3SD      0.046033
     81 H27A      -10.4130    0.1550    0.9500 hc        1 3SD      0.046033
     82 H27B      -10.3880   -0.2340   -0.8220 hc        1 3SD      0.046033
     83 H25        -8.6270   -1.6630   -1.7680 ha        1 3SD      0.134000
@<TRIPOS>BOND
     1    1    2 2   
     2    1    6 1   
     3    1   43 1   
     4    2    3 1   
     5    2    4 1   
     6    3   44 1   
     7    3   45 1   
     8    3   46 1   
     9    4    5 1   
    10    5    6 2   
    11    6    7 1   
    12    7    8 2   
    13    7   11 1   
    14    9   10 1   
    15    9   11 1   
    16    9   12 1   
    17    9   47 1   
    18   10   21 2   
    19   10   22 1   
    20   11   48 1   
    21   12   13 1   
    22   12   49 1   
    23   12   50 1   
    24   13   14 2   
    25   13   15 1   
    26   15   16 1   
    27   15   51 1   
    28   16   17 1   
    29   16   52 1   
    30   16   53 1   
    31   17   18 1   
    32   17   19 1   
    33   17   20 1   
    34   18   54 1   
    35   18   55 1   
    36   18   56 1   
    37   19   57 1   
    38   19   58 1   
    39   19   59 1   
    40   20   60 1   
    41   20   61 1   
    42   20   62 1   
    43   22   23 1   
    44   22   63 1   
    45   23   24 1   
    46   23   26 1   
    47   23   64 1   
    48   24   25 2   
    49   24   39 1   
    50   26   27 1   
    51   26   65 1   
    52   26   66 1   
    53   27   28 1   
    54   27   67 1   
    55   27   68 1   
    56   28   29 ar  
    57   28   30 ar  
    58   29   31 ar  
    59   29   69 1   
    60   30   32 ar  
    61   30   70 1   
    62   31   33 ar  
    63   31   71 1   
    64   32   33 ar  
    65   32   72 1   
    66   33   73 1   
    67   34   35 1   
    68   34   39 1   
    69   34   74 1   
    70   34   75 1   
    71   35   36 ar  
    72   35   38 ar  
    73   36   40 ar  
    74   36   76 1   
    75   37   40 ar  
    76   37   41 1   
    77   37   42 ar  
    78   38   42 ar  
    79   38   77 1   
    80   39   78 1   
    81   40   79 1   
    82   41   80 1   
    83   41   81 1   
    84   41   82 1   
    85   42   83 1   
@<TRIPOS>SUBSTRUCTURE
     1 3SD         1 TEMP              0 ****  ****    0 ROOT
