@<TRIPOS>MOLECULE
3SE
   39    41     1     0     0
SMALL
bcc


@<TRIPOS>ATOM
      1 O          -3.5810   -1.6930   -1.4620 o         1 3SE     -0.601100
      2 C3         -3.2970   -1.1290   -0.3860 c         1 3SE      0.660100
      3 C2         -4.1780   -0.0180    0.1560 c3        1 3SE     -0.155400
      4 C1         -5.3860    0.1720   -0.7320 c3        1 3SE     -0.110400
      5 C          -6.2850    1.3140   -0.1960 c3        1 3SE      0.623900
      6 F2         -7.4000    1.5340   -0.9650 f         1 3SE     -0.239967
      7 F1         -6.7740    1.1050    1.0700 f         1 3SE     -0.239967
      8 F          -5.6660    2.5380   -0.1270 f         1 3SE     -0.239967
      9 N          -2.2100   -1.5620    0.3690 n         1 3SE     -0.459800
     10 C8         -1.2900   -2.5300   -0.1950 c3        1 3SE      0.082500
     11 C7          0.0860   -1.9530   -0.5350 c3        1 3SE     -0.105900
     12 C6          0.6690   -1.2180    0.6670 c3        1 3SE     -0.090000
     13 C5         -0.3070   -0.1650    1.1780 c3        1 3SE     -0.105900
     14 C4         -1.6690   -0.8010    1.4710 c3        1 3SE      0.082500
     15 C9          1.9630   -0.5840    0.3030 cc        1 3SE      0.496700
     16 N2          3.2090   -0.7630    0.7310 nd        1 3SE     -0.631000
     17 C10         3.9680    0.1700   -0.0380 cd        1 3SE      0.504000
     18 N1          3.1620    0.8680   -0.8880 nc        1 3SE     -0.369300
     19 O1          1.9410    0.4320   -0.7060 os        1 3SE     -0.136100
     20 C11         5.4040    0.3410    0.0820 cd        1 3SE      0.315400
     21 S           6.2850    1.3250   -1.0160 ss        1 3SE      0.016700
     22 C13         7.7030    0.9850   -0.2240 cd        1 3SE     -0.269400
     23 C12         7.4700    0.1330    0.8550 cc        1 3SE      0.326200
     24 N3          6.1550   -0.2390    1.0350 nc        1 3SE     -0.581000
     25 H2         -4.5150   -0.2690    1.1980 hc        1 3SE      0.081200
     26 H2A        -3.5890    0.9380    0.1970 hc        1 3SE      0.081200
     27 H1         -5.0740    0.4300   -1.7760 hc        1 3SE      0.100700
     28 H1A        -5.9980   -0.7650   -0.7750 hc        1 3SE      0.100700
     29 H8         -1.1620   -3.3510    0.5680 h1        1 3SE      0.065700
     30 H8A        -1.7380   -2.9780   -1.1270 h1        1 3SE      0.065700
     31 H7          0.7610   -2.7960   -0.8320 hc        1 3SE      0.067700
     32 H7A         0.0090   -1.2500   -1.4050 hc        1 3SE      0.067700
     33 H6          0.8650   -1.9650    1.4910 hc        1 3SE      0.091700
     34 H5          0.0830    0.2920    2.1240 hc        1 3SE      0.067700
     35 H5A        -0.4120    0.6510    0.4170 hc        1 3SE      0.067700
     36 H4         -2.3800    0.0080    1.7900 h1        1 3SE      0.065700
     37 H4A        -1.5500   -1.5140    2.3400 h1        1 3SE      0.065700
     38 H13         8.6780    1.3740   -0.5080 h4        1 3SE      0.187000
     39 H12         8.2250   -0.2520    1.5500 h4        1 3SE      0.051100
@<TRIPOS>BOND
     1    1    2 2   
     2    2    3 1   
     3    2    9 1   
     4    3    4 1   
     5    3   25 1   
     6    3   26 1   
     7    4    5 1   
     8    4   27 1   
     9    4   28 1   
    10    5    6 1   
    11    5    7 1   
    12    5    8 1   
    13    9   10 1   
    14    9   14 1   
    15   10   11 1   
    16   10   29 1   
    17   10   30 1   
    18   11   12 1   
    19   11   31 1   
    20   11   32 1   
    21   12   13 1   
    22   12   15 1   
    23   12   33 1   
    24   13   14 1   
    25   13   34 1   
    26   13   35 1   
    27   14   36 1   
    28   14   37 1   
    29   15   16 2   
    30   15   19 1   
    31   16   17 1   
    32   17   18 2   
    33   17   20 1   
    34   18   19 1   
    35   20   21 1   
    36   20   24 2   
    37   21   22 1   
    38   22   23 2   
    39   22   38 1   
    40   23   24 1   
    41   23   39 1   
@<TRIPOS>SUBSTRUCTURE
     1 3SE         1 TEMP              0 ****  ****    0 ROOT
