@<TRIPOS>MOLECULE
3SE
   39    37     1     0     0
SMALL
bcc


@<TRIPOS>ATOM
      1 O          -3.1190    1.1750    2.5120 o         1 3SE     -0.361000
      2 C3         -1.8780    1.2180    2.5100 c1        1 3SE      0.304000
      3 C2         -1.1020    1.2630    3.8500 c3        1 3SE     -0.184000
      4 C1         -2.0520    1.8390    4.9970 c3        1 3SE     -0.189000
      5 C          -1.4010    1.5760    6.3950 c3        1 3SE      0.410000
      6 F2         -0.2810    2.2810    6.5040 f         1 3SE     -0.169000
      7 F1         -2.2510    1.9410    7.3620 f         1 3SE     -0.169000
      8 F          -1.1230    0.2850    6.5160 f         1 3SE     -0.169000
      9 N          -1.1700    1.3040    1.2760 n2        1 3SE     -0.319000
     10 C8          0.2970    1.3570    1.1920 c3        1 3SE     -0.032500
     11 C7          0.8610    0.3070    0.2300 c3        1 3SE     -0.184000
     12 C6          0.2070    0.3500   -1.0880 c3        1 3SE     -0.035000
     13 C5         -1.2890    0.2970   -0.9770 c3        1 3SE     -0.184000
     14 C4         -1.8340    1.3440   -0.0080 c3        1 3SE     -0.032500
     15 C9          0.7100   -0.8850   -1.9510 c2        1 3SE      0.023000
     16 N2          1.2560   -0.8220   -3.2190 n2        1 3SE     -0.160000
     17 C10         1.5790   -2.0890   -3.6020 c1        1 3SE     -0.034000
     18 N1          1.2400   -2.9380   -2.5860 n2        1 3SE      0.026000
     19 O1          0.7000   -2.1840   -1.5630 os        1 3SE     -0.085000
     20 C11         2.2090   -2.4870   -4.9320 c1        1 3SE     -0.263000
     21 S           1.4420   -2.8530   -6.2220 ss        1 3SE      0.617000
     22 C13         2.4620   -3.3300   -7.2400 c1        1 3SE     -0.481000
     23 C12         3.7680   -3.2650   -6.6260 c1        1 3SE     -0.137000
     24 N3          3.5960   -2.7290   -5.1630 n2        1 3SE     -0.064000
     25 H2         -0.3100    1.8480    3.7520 hc        1 3SE      0.121000
     26 H2A        -0.8080    0.3500    4.0920 hc        1 3SE      0.121000
     27 H1         -2.1750    2.8230    4.8640 hc        1 3SE      0.140000
     28 H1A        -2.9240    1.3920    4.9550 hc        1 3SE      0.140000
     29 H8          0.5630    2.2460    0.8830 h1        1 3SE      0.104750
     30 H8A         0.6720    1.2060    2.0840 h1        1 3SE      0.104750
     31 H7          1.8490    0.4700    0.1090 hc        1 3SE      0.107750
     32 H7A         0.7330   -0.5690    0.6130 hc        1 3SE      0.107750
     33 H6          0.4610    1.1820   -1.5430 hc        1 3SE      0.128000
     34 H5         -1.5620   -0.6220   -0.6540 hc        1 3SE      0.107750
     35 H5A        -1.6710    0.4500   -1.8460 hc        1 3SE      0.107750
     36 H4         -2.8050    1.1760    0.1300 h1        1 3SE      0.104750
     37 H4A        -1.7200    2.2330   -0.4010 h1        1 3SE      0.104750
     38 H13         2.2680   -3.6330   -8.1620 DU        1 3SE      0.186500
     39 H12         4.5990   -3.5070   -7.0410 DU        1 3SE      0.186500
@<TRIPOS>BOND
     1    1    2 1   
     2    2    3 1   
     3    3    4 1   
     4    3   25 1   
     5    3   26 1   
     6    4    5 1   
     7    4   27 1   
     8    4   28 1   
     9    5    6 1   
    10    5    7 1   
    11    5    8 1   
    12    9   10 1   
    13    9   14 1   
    14   10   11 1   
    15   10   29 1   
    16   10   30 1   
    17   11   12 1   
    18   11   31 1   
    19   11   32 1   
    20   12   13 1   
    21   12   15 1   
    22   12   33 1   
    23   13   14 1   
    24   13   34 1   
    25   13   35 1   
    26   14   36 1   
    27   14   37 1   
    28   15   16 1   
    29   15   19 1   
    30   16   17 1   
    31   17   18 1   
    32   18   19 1   
    33   20   21 1   
    34   20   24 1   
    35   21   22 1   
    36   22   23 1   
    37   23   24 1   
@<TRIPOS>SUBSTRUCTURE
     1 3SE         1 TEMP              0 ****  ****    0 ROOT
