@<TRIPOS>MOLECULE
3SE
   39    41     1     0     0
SMALL
bcc


@<TRIPOS>ATOM
      1 O          -0.0320    0.3590   -0.0740 o         1 3SE     -0.601100
      2 C3          1.1860    0.0880   -0.0490 c         1 3SE      0.660100
      3 C2          1.9550    0.1200    1.2590 c3        1 3SE     -0.155400
      4 C1          1.0200    0.4200    2.4070 c3        1 3SE     -0.110400
      5 C           1.7970    0.4700    3.7470 c3        1 3SE      0.623900
      6 F2          0.9970    0.7420    4.8290 f         1 3SE     -0.239967
      7 F1          2.4370   -0.6990    4.0750 f         1 3SE     -0.239967
      8 F           2.7810    1.4270    3.7960 f         1 3SE     -0.239967
      9 N           1.8390   -0.3200   -1.2090 n         1 3SE     -0.459800
     10 C8          1.1530   -0.2320   -2.4840 c3        1 3SE      0.082500
     11 C7          1.7010    0.8550   -3.4100 c3        1 3SE     -0.105900
     12 C6          3.2110    0.7140   -3.5650 c3        1 3SE     -0.090000
     13 C5          3.8920    0.6960   -2.2010 c3        1 3SE     -0.105900
     14 C4          3.2770   -0.3920   -1.3160 c3        1 3SE      0.082500
     15 C9          3.7490    1.8250   -4.3910 cc        1 3SE      0.496700
     16 N2          4.3660    1.8580   -5.5690 nd        1 3SE     -0.631000
     17 C10         4.6100    3.2490   -5.7830 cd        1 3SE      0.504000
     18 N1          4.1390    3.9910   -4.7400 nc        1 3SE     -0.369300
     19 O1          3.6110    3.1560   -3.8810 os        1 3SE     -0.136100
     20 C11         5.2720    3.7840   -6.9580 cd        1 3SE      0.315400
     21 S           5.3520    5.4750   -7.2510 ss        1 3SE      0.016700
     22 C13         6.1920    5.2170   -8.6590 cd        1 3SE     -0.269400
     23 C12         6.3900    3.8530   -8.8700 cc        1 3SE      0.326200
     24 N3          5.8650    3.0280   -7.8990 nc        1 3SE     -0.581000
     25 H2          2.7490    0.9130    1.2050 hc        1 3SE      0.081200
     26 H2A         2.4570   -0.8690    1.4330 hc        1 3SE      0.081200
     27 H1          0.2270   -0.3670    2.4900 hc        1 3SE      0.100700
     28 H1A         0.5120    1.4080    2.2580 hc        1 3SE      0.100700
     29 H8          1.2630   -1.2330   -2.9920 h1        1 3SE      0.065700
     30 H8A         0.0550   -0.0420   -2.3080 h1        1 3SE      0.065700
     31 H7          1.4580    1.8720   -3.0030 hc        1 3SE      0.067700
     32 H7A         1.2040    0.7550   -4.4090 hc        1 3SE      0.067700
     33 H6          3.4340   -0.2580   -4.0960 hc        1 3SE      0.091700
     34 H5          3.7870    1.7010   -1.7150 hc        1 3SE      0.067700
     35 H5A         4.9850    0.4820   -2.3210 hc        1 3SE      0.067700
     36 H4          3.5270   -1.3990   -1.7620 h1        1 3SE      0.065700
     37 H4A         3.7590   -0.3420   -0.3010 h1        1 3SE      0.065700
     38 H13         6.5390    6.0050   -9.3240 h4        1 3SE      0.187000
     39 H12         6.9140    3.3990   -9.7200 h4        1 3SE      0.051100
@<TRIPOS>BOND
     1    1    2 2   
     2    2    3 1   
     3    2    9 1   
     4    3    4 1   
     5    3   25 1   
     6    3   26 1   
     7    4    5 1   
     8    4   27 1   
     9    4   28 1   
    10    5    6 1   
    11    5    7 1   
    12    5    8 1   
    13    9   10 1   
    14    9   14 1   
    15   10   11 1   
    16   10   29 1   
    17   10   30 1   
    18   11   12 1   
    19   11   31 1   
    20   11   32 1   
    21   12   13 1   
    22   12   15 1   
    23   12   33 1   
    24   13   14 1   
    25   13   34 1   
    26   13   35 1   
    27   14   36 1   
    28   14   37 1   
    29   15   16 2   
    30   15   19 1   
    31   16   17 1   
    32   17   18 2   
    33   17   20 1   
    34   18   19 1   
    35   20   21 1   
    36   20   24 2   
    37   21   22 1   
    38   22   23 2   
    39   22   38 1   
    40   23   24 1   
    41   23   39 1   
@<TRIPOS>SUBSTRUCTURE
     1 3SE         1 TEMP              0 ****  ****    0 ROOT
