@<TRIPOS>MOLECULE
3SE
   39    41     1     0     0
SMALL
bcc


@<TRIPOS>ATOM
      1 O          -0.0290    0.3470   -0.0760 o         1 3SE     -0.601100
      2 C3          1.1900    0.0840   -0.0480 c         1 3SE      0.660100
      3 C2          1.9570    0.1240    1.2610 c3        1 3SE     -0.155400
      4 C1          1.0190    0.4210    2.4070 c3        1 3SE     -0.110400
      5 C           1.7940    0.4790    3.7480 c3        1 3SE      0.623900
      6 F2          0.9920    0.7480    4.8270 f         1 3SE     -0.239967
      7 F1          2.4410   -0.6860    4.0790 f         1 3SE     -0.239967
      8 F           2.7730    1.4410    3.7950 f         1 3SE     -0.239967
      9 N           1.8460   -0.3240   -1.2070 n         1 3SE     -0.459800
     10 C8          1.1610   -0.2430   -2.4820 c3        1 3SE      0.082500
     11 C7          1.7050    0.8450   -3.4110 c3        1 3SE     -0.105900
     12 C6          3.2150    0.7120   -3.5630 c3        1 3SE     -0.090000
     13 C5          3.8940    0.7020   -2.1990 c3        1 3SE     -0.105900
     14 C4          3.2860   -0.3880   -1.3110 c3        1 3SE      0.082500
     15 C9          3.7480    1.8240   -4.3920 cc        1 3SE      0.496700
     16 N2          4.3670    1.8570   -5.5690 nd        1 3SE     -0.631000
     17 C10         4.6030    3.2490   -5.7870 cd        1 3SE      0.504000
     18 N1          4.1250    3.9910   -4.7470 nc        1 3SE     -0.369300
     19 O1          3.5990    3.1560   -3.8870 os        1 3SE     -0.136100
     20 C11         5.2640    3.7850   -6.9620 cd        1 3SE      0.315400
     21 S           5.3270    5.4740   -7.2640 ss        1 3SE      0.016700
     22 C13         6.1760    5.2180   -8.6670 cd        1 3SE     -0.269400
     23 C12         6.3900    3.8550   -8.8690 cc        1 3SE      0.326200
     24 N3          5.8700    3.0300   -7.8960 nc        1 3SE     -0.581000
     25 H2          2.7470    0.9210    1.2050 hc        1 3SE      0.081200
     26 H2A         2.4650   -0.8630    1.4380 hc        1 3SE      0.081200
     27 H1          0.2310   -0.3710    2.4910 hc        1 3SE      0.100700
     28 H1A         0.5050    1.4050    2.2550 hc        1 3SE      0.100700
     29 H8          1.2780   -1.2450   -2.9870 h1        1 3SE      0.065700
     30 H8A         0.0630   -0.0590   -2.3080 h1        1 3SE      0.065700
     31 H7          1.2090    0.7390   -4.4100 hc        1 3SE      0.067700
     32 H7A         1.4550    1.8610   -3.0070 hc        1 3SE      0.067700
     33 H6          3.4440   -0.2600   -4.0910 hc        1 3SE      0.091700
     34 H5          4.9890    0.4940   -2.3170 hc        1 3SE      0.067700
     35 H5A         3.7830    1.7070   -1.7160 hc        1 3SE      0.067700
     36 H4          3.5420   -1.3950   -1.7550 h1        1 3SE      0.065700
     37 H4A         3.7660   -0.3310   -0.2960 h1        1 3SE      0.065700
     38 H13         6.5170    6.0060   -9.3350 h4        1 3SE      0.187000
     39 H12         6.9220    3.4020   -9.7140 h4        1 3SE      0.051100
@<TRIPOS>BOND
     1    1    2 2   
     2    2    3 1   
     3    2    9 1   
     4    3    4 1   
     5    3   25 1   
     6    3   26 1   
     7    4    5 1   
     8    4   27 1   
     9    4   28 1   
    10    5    6 1   
    11    5    7 1   
    12    5    8 1   
    13    9   10 1   
    14    9   14 1   
    15   10   11 1   
    16   10   29 1   
    17   10   30 1   
    18   11   12 1   
    19   11   31 1   
    20   11   32 1   
    21   12   13 1   
    22   12   15 1   
    23   12   33 1   
    24   13   14 1   
    25   13   34 1   
    26   13   35 1   
    27   14   36 1   
    28   14   37 1   
    29   15   16 2   
    30   15   19 1   
    31   16   17 1   
    32   17   18 2   
    33   17   20 1   
    34   18   19 1   
    35   20   21 1   
    36   20   24 2   
    37   21   22 1   
    38   22   23 2   
    39   22   38 1   
    40   23   24 1   
    41   23   39 1   
@<TRIPOS>SUBSTRUCTURE
     1 3SE         1 TEMP              0 ****  ****    0 ROOT
