@<TRIPOS>MOLECULE
3SF
   42    41     1     0     0
SMALL
bcc


@<TRIPOS>ATOM
      1 C          -3.3650   -1.7230   -6.3130 c3        1 3SF      0.627900
      2 F          -2.8780   -0.7860   -7.1380 f         1 3SF     -0.239300
      3 N          -1.2770    0.2410   -0.9400 n         1 3SF     -0.462800
      4 O          -1.6890    1.3310   -2.9240 o         1 3SF     -0.593100
      5 S           3.9300    2.4250    6.0050 ss        1 3SF      0.167800
      6 C1         -2.3380   -2.0300   -5.2290 c3        1 3SF     -0.118400
      7 F1         -4.4910   -1.2750   -5.7460 f         1 3SF     -0.239300
      8 N1          3.5750    0.6880    2.8620 n1        1 3SF     -0.300800
      9 O1          2.6710    0.5140    1.8490 os        1 3SF     -0.219600
     10 C2         -1.8640   -0.7360   -4.6020 c3        1 3SF     -0.082400
     11 F2         -3.6290   -2.8370   -7.0080 f         1 3SF     -0.239300
     12 N2          1.5590    0.8010    3.7120 ne        1 3SF     -0.499700
     13 C3         -1.3820   -1.0060   -3.1760 c3        1 3SF     -0.143400
     14 N3          3.8790    0.0380    6.3110 n1        1 3SF     -0.470600
     15 C4         -1.4320    0.2810   -2.3720 c         1 3SF      0.655100
     16 C5         -0.9700   -0.9840   -0.2060 c3        1 3SF      0.081500
     17 C6          0.2220   -0.8180    0.7180 c3        1 3SF     -0.103400
     18 C7          0.0880    0.3720    1.6030 c3        1 3SF     -0.071000
     19 C8         -0.2260    1.6080    0.8330 c3        1 3SF     -0.103400
     20 C9         -1.4160    1.4210   -0.0930 c3        1 3SF      0.081500
     21 C10         1.4330    0.5840    2.3780 c2        1 3SF      0.519600
     22 C11         2.8880    0.8640    4.0050 cg        1 3SF      0.342800
     23 C12         3.4950    1.0720    5.3980 c1        1 3SF      0.287900
     24 C13         4.5820    0.7030    7.5490 cg        1 3SF     -0.057200
     25 C14         4.6020    2.1320    7.3460 c1        1 3SF     -0.255900
     26 H1         -2.7480   -2.5970   -4.5410 hc        1 3SF      0.078700
     27 H1A        -1.5770   -2.4980   -5.6260 hc        1 3SF      0.078700
     28 H2         -1.1230   -0.3650   -5.1340 hc        1 3SF      0.079700
     29 H2A        -2.6050   -0.0930   -4.5800 hc        1 3SF      0.079700
     30 H3         -1.9610   -1.6750   -2.7570 hc        1 3SF      0.066700
     31 H3A        -0.4620   -1.3400   -3.2000 hc        1 3SF      0.066700
     32 H5         -0.7770   -1.6960   -0.8460 h1        1 3SF      0.064450
     33 H5A        -1.7510   -1.2390    0.3270 h1        1 3SF      0.064450
     34 H6          0.3060   -1.6200    1.2740 hc        1 3SF      0.067200
     35 H6A         1.0270   -0.7220    0.1800 hc        1 3SF      0.067200
     36 H7         -0.6260    0.2100    2.2460 hc        1 3SF      0.085700
     37 H8          0.5550    1.8560    0.3000 hc        1 3SF      0.067200
     38 H8A        -0.4240    2.3310    1.4610 hc        1 3SF      0.067200
     39 H9         -2.2290    1.3300    0.4490 h1        1 3SF      0.064450
     40 H9A        -1.5010    2.2090   -0.6620 h1        1 3SF      0.064450
     41 H13         4.9450    0.2290    8.3260 DU        1 3SF      0.186500
     42 H14         4.9790    2.7960    7.9590 DU        1 3SF      0.186500
@<TRIPOS>BOND
     1    1    2 1   
     2    1    6 1   
     3    1    7 1   
     4    1   11 1   
     5    3   15 1   
     6    3   16 1   
     7    3   20 1   
     8    4   15 2   
     9    5   23 1   
    10    5   25 1   
    11    6   10 1   
    12    6   26 1   
    13    6   27 1   
    14    8    9 1   
    15    8   22 3   
    16    9   21 1   
    17   10   13 1   
    18   10   28 1   
    19   10   29 1   
    20   12   21 2   
    21   12   22 1   
    22   13   15 1   
    23   13   30 1   
    24   13   31 1   
    25   14   23 3   
    26   14   24 1   
    27   16   17 1   
    28   16   32 1   
    29   16   33 1   
    30   17   18 1   
    31   17   34 1   
    32   17   35 1   
    33   18   19 1   
    34   18   21 1   
    35   18   36 1   
    36   19   20 1   
    37   19   37 1   
    38   19   38 1   
    39   20   39 1   
    40   20   40 1   
    41   24   25 3   
@<TRIPOS>SUBSTRUCTURE
     1 3SF         1 TEMP              0 ****  ****    0 ROOT
