@<TRIPOS>MOLECULE
3SF
   42    44     1     0     0
SMALL
bcc


@<TRIPOS>ATOM
      1 C          -0.0490   -0.4730    0.0470 c3        1 3SF      0.627900
      2 F           1.3230   -0.5110   -0.0100 f         1 3SF     -0.238967
      3 N          -4.7860    0.3780    4.1030 n         1 3SF     -0.463800
      4 O          -4.7830   -0.2160    1.8930 o         1 3SF     -0.593100
      5 S          -8.9620   -3.0060   10.7870 ss        1 3SF      0.032700
      6 C1         -0.5890   -0.2600    1.4850 c3        1 3SF     -0.118400
      7 F1         -0.4010    0.5100   -0.8430 f         1 3SF     -0.238967
      8 N1         -6.4950   -4.1160    7.7550 nc        1 3SF     -0.310300
      9 O1         -6.0200   -3.2290    6.9120 os        1 3SF     -0.142100
     10 C2         -2.0990   -0.2250    1.4990 c3        1 3SF     -0.082400
     11 F2         -0.4500   -1.6430   -0.5440 f         1 3SF     -0.238967
     12 N2         -7.2720   -2.0380    8.3590 nd        1 3SF     -0.687000
     13 C3         -2.6090    0.0010    2.9070 c3        1 3SF     -0.143400
     14 N3         -7.9850   -5.2970   10.1070 nc        1 3SF     -0.591000
     15 C4         -4.1270    0.0190    2.9260 c         1 3SF      0.656100
     16 C5         -6.2300    0.2690    4.1720 c3        1 3SF      0.083500
     17 C6         -6.7260   -0.8670    5.0690 c3        1 3SF     -0.106400
     18 C7         -6.0800   -0.7790    6.4470 c3        1 3SF     -0.090000
     19 C8         -4.5610   -0.7390    6.3250 c3        1 3SF     -0.106400
     20 C9         -4.1340    0.3970    5.3910 c3        1 3SF      0.083500
     21 C10        -6.5000   -1.9340    7.2820 cc        1 3SF      0.509700
     22 C11        -7.2620   -3.4390    8.6520 cd        1 3SF      0.492000
     23 C12        -7.9960   -3.9930    9.7730 cd        1 3SF      0.314400
     24 C13        -8.7850   -5.4790   11.2130 cc        1 3SF      0.328200
     25 C14        -9.3890   -4.3210   11.7030 cd        1 3SF     -0.276400
     26 H1         -0.2030   -1.1000    2.1170 hc        1 3SF      0.078200
     27 H1A        -0.1620    0.7020    1.8650 hc        1 3SF      0.078200
     28 H2         -2.4700    0.5930    0.8250 hc        1 3SF      0.080200
     29 H2A        -2.5110   -1.1880    1.0950 hc        1 3SF      0.080200
     30 H3         -2.2470   -0.8220    3.5780 hc        1 3SF      0.066700
     31 H3A        -2.2150    0.9760    3.2990 hc        1 3SF      0.066700
     32 H5         -6.6200    1.2480    4.5760 h1        1 3SF      0.063950
     33 H5A        -6.6470    0.1230    3.1350 h1        1 3SF      0.063950
     34 H6         -6.4900   -1.8600    4.6050 hc        1 3SF      0.067450
     35 H6A        -7.8400   -0.7860    5.1620 hc        1 3SF      0.067450
     36 H7         -6.4310    0.1670    6.9540 hc        1 3SF      0.087700
     37 H8         -4.1890   -1.7240    5.9390 hc        1 3SF      0.067450
     38 H8A        -4.1010   -0.5660    7.3310 hc        1 3SF      0.067450
     39 H9         -3.0160    0.3620    5.2750 h1        1 3SF      0.063950
     40 H9A        -4.3960    1.3800    5.8820 h1        1 3SF      0.063950
     41 H13        -8.8920   -6.4890   11.6250 h4        1 3SF      0.050100
     42 H14       -10.0500   -4.2850   12.5670 h4        1 3SF      0.186000
@<TRIPOS>BOND
     1    1    2 1   
     2    1    6 1   
     3    1    7 1   
     4    1   11 1   
     5    3   15 1   
     6    3   16 1   
     7    3   20 1   
     8    4   15 2   
     9    5   23 1   
    10    5   25 1   
    11    6   10 1   
    12    6   26 1   
    13    6   27 1   
    14    8    9 1   
    15    8   22 2   
    16    9   21 1   
    17   10   13 1   
    18   10   28 1   
    19   10   29 1   
    20   12   21 2   
    21   12   22 1   
    22   13   15 1   
    23   13   30 1   
    24   13   31 1   
    25   14   23 2   
    26   14   24 1   
    27   16   17 1   
    28   16   32 1   
    29   16   33 1   
    30   17   18 1   
    31   17   34 1   
    32   17   35 1   
    33   18   19 1   
    34   18   21 1   
    35   18   36 1   
    36   19   20 1   
    37   19   37 1   
    38   19   38 1   
    39   20   39 1   
    40   20   40 1   
    41   22   23 1   
    42   24   25 2   
    43   24   41 1   
    44   25   42 1   
@<TRIPOS>SUBSTRUCTURE
     1 3SF         1 TEMP              0 ****  ****    0 ROOT
