@<TRIPOS>MOLECULE
3SF
   42    44     1     0     0
SMALL
bcc


@<TRIPOS>ATOM
      1 C          -7.1770    1.1970   -0.1130 c3        1 3SF      0.627900
      2 F          -8.0120    2.0420    0.5770 f         1 3SF     -0.238967
      3 N          -1.5740   -1.6350    0.3350 n         1 3SF     -0.463800
      4 O          -3.0800   -1.5390   -1.3850 o         1 3SF     -0.593100
      5 S           6.9110   -0.3810    0.3990 ss        1 3SF      0.032700
      6 C1         -5.8320    0.9470    0.6160 c3        1 3SF     -0.118400
      7 F1         -7.9280    0.0680   -0.3210 f         1 3SF     -0.238967
      8 N1          3.4870    1.4620   -0.7840 nc        1 3SF     -0.310300
      9 O1          2.3160    0.9130   -0.5650 os        1 3SF     -0.142100
     10 C2         -4.9480    0.0150   -0.1770 c3        1 3SF     -0.082400
     11 F2         -7.0540    1.7710   -1.3520 f         1 3SF     -0.238967
     12 N2          3.8020   -0.5280    0.3250 nd        1 3SF     -0.687000
     13 C3         -3.6470   -0.2330    0.5570 c3        1 3SF     -0.143400
     14 N3          6.4820    1.8830   -0.7670 nc        1 3SF     -0.591000
     15 C4         -2.7490   -1.1550   -0.2460 c         1 3SF      0.656100
     16 C5         -0.6450   -2.4060   -0.4680 c3        1 3SF      0.083500
     17 C6          0.6520   -1.6670   -0.8020 c3        1 3SF     -0.106400
     18 C7          1.2930   -1.1160    0.4670 c3        1 3SF     -0.090000
     19 C8          0.3000   -0.2550    1.2380 c3        1 3SF     -0.106400
     20 C9         -0.9850   -1.0420    1.5120 c3        1 3SF      0.083500
     21 C10         2.5040   -0.3250    0.1250 cc        1 3SF      0.509700
     22 C11         4.4210    0.6220   -0.2610 cd        1 3SF      0.492000
     23 C12         5.8600    0.8020   -0.2610 cd        1 3SF      0.314400
     24 C13         7.8410    1.7300   -0.6060 cc        1 3SF      0.328200
     25 C14         8.2330    0.5450    0.0150 cd        1 3SF     -0.276400
     26 H1         -5.3380    1.9420    0.7600 hc        1 3SF      0.078200
     27 H1A        -6.0700    0.5160    1.6220 hc        1 3SF      0.078200
     28 H2         -5.4770   -0.9610   -0.3510 hc        1 3SF      0.080200
     29 H2A        -4.7360    0.4520   -1.1890 hc        1 3SF      0.080200
     30 H3         -3.1130    0.7410    0.7210 hc        1 3SF      0.066700
     31 H3A        -3.8600   -0.6920    1.5590 hc        1 3SF      0.066700
     32 H5         -0.3930   -3.3380    0.1170 h1        1 3SF      0.063950
     33 H5A        -1.1460   -2.7160   -1.4290 h1        1 3SF      0.063950
     34 H6          1.3510   -2.3830   -1.3040 hc        1 3SF      0.067450
     35 H6A         0.4470   -0.8270   -1.5160 hc        1 3SF      0.067450
     36 H7          1.6110   -1.9810    1.1190 hc        1 3SF      0.087700
     37 H8          0.7440    0.0560    2.2190 hc        1 3SF      0.067450
     38 H8A         0.0730    0.6740    0.6520 hc        1 3SF      0.067450
     39 H9         -1.7160   -0.3620    2.0280 h1        1 3SF      0.063950
     40 H9A        -0.7410   -1.8850    2.2230 h1        1 3SF      0.063950
     41 H13         8.5070    2.5240   -0.9640 h4        1 3SF      0.050100
     42 H14         9.2650    0.2640    0.2190 h4        1 3SF      0.186000
@<TRIPOS>BOND
     1    1    2 1   
     2    1    6 1   
     3    1    7 1   
     4    1   11 1   
     5    3   15 1   
     6    3   16 1   
     7    3   20 1   
     8    4   15 2   
     9    5   23 1   
    10    5   25 1   
    11    6   10 1   
    12    6   26 1   
    13    6   27 1   
    14    8    9 1   
    15    8   22 2   
    16    9   21 1   
    17   10   13 1   
    18   10   28 1   
    19   10   29 1   
    20   12   21 2   
    21   12   22 1   
    22   13   15 1   
    23   13   30 1   
    24   13   31 1   
    25   14   23 2   
    26   14   24 1   
    27   16   17 1   
    28   16   32 1   
    29   16   33 1   
    30   17   18 1   
    31   17   34 1   
    32   17   35 1   
    33   18   19 1   
    34   18   21 1   
    35   18   36 1   
    36   19   20 1   
    37   19   37 1   
    38   19   38 1   
    39   20   39 1   
    40   20   40 1   
    41   22   23 1   
    42   24   25 2   
    43   24   41 1   
    44   25   42 1   
@<TRIPOS>SUBSTRUCTURE
     1 3SF         1 TEMP              0 ****  ****    0 ROOT
