@<TRIPOS>MOLECULE
3SF
   42    44     1     0     0
SMALL
bcc


@<TRIPOS>ATOM
      1 C          -0.0600   -0.4880    0.0320 c3        1 3SF      0.627900
      2 F           1.3120   -0.5410   -0.0320 f         1 3SF     -0.238967
      3 N          -4.7700    0.3840    4.1160 n         1 3SF     -0.463800
      4 O          -4.7830   -0.1930    1.9010 o         1 3SF     -0.593100
      5 S          -8.9630   -2.9950   10.7900 ss        1 3SF      0.032700
      6 C1         -0.5920   -0.2810    1.4740 c3        1 3SF     -0.118400
      7 F1         -0.4050    0.5060   -0.8490 f         1 3SF     -0.238967
      8 N1         -6.5190   -4.1150    7.7440 nc        1 3SF     -0.310300
      9 O1         -6.0360   -3.2280    6.9050 os        1 3SF     -0.142100
     10 C2         -2.1000   -0.2280    1.4950 c3        1 3SF     -0.082400
     11 F2         -0.4770   -1.6490   -0.5670 f         1 3SF     -0.238967
     12 N2         -7.2690   -2.0310    8.3630 nd        1 3SF     -0.687000
     13 C3         -2.6020   -0.0090    2.9070 c3        1 3SF     -0.143400
     14 N3         -8.0160   -5.2930   10.0910 nc        1 3SF     -0.591000
     15 C4         -4.1190    0.0270    2.9330 c         1 3SF      0.656100
     16 C5         -6.2150    0.2930    4.1900 c3        1 3SF      0.083500
     17 C6         -6.7210   -0.8440    5.0810 c3        1 3SF     -0.106400
     18 C7         -6.0680   -0.7740    6.4570 c3        1 3SF     -0.090000
     19 C8         -4.5490   -0.7520    6.3280 c3        1 3SF     -0.106400
     20 C9         -4.1120    0.3850    5.4010 c3        1 3SF      0.083500
     21 C10        -6.4980   -1.9290    7.2860 cc        1 3SF      0.509700
     22 C11        -7.2750   -3.4340    8.6470 cd        1 3SF      0.492000
     23 C12        -8.0120   -3.9870    9.7660 cd        1 3SF      0.314400
     24 C13        -8.8150   -5.4730   11.1990 cc        1 3SF      0.328200
     25 C14        -9.4030   -4.3120   11.6990 cd        1 3SF     -0.276400
     26 H1         -0.1510    0.6730    1.8600 hc        1 3SF      0.078200
     27 H1A        -0.2110   -1.1300    2.0970 hc        1 3SF      0.078200
     28 H2         -2.4660    0.5990    0.8290 hc        1 3SF      0.080200
     29 H2A        -2.5250   -1.1840    1.0850 hc        1 3SF      0.080200
     30 H3         -2.1950    0.9580    3.3060 hc        1 3SF      0.066700
     31 H3A        -2.2460   -0.8420    3.5690 hc        1 3SF      0.066700
     32 H5         -6.5900    1.2730    4.6020 h1        1 3SF      0.063950
     33 H5A        -6.6370    0.1590    3.1530 h1        1 3SF      0.063950
     34 H6         -7.8330   -0.7500    5.1790 hc        1 3SF      0.067450
     35 H6A        -6.4990   -1.8360    4.6090 hc        1 3SF      0.067450
     36 H7         -6.4040    0.1730    6.9710 hc        1 3SF      0.087700
     37 H8         -4.0820   -0.5920    7.3340 hc        1 3SF      0.067450
     38 H8A        -4.1910   -1.7380    5.9340 hc        1 3SF      0.067450
     39 H9         -4.3590    1.3680    5.9000 h1        1 3SF      0.063950
     40 H9A        -2.9950    0.3370    5.2800 h1        1 3SF      0.063950
     41 H13        -8.9330   -6.4850   11.6040 h4        1 3SF      0.050100
     42 H14       -10.0610   -4.2740   12.5650 h4        1 3SF      0.186000
@<TRIPOS>BOND
     1    1    2 1   
     2    1    6 1   
     3    1    7 1   
     4    1   11 1   
     5    3   15 1   
     6    3   16 1   
     7    3   20 1   
     8    4   15 2   
     9    5   23 1   
    10    5   25 1   
    11    6   10 1   
    12    6   26 1   
    13    6   27 1   
    14    8    9 1   
    15    8   22 2   
    16    9   21 1   
    17   10   13 1   
    18   10   28 1   
    19   10   29 1   
    20   12   21 2   
    21   12   22 1   
    22   13   15 1   
    23   13   30 1   
    24   13   31 1   
    25   14   23 2   
    26   14   24 1   
    27   16   17 1   
    28   16   32 1   
    29   16   33 1   
    30   17   18 1   
    31   17   34 1   
    32   17   35 1   
    33   18   19 1   
    34   18   21 1   
    35   18   36 1   
    36   19   20 1   
    37   19   37 1   
    38   19   38 1   
    39   20   39 1   
    40   20   40 1   
    41   22   23 1   
    42   24   25 2   
    43   24   41 1   
    44   25   42 1   
@<TRIPOS>SUBSTRUCTURE
     1 3SF         1 TEMP              0 ****  ****    0 ROOT
