@<TRIPOS>MOLECULE
3SG
   61    61     1     0     0
SMALL
bcc


@<TRIPOS>ATOM
      1 C2          0.9670   -1.1730    1.1350 c3        1 3SG      0.021000
      2 C3          1.2860   -0.0210    0.1890 c1        1 3SG      0.153000
      3 C5         -0.4070    1.6470   -0.6500 c1        1 3SG      0.217000
      4 C6          1.0040   -0.4530    3.5260 c2        1 3SG     -0.205000
      5 C7          0.2850   -0.6490    2.4050 c2        1 3SG     -0.054000
      6 C11        -3.3140    0.4780    2.7540 c2        1 3SG     -0.221000
      7 C12        -3.8230   -0.2530    1.6500 c1        1 3SG     -0.089000
      8 C17        -5.5130    1.4480    3.2120 c2        1 3SG     -0.115000
      9 C18        -4.1070    1.3020    3.5110 c2        1 3SG      0.058000
     10 C19        -6.2980    2.3510    4.0660 c2        1 3SG     -0.097000
     11 C21        -6.2580    2.8920    7.6590 c1        1 3SG      0.287000
     12 C23        -7.8880    2.0400    5.9760 c2        1 3SG     -0.104000
     13 C24        -7.4390    1.7480    4.7370 c2        1 3SG      0.006000
     14 C30       -12.1730   -1.0480    8.6450 c3        1 3SG     -0.137000
     15 C31       -12.4460   -0.6510   10.0400 c1        1 3SG      0.008000
     16 C32       -11.6550    0.3820   10.5920 c2        1 3SG     -0.252000
     17 C33       -10.6550    1.0160    9.8910 c2        1 3SG      0.190000
     18 C35       -12.1950   -2.5460    8.4890 c2        1 3SG      0.344000
     19 C38       -13.1060   -4.3280    7.1840 c3        1 3SG     -0.066000
     20 F1          2.1320   -1.8590    1.4350 f         1 3SG     -0.128000
     21 N4          0.3160    0.7960   -0.2000 n2        1 3SG     -0.348000
     22 N8         -1.0890   -0.3950    2.2530 ns        1 3SG     -0.309000
     23 C9         -1.8640    0.3590    3.1120 c2        1 3SG      0.360000
     24 O10        -1.4150    0.9380    4.1220 o         1 3SG     -0.372000
     25 C13        -5.2310   -0.1080    1.3110 c3        1 3SG     -0.209000
     26 C14        -6.0550    0.7750    2.1640 c2        1 3SG     -0.087000
     27 C20        -5.9690    3.6480    4.1840 c2        1 3SG     -0.125000
     28 C22        -7.3020    3.0290    6.8640 c2        1 3SG     -0.502000
     29 C25        -9.0820    1.3050    6.4870 c2        1 3SG      0.392000
     30 N27        -9.2460    1.2320    7.8610 ns        1 3SG     -0.308000
     31 C28       -10.2980    0.5760    8.5160 c2        1 3SG      0.032000
     32 C29       -10.9790   -0.4750    7.9790 c2        1 3SG     -0.204000
     33 O36       -11.6740   -3.4220    9.1640 o         1 3SG     -0.264000
     34 O37       -12.9030   -2.9200    7.3640 os        1 3SG     -0.357000
     35 H1          0.2860   -1.9070    0.5960 h1        1 3SG      0.117000
     36 H2          2.0820   -0.6650    3.5400 ha        1 3SG      0.151000
     37 H3          0.5730   -0.0720    4.4610 ha        1 3SG      0.151000
     38 H4         -5.2670    0.2630    0.2400 hc        1 3SG      0.176000
     39 H5        -13.9600   -1.2520    3.8560 h4        1 3SG      0.215000
     40 H6         -7.1210    0.8750    1.9060 ha        1 3SG      0.129000
     41 H7         -3.6870    1.8680    4.3640 ha        1 3SG      0.174000
     42 H8         -6.5400    4.3450    4.8120 ha        1 3SG      0.136500
     43 H9         -7.9560    0.9580    4.1560 ha        1 3SG      0.145000
     44 H10       -13.0980   -0.6330    8.1120 hc        1 3SG      0.168000
     45 H11       -11.8670    0.6800   11.6360 ha        1 3SG      0.194000
     46 H12       -13.5950   -4.7600    8.0910 h1        1 3SG      0.102000
     47 H13       -12.1230   -4.8270    7.0030 h1        1 3SG      0.102000
     48 H14       -13.7740   -4.3890    6.2910 h1        1 3SG      0.102000
     49 H15        -1.5670   -0.8660    1.5100 hn        1 3SG      0.261000
     50 H16        -5.6800   -1.1470    1.2850 hc        1 3SG      0.176000
     51 H17       -13.4810   -1.7980    5.6280 h4        1 3SG      0.215000
     52 H18       -12.1900    0.3910    4.0050 hn        1 3SG      0.299000
     53 H20        -5.1130    4.0830    3.6470 ha        1 3SG      0.136500
     54 H21        -7.8020    4.0260    6.8510 ha        1 3SG      0.208000
     55 H22        -8.5930    1.7210    8.4420 hn        1 3SG      0.270000
     56 H23       -10.6450   -0.9510    7.0430 ha        1 3SG      0.148000
     57 C15       -13.3100   -1.1230    4.7500 c2        1 3SG      0.082000
     58 O26        -9.9070    0.7690    5.7030 o         1 3SG     -0.474000
     59 H163      -11.7680   -0.0900    5.5820 hn        1 3SG      0.299000
     60 F34        -9.9570    2.0330   10.4270 f         1 3SG     -0.067000
     61 N16       -12.3850   -0.2240    4.7790 n8        1 3SG     -0.130000
@<TRIPOS>BOND
     1    1    2 1   
     2    1    5 1   
     3    1   20 1   
     4    1   35 1   
     5    2   21 1   
     6    3   21 1   
     7    4    5 1   
     8    4   36 1   
     9    4   37 1   
    10    5   22 1   
    11    6    7 1   
    12    6    9 1   
    13    6   23 1   
    14    7   25 1   
    15    8    9 1   
    16    8   10 1   
    17    8   26 1   
    18    9   41 1   
    19   10   13 1   
    20   10   27 1   
    21   11   28 1   
    22   12   13 1   
    23   12   28 1   
    24   12   29 1   
    25   13   43 1   
    26   14   15 1   
    27   14   18 1   
    28   14   32 1   
    29   14   44 1   
    30   15   16 1   
    31   16   17 1   
    32   16   45 1   
    33   17   31 1   
    34   17   60 1   
    35   18   33 1   
    36   18   34 1   
    37   19   34 1   
    38   19   46 1   
    39   19   47 1   
    40   19   48 1   
    41   22   23 1   
    42   22   49 1   
    43   23   24 1   
    44   25   26 1   
    45   25   38 1   
    46   25   50 1   
    47   26   40 1   
    48   27   42 1   
    49   27   53 1   
    50   28   54 1   
    51   29   30 1   
    52   29   58 1   
    53   30   31 1   
    54   30   55 1   
    55   31   32 1   
    56   32   56 1   
    57   39   57 1   
    58   51   57 1   
    59   52   61 1   
    60   57   61 1   
    61   59   61 1   
@<TRIPOS>SUBSTRUCTURE
     1 3SG         1 TEMP              0 ****  ****    0 ROOT
