@<TRIPOS>MOLECULE
3SG
   61    64     1     0     0
SMALL
bcc


@<TRIPOS>ATOM
      1 C2         -0.2620    1.2580   -0.6600 ca        1 3SG     -0.050400
      2 C3          1.0400    1.6210   -1.0810 ca        1 3SG      0.400200
      3 C5          1.8100    1.6660    1.0830 ca        1 3SG      0.411200
      4 C6          0.5610    1.3080    1.6160 ca        1 3SG     -0.248300
      5 C7         -0.5200    1.0940    0.7390 ca        1 3SG      0.060600
      6 C11        -3.7010    0.2360    2.6270 ca        1 3SG     -0.106600
      7 C12        -4.2890   -0.7700    1.8580 ca        1 3SG     -0.087000
      8 C17        -5.7730    0.5060    3.8810 cp        1 3SG     -0.030000
      9 C18        -4.4400    0.8640    3.6320 ca        1 3SG     -0.061000
     10 C19        -6.4990    1.2480    4.9130 cp        1 3SG     -0.079000
     11 C21        -7.1650    3.3570    5.9190 ca        1 3SG     -0.113000
     12 C23        -8.2250    1.3120    6.6120 ca        1 3SG     -0.162600
     13 C24        -7.3440    0.5840    5.8030 ca        1 3SG     -0.135000
     14 C30       -12.5530   -1.6000    9.3260 ca        1 3SG     -0.123600
     15 C31       -12.9430   -1.0920   10.5680 ca        1 3SG     -0.048000
     16 C32       -12.2720    0.0000   11.1080 ca        1 3SG     -0.152000
     17 C33       -11.2110    0.5940   10.4090 ca        1 3SG      0.125900
     18 C35       -13.2370   -2.7560    8.7200 c         1 3SG      0.645700
     19 C38       -14.9440   -4.3990    8.9380 c3        1 3SG      0.126700
     20 F1         -1.2390    1.0700   -1.5790 f         1 3SG     -0.138900
     21 N4          2.0580    1.8230   -0.2310 nb        1 3SG     -0.644000
     22 N8         -1.8080    0.7240    1.1540 n         1 3SG     -0.458100
     23 C9         -2.2690    0.6490    2.4570 c         1 3SG      0.674700
     24 O10        -1.5770    0.9150    3.4550 o         1 3SG     -0.557100
     25 C13        -5.6110   -1.1370    2.1030 ca        1 3SG     -0.105000
     26 C14        -6.3620   -0.5190    3.1130 ca        1 3SG     -0.133300
     27 C20        -6.3920    2.6480    5.0010 ca        1 3SG     -0.089000
     28 C22        -8.1150    2.6980    6.7070 ca        1 3SG     -0.079000
     29 C25        -9.3830    0.5370    7.1550 c         1 3SG      0.690700
     30 N27        -9.7200    0.6930    8.4690 n         1 3SG     -0.418100
     31 C28       -10.8030    0.0810    9.1360 ca        1 3SG     -0.014400
     32 C29       -11.4930   -1.0260    8.6160 ca        1 3SG     -0.071000
     33 O36       -12.9920   -3.2830    7.6300 o         1 3SG     -0.542000
     34 O37       -14.2480   -3.2710    9.4790 os        1 3SG     -0.430900
     35 H1          1.2540    1.7500   -2.1580 h4        1 3SG      0.047100
     36 H2          2.6710    1.8380    1.7570 h4        1 3SG      0.040100
     37 H3          0.4460    1.2010    2.7060 ha        1 3SG      0.185000
     38 H4         -3.7190   -1.2960    1.0740 ha        1 3SG      0.166000
     39 H5         -8.0100   -1.7620    2.4760 hx        1 3SG      0.111700
     40 H6         -7.6890   -1.7570    4.2710 hx        1 3SG      0.111700
     41 H7         -3.9510    1.6360    4.2540 ha        1 3SG      0.179000
     42 H8         -7.0460    4.4500    6.0070 ha        1 3SG      0.168000
     43 H9         -7.3360   -0.5160    5.8760 ha        1 3SG      0.153000
     44 H10       -13.7800   -1.5580   11.1160 ha        1 3SG      0.177000
     45 H11       -12.5650    0.4120   12.0870 ha        1 3SG      0.172000
     46 H12       -15.4250   -4.1180    7.9700 h1        1 3SG      0.058700
     47 H13       -14.2320   -5.2450    8.7840 h1        1 3SG      0.058700
     48 H14       -15.7040   -4.6360    9.7230 h1        1 3SG      0.058700
     49 H15        -2.4600    0.5530    0.4180 hn        1 3SG      0.331500
     50 H16        -6.0580   -1.9410    1.4940 ha        1 3SG      0.151000
     51 H17        -8.4660    0.8430    3.4640 hn        1 3SG      0.469800
     52 H18        -9.5500   -0.2480    2.8180 hn        1 3SG      0.469800
     53 H20        -5.6950    3.1870    4.3380 ha        1 3SG      0.161000
     54 H21        -8.7770    3.2750    7.3730 ha        1 3SG      0.163000
     55 H22        -9.1740    1.3230    9.0200 hn        1 3SG      0.346500
     56 H23       -11.2190   -1.4630    7.6370 ha        1 3SG      0.189000
     57 C15        -7.7240   -1.1010    3.3490 c3        1 3SG      0.164100
     58 O26        -9.9820   -0.2180    6.3430 o         1 3SG     -0.674100
     59 H163       -9.2650   -0.2290    4.4720 hn        1 3SG      0.469800
     60 F34       -10.5690    1.6560   10.9520 f         1 3SG     -0.132900
     61 N16        -8.8310   -0.1140    3.5310 n4        1 3SG     -0.852600
@<TRIPOS>BOND
     1    1    2 ar  
     2    1    5 ar  
     3    1   20 1   
     4    2   21 ar  
     5    2   35 1   
     6    3    4 ar  
     7    3   21 ar  
     8    3   36 1   
     9    4    5 ar  
    10    4   37 1   
    11    5   22 1   
    12    6    7 ar  
    13    6    9 ar  
    14    6   23 1   
    15    7   25 ar  
    16    7   38 1   
    17    8    9 ar  
    18    8   10 1   
    19    8   26 ar  
    20    9   41 1   
    21   10   13 ar  
    22   10   27 ar  
    23   11   27 ar  
    24   11   28 ar  
    25   11   42 1   
    26   12   13 ar  
    27   12   28 ar  
    28   12   29 1   
    29   13   43 1   
    30   14   15 ar  
    31   14   18 1   
    32   14   32 ar  
    33   15   16 ar  
    34   15   44 1   
    35   16   17 ar  
    36   16   45 1   
    37   17   31 ar  
    38   17   60 1   
    39   18   33 2   
    40   18   34 1   
    41   19   34 1   
    42   19   46 1   
    43   19   47 1   
    44   19   48 1   
    45   22   23 1   
    46   22   49 1   
    47   23   24 2   
    48   25   26 ar  
    49   25   50 1   
    50   26   57 1   
    51   27   53 1   
    52   28   54 1   
    53   29   30 1   
    54   29   58 2   
    55   30   31 1   
    56   30   55 1   
    57   31   32 ar  
    58   32   56 1   
    59   39   57 1   
    60   40   57 1   
    61   51   61 1   
    62   52   61 1   
    63   57   61 1   
    64   59   61 1   
@<TRIPOS>SUBSTRUCTURE
     1 3SG         1 TEMP              0 ****  ****    0 ROOT
