@<TRIPOS>MOLECULE
3SH
   42    44     1     0     0
SMALL
bcc


@<TRIPOS>ATOM
      1 C1         -0.4040   -0.2610    0.4120 ca        1 3SH      0.118600
      2 C2          0.8980   -0.7120    0.0920 ca        1 3SH     -0.157000
      3 C3          1.9580   -0.4580    0.9510 ca        1 3SH     -0.099000
      4 C4          1.7780    0.2540    2.1440 ca        1 3SH     -0.077300
      5 C5          0.4850    0.6960    2.4600 ca        1 3SH      0.038400
      6 C6         -0.6000    0.4410    1.6170 ca        1 3SH     -0.146000
      7 C7          2.9280    0.5220    3.0350 c3        1 3SH     -0.055800
      8 N9         -1.4930   -0.5970   -0.4270 nh        1 3SH     -0.683300
      9 C10        -2.3770    0.3980   -0.8530 cc        1 3SH      0.614300
     10 S11        -2.9360    1.6610    0.1820 ss        1 3SH     -0.005300
     11 C12        -3.9610    2.2310   -1.0240 cc        1 3SH     -0.290000
     12 C13        -3.8680    1.4350   -2.1770 cd        1 3SH      0.505800
     13 N14        -2.9600    0.3920   -2.0800 nd        1 3SH     -0.695000
     14 C15        -4.6380    1.5960   -3.4120 ca        1 3SH     -0.151500
     15 C16        -4.6970    2.8330   -4.0660 ca        1 3SH     -0.087500
     16 C17        -5.4230    2.9590   -5.2500 ca        1 3SH     -0.141500
     17 C18        -6.0890    1.8590   -5.7880 ca        1 3SH     -0.115000
     18 C19        -6.0280    0.6240   -5.1410 ca        1 3SH     -0.141500
     19 C20        -5.3010    0.4880   -3.9600 ca        1 3SH     -0.087500
     20 C21        -4.8090    3.3950   -0.8400 c         1 3SH      0.689700
     21 O22        -5.0540    4.3180   -1.6200 o         1 3SH     -0.535000
     22 O23        -5.3770    3.4540    0.4090 os        1 3SH     -0.443900
     23 C24        -6.2310    4.5840    0.6670 c3        1 3SH      0.140400
     24 C25        -6.7340    4.4160    2.0790 c3        1 3SH     -0.101100
     25 CL8         0.1960    1.5570    3.8990 cl        1 3SH     -0.084400
     26 H1          1.0810   -1.2700   -0.8390 ha        1 3SH      0.142000
     27 H2          2.9650   -0.8180    0.6860 ha        1 3SH      0.143000
     28 H3         -1.6060    0.7750    1.9250 ha        1 3SH      0.156000
     29 H4          3.0650    1.6240    3.1720 hc        1 3SH      0.053033
     30 H5          2.7530    0.0660    4.0430 hc        1 3SH      0.053033
     31 H6          3.8730    0.0980    2.6150 hc        1 3SH      0.053033
     32 H7         -1.2540   -1.2640   -1.1400 hn        1 3SH      0.435800
     33 H8         -4.1840    3.7090   -3.6370 ha        1 3SH      0.151000
     34 H9         -5.4690    3.9340   -5.7570 ha        1 3SH      0.133500
     35 H10        -6.6620    1.9630   -6.7210 ha        1 3SH      0.131000
     36 H11        -6.5510   -0.2460   -5.5630 ha        1 3SH      0.133500
     37 H12        -5.2470   -0.4900   -3.4570 ha        1 3SH      0.151000
     38 H13        -5.6310    5.5230    0.5420 h1        1 3SH      0.052700
     39 H14        -7.0660    4.5810   -0.0810 h1        1 3SH      0.052700
     40 H15        -7.2970    3.4570    2.1840 hc        1 3SH      0.048367
     41 H16        -7.4110    5.2680    2.3270 hc        1 3SH      0.048367
     42 H17        -5.8830    4.4030    2.8010 hc        1 3SH      0.048367
@<TRIPOS>BOND
     1    1    2 ar  
     2    1    6 ar  
     3    1    8 1   
     4    2    3 ar  
     5    2   26 1   
     6    3    4 ar  
     7    3   27 1   
     8    4    5 ar  
     9    4    7 1   
    10    5    6 ar  
    11    5   25 1   
    12    6   28 1   
    13    7   29 1   
    14    7   30 1   
    15    7   31 1   
    16    8    9 1   
    17    8   32 1   
    18    9   10 1   
    19    9   13 2   
    20   10   11 1   
    21   11   12 2   
    22   11   20 1   
    23   12   13 1   
    24   12   14 1   
    25   14   15 ar  
    26   14   19 ar  
    27   15   16 ar  
    28   15   33 1   
    29   16   17 ar  
    30   16   34 1   
    31   17   18 ar  
    32   17   35 1   
    33   18   19 ar  
    34   18   36 1   
    35   19   37 1   
    36   20   21 2   
    37   20   22 1   
    38   22   23 1   
    39   23   24 1   
    40   23   38 1   
    41   23   39 1   
    42   24   40 1   
    43   24   41 1   
    44   24   42 1   
@<TRIPOS>SUBSTRUCTURE
     1 3SH         1 TEMP              0 ****  ****    0 ROOT
