@<TRIPOS>MOLECULE
3SH
   42    44     1     0     0
SMALL
bcc


@<TRIPOS>ATOM
      1 C1         -0.3850   -0.2430    0.4000 ca        1 3SH      0.118600
      2 C2          0.9200   -0.6800    0.0750 ca        1 3SH     -0.157000
      3 C3          1.9790   -0.4200    0.9340 ca        1 3SH     -0.099000
      4 C4          1.7950    0.2850    2.1300 ca        1 3SH     -0.077300
      5 C5          0.4990    0.7140    2.4500 ca        1 3SH      0.038400
      6 C6         -0.5850    0.4530    1.6070 ca        1 3SH     -0.146000
      7 C7          2.9450    0.5600    3.0200 c3        1 3SH     -0.055800
      8 N9         -1.4730   -0.5860   -0.4390 nu        1 3SH     -0.683300
      9 C10        -2.3670    0.4030   -0.8600 cc        1 3SH      0.614300
     10 S11        -2.9350    1.6580    0.1820 ss        1 3SH     -0.005300
     11 C12        -3.9670    2.2230   -1.0200 cc        1 3SH     -0.290000
     12 C13        -3.8690    1.4330   -2.1760 cd        1 3SH      0.506800
     13 N14        -2.9520    0.3970   -2.0850 nd        1 3SH     -0.695000
     14 C15        -4.6430    1.5910   -3.4090 ca        1 3SH     -0.151500
     15 C16        -4.7150    2.8300   -4.0590 ca        1 3SH     -0.087500
     16 C17        -5.4440    2.9540   -5.2410 ca        1 3SH     -0.141500
     17 C18        -6.1020    1.8500   -5.7810 ca        1 3SH     -0.115000
     18 C19        -6.0280    0.6140   -5.1380 ca        1 3SH     -0.141500
     19 C20        -5.2980    0.4790   -3.9600 ca        1 3SH     -0.087500
     20 C21        -4.8250    3.3780   -0.8300 c         1 3SH      0.689700
     21 O22        -5.0800    4.3020   -1.6060 o         1 3SH     -0.535000
     22 O23        -5.3900    3.4280    0.4210 os        1 3SH     -0.443900
     23 C24        -6.2540    4.5490    0.6850 c3        1 3SH      0.140400
     24 C25        -6.7510    4.3720    2.0980 c3        1 3SH     -0.101100
     25 Cl8         0.2040    1.5670    3.8930 cl        1 3SH     -0.084400
     26 H1          1.1070   -1.2330   -0.8590 ha        1 3SH      0.142000
     27 H2          2.9890   -0.7700    0.6650 ha        1 3SH      0.143000
     28 H3         -1.5930    0.7760    1.9190 ha        1 3SH      0.156000
     29 H4          2.7750    0.0980    4.0260 hc        1 3SH      0.053033
     30 H5          3.8920    0.1460    2.5960 hc        1 3SH      0.053033
     31 H6          3.0720    1.6630    3.1610 hc        1 3SH      0.053033
     32 H7         -1.2280   -1.2480   -1.1550 hn        1 3SH      0.435800
     33 H8         -4.2080    3.7090   -3.6270 ha        1 3SH      0.151000
     34 H9         -5.5000    3.9300   -5.7440 ha        1 3SH      0.133500
     35 H10        -6.6780    1.9520   -6.7120 ha        1 3SH      0.131000
     36 H11        -6.5450   -0.2590   -5.5630 ha        1 3SH      0.133500
     37 H12        -5.2340   -0.5000   -3.4610 ha        1 3SH      0.151000
     38 H13        -5.6630    5.4940    0.5620 h1        1 3SH      0.052700
     39 H14        -7.0910    4.5410   -0.0600 h1        1 3SH      0.052700
     40 H15        -5.8980    4.3650    2.8180 hc        1 3SH      0.048367
     41 H16        -7.3050    3.4080    2.2010 hc        1 3SH      0.048367
     42 H17        -7.4360    5.2160    2.3500 hc        1 3SH      0.048367
@<TRIPOS>BOND
     1    1    2 ar  
     2    1    6 ar  
     3    1    8 1   
     4    2    3 ar  
     5    2   26 1   
     6    3    4 ar  
     7    3   27 1   
     8    4    5 ar  
     9    4    7 1   
    10    5    6 ar  
    11    5   25 1   
    12    6   28 1   
    13    7   29 1   
    14    7   30 1   
    15    7   31 1   
    16    8    9 1   
    17    8   32 1   
    18    9   10 1   
    19    9   13 2   
    20   10   11 1   
    21   11   12 2   
    22   11   20 1   
    23   12   13 1   
    24   12   14 1   
    25   14   15 ar  
    26   14   19 ar  
    27   15   16 ar  
    28   15   33 1   
    29   16   17 ar  
    30   16   34 1   
    31   17   18 ar  
    32   17   35 1   
    33   18   19 ar  
    34   18   36 1   
    35   19   37 1   
    36   20   21 2   
    37   20   22 1   
    38   22   23 1   
    39   23   24 1   
    40   23   38 1   
    41   23   39 1   
    42   24   40 1   
    43   24   41 1   
    44   24   42 1   
@<TRIPOS>SUBSTRUCTURE
     1 3SH         1 TEMP              0 ****  ****    0 ROOT
