@<TRIPOS>MOLECULE
3SJ
   54    52     1     0     0
SMALL
bcc


@<TRIPOS>ATOM
      1 C31        -1.1380    0.5540    0.4730 c2        1 3SJ     -0.082000
      2 C30         0.1060    0.6330   -0.1680 c1        1 3SJ     -0.130000
      3 C32        -1.3690    0.3410    1.7800 c2        1 3SJ     -0.074000
      4 C25        -0.9100   -1.7810    3.9830 c1        1 3SJ      0.169000
      5 C19         1.6030   -1.5230    7.3310 c2        1 3SJ     -0.154000
      6 C20         3.2930   -0.1240    6.0950 c3        1 3SJ     -0.055000
      7 C29         1.1470    0.7150   -0.7560 c1        1 3SJ     -0.213000
      8 C21         2.3640   -1.2960    8.3860 c1        1 3SJ     -0.055000
      9 C17         3.8360   -0.1050    7.4250 c1        1 3SJ     -0.148000
     10 C26         0.1130   -1.9500    4.8100 c2        1 3SJ     -0.474000
     11 C4          6.7260    1.1590   13.2720 c1        1 3SJ     -0.028000
     12 C27        -0.4210    0.1280    2.8480 c2        1 3SJ     -0.200000
     13 C18         2.0210   -0.9540    6.0440 c2        1 3SJ     -0.120000
     14 C3          6.3770    1.3610   11.7870 c3        1 3SJ     -0.093000
     15 C28         0.8600   -0.3090    2.6570 c2        1 3SJ      0.000000
     16 C16         3.5710   -0.5750    8.6180 c2        1 3SJ      0.119000
     17 C22         1.3330   -1.1400    4.8810 c2        1 3SJ      0.077000
     18 C2          5.0660    0.5360   11.6970 c2        1 3SJ     -0.190000
     19 C12         2.5840    3.5950   10.1090 c2        1 3SJ      0.068000
     20 C11         2.9380    4.6910   10.7120 c1        1 3SJ     -0.466000
     21 C9          7.1520    3.6730   11.5250 c1        1 3SJ      0.047000
     22 C8          6.1880    2.7770   11.4220 c2        1 3SJ     -0.275000
     23 C10         3.2760    5.7630   11.3020 c1        1 3SJ      0.323000
     24 C1          4.2510    0.5910   10.4810 c1        1 3SJ      0.129000
     25 N24         1.7730   -0.5490    3.6710 n3        1 3SJ     -0.255000
     26 N6          4.7640   -0.0150   12.8560 n2        1 3SJ     -0.046000
     27 N5          5.7440    0.3730   13.7680 n3        1 3SJ     -0.177000
     28 N13         8.0720    4.4820   11.4600 n2        1 3SJ     -0.220000
     29 O23         3.5990    6.7700   11.8620 o         1 3SJ     -0.185000
     30 O15         4.2650   -0.5680    9.8170 os        1 3SJ     -0.093000
     31 H1         -2.4220    0.3250    2.1240 ha        1 3SJ      0.139000
     32 H2          2.0640    0.7920   -1.2820 ha        1 3SJ      0.225000
     33 H3         -2.0020    0.6980   -0.2070 ha        1 3SJ      0.143000
     34 H4         -0.7720    0.4640    3.8460 ha        1 3SJ      0.159000
     35 H5          0.6660   -2.0980    7.3840 ha        1 3SJ      0.184000
     36 H6          2.6830   -0.8410    3.3790 hn        1 3SJ      0.223000
     37 H7          1.2540   -0.4640    1.6290 h4        1 3SJ      0.158000
     38 H8          3.0670    0.9280    5.7530 hc        1 3SJ      0.132500
     39 H9          4.0530   -0.5530    5.3800 hc        1 3SJ      0.132500
     40 H10         0.0730   -2.8040    5.5160 ha        1 3SJ      0.192000
     41 H11         7.1680    0.8740   11.1530 hc        1 3SJ      0.145000
     42 H12         3.1770    2.6600   10.1660 ha        1 3SJ      0.128000
     43 H13         1.6640    3.5360    9.5020 ha        1 3SJ      0.128000
     44 H14         5.1980    3.0760   11.0400 ha        1 3SJ      0.172000
     45 H15         6.5530    0.3510   15.6900 h1        1 3SJ      0.097667
     46 H16         5.6790   -1.1860   15.1970 h1        1 3SJ      0.097667
     47 H17         4.7200    0.3110   15.6170 h1        1 3SJ      0.097667
     48 H18         8.3050    5.0970   12.2360 hn        1 3SJ      0.257000
     49 H19         7.5600    6.4930   14.4380 ha        1 3SJ      0.034500
     50 H20         9.3840    6.5000   14.3020 ha        1 3SJ      0.034500
     51 H21         5.5220    1.4250    8.5360 ha        1 3SJ      0.004500
     52 H22         5.8450    1.7060    9.0640 ha        1 3SJ      0.004500
     53 C7          5.6650   -0.0650   15.1440 c3        1 3SJ     -0.056000
     54 C14         8.4350    6.1660   13.8600 c1        1 3SJ     -0.034000
@<TRIPOS>BOND
     1    1    2 1   
     2    1    3 1   
     3    1   33 1   
     4    2    7 1   
     5    3   12 1   
     6    3   31 1   
     7    4   10 1   
     8    5    8 1   
     9    5   13 1   
    10    5   35 1   
    11    6    9 1   
    12    6   13 1   
    13    6   38 1   
    14    6   39 1   
    15    7   32 1   
    16    8   16 1   
    17    9   16 1   
    18   10   17 1   
    19   10   40 1   
    20   11   14 1   
    21   11   27 1   
    22   12   15 1   
    23   12   34 1   
    24   13   17 1   
    25   14   18 1   
    26   14   22 1   
    27   14   41 1   
    28   15   25 1   
    29   15   37 1   
    30   16   30 1   
    31   17   25 1   
    32   18   24 1   
    33   18   26 1   
    34   19   20 1   
    35   19   42 1   
    36   19   43 1   
    37   20   23 1   
    38   21   22 1   
    39   21   28 1   
    40   22   44 1   
    41   23   29 1   
    42   24   30 1   
    43   25   36 1   
    44   26   27 1   
    45   27   53 1   
    46   28   48 1   
    47   45   53 1   
    48   46   53 1   
    49   47   53 1   
    50   49   54 1   
    51   50   54 1   
    52   51   52 1   
@<TRIPOS>SUBSTRUCTURE
     1 3SJ         1 TEMP              0 ****  ****    0 ROOT
