@<TRIPOS>MOLECULE
3SJ
   54    53     1     0     0
SMALL
bcc


@<TRIPOS>ATOM
      1 C31         0.2160    1.5270    0.6730 c2        1 3SJ     -0.045000
      2 C30        -0.3990    1.7920   -0.5590 c1        1 3SJ     -0.146000
      3 C32         0.6710    0.3100    1.0270 c2        1 3SJ     -0.110000
      4 C25         0.5120   -1.9190    3.4760 c1        1 3SJ      0.216000
      5 C19         1.6580   -1.3860    7.6210 c2        1 3SJ     -0.226000
      6 C20         3.6920   -0.2980    6.7220 c3        1 3SJ     -0.232000
      7 C29        -0.9280    2.0400   -1.6060 c1        1 3SJ     -0.182000
      8 C21         2.2570   -1.4090    8.9170 c1        1 3SJ      0.009000
      9 C17         4.4280   -0.6990    7.9090 c1        1 3SJ      0.024000
     10 C26         0.8860   -1.7540    4.7370 c2        1 3SJ     -0.506000
     11 C4          6.4390    1.0720   13.5250 c1        1 3SJ     -0.035000
     12 C27         1.3080    0.0030    2.2880 c2        1 3SJ     -0.148000
     13 C18         2.2970   -0.8100    6.5700 c2        1 3SJ     -0.028000
     14 C3          6.2660    1.0010   11.9980 c3        1 3SJ     -0.144000
     15 C28         1.1520    0.7530    3.4130 c2        1 3SJ     -0.085000
     16 C16         3.7280   -1.5500    8.9030 c3        1 3SJ     -0.093000
     17 C22         1.6450   -0.6100    5.2580 c2        1 3SJ      0.104000
     18 C2          5.0120    0.0950   11.9000 c2        1 3SJ     -0.171000
     19 C12         2.3330    4.1730   10.1870 c2        1 3SJ      0.066000
     20 C11         3.2260    5.0850    9.9560 c1        1 3SJ     -0.454000
     21 C9          6.6550    3.4350   11.8340 c2        1 3SJ     -0.115000
     22 C8          6.0710    2.3170   11.3570 c2        1 3SJ     -0.112000
     23 C10         4.1250    5.9600    9.7440 c1        1 3SJ      0.352000
     24 C1          4.3740   -0.0970   10.5960 c1        1 3SJ      0.095000
     25 N24         1.7520    0.5340    4.6480 n2        1 3SJ     -0.149000
     26 N6          4.5870   -0.2650   13.0960 n2        1 3SJ     -0.047000
     27 N5          5.4310    0.3280   14.0330 n3        1 3SJ     -0.172000
     28 N13         6.4590    4.6910   11.2290 n2        1 3SJ     -0.167000
     29 O23         4.9530    6.8000    9.5450 o         1 3SJ     -0.185000
     30 O15         4.2950   -1.3630   10.2300 os        1 3SJ     -0.124000
     31 H1          0.5790   -0.5470    0.3370 ha        1 3SJ      0.146000
     32 H2         -1.3960    2.2620   -2.5310 ha        1 3SJ      0.226000
     33 H3          0.3160    2.4010    1.3440 ha        1 3SJ      0.139000
     34 H4          2.0240   -0.8430    2.2430 ha        1 3SJ      0.152000
     35 H5          0.6210   -1.7550    7.5450 ha        1 3SJ      0.170000
     36 H6          4.3110   -0.5640    5.8140 hc        1 3SJ      0.184500
     37 H7          0.5310    1.6730    3.4090 h4        1 3SJ      0.167000
     38 H8          4.0060   -2.6320    8.6750 h1        1 3SJ      0.193000
     39 H9          3.6760    0.8410    6.7400 hc        1 3SJ      0.184500
     40 H10         0.6010   -2.5280    5.4770 ha        1 3SJ      0.201000
     41 H11         7.1520    0.4730   11.5480 hc        1 3SJ      0.156000
     42 H12         2.2430    3.2610    9.5700 ha        1 3SJ      0.109000
     43 H13         1.6100    4.2520   11.0160 ha        1 3SJ      0.109000
     44 H14         5.4290    2.3120   10.4600 ha        1 3SJ      0.158000
     45 H15         5.9900    0.6900   16.0100 h1        1 3SJ      0.099333
     46 H16         5.2490   -0.9600   15.7000 h1        1 3SJ      0.099333
     47 H17         4.1840    0.5240   15.7290 h1        1 3SJ      0.099333
     48 H18         8.1120    5.6730   12.1580 h4        1 3SJ      0.118500
     49 H19         7.2880    3.3810   12.7470 h4        1 3SJ      0.134000
     50 H20         7.0090    6.6350   10.9760 h4        1 3SJ      0.118500
     51 H21         2.4000    0.9110    9.5450 ha        1 3SJ      0.007000
     52 H22         2.2850    0.9790    8.8770 ha        1 3SJ      0.007000
     53 C7          5.1970    0.1320   15.4470 c3        1 3SJ     -0.057000
     54 C14         7.2340    5.6760   11.4830 c2        1 3SJ     -0.106000
@<TRIPOS>BOND
     1    1    2 1   
     2    1    3 1   
     3    1   33 1   
     4    2    7 1   
     5    3   12 1   
     6    3   31 1   
     7    4   10 1   
     8    5    8 1   
     9    5   13 1   
    10    5   35 1   
    11    6    9 1   
    12    6   13 1   
    13    6   36 1   
    14    6   39 1   
    15    7   32 1   
    16    8   16 1   
    17    9   16 1   
    18   10   17 1   
    19   10   40 1   
    20   11   14 1   
    21   11   27 1   
    22   12   15 1   
    23   12   34 1   
    24   13   17 1   
    25   14   18 1   
    26   14   22 1   
    27   14   41 1   
    28   15   25 1   
    29   15   37 1   
    30   16   30 1   
    31   16   38 1   
    32   17   25 1   
    33   18   24 1   
    34   18   26 1   
    35   19   20 1   
    36   19   42 1   
    37   19   43 1   
    38   20   23 1   
    39   21   22 1   
    40   21   28 1   
    41   21   49 1   
    42   22   44 1   
    43   23   29 1   
    44   24   30 1   
    45   26   27 1   
    46   27   53 1   
    47   28   54 1   
    48   45   53 1   
    49   46   53 1   
    50   47   53 1   
    51   48   54 1   
    52   50   54 1   
    53   51   52 1   
@<TRIPOS>SUBSTRUCTURE
     1 3SJ         1 TEMP              0 ****  ****    0 ROOT
