@<TRIPOS>MOLECULE
3SK
   17    17     1     0     0
SMALL
bcc


@<TRIPOS>ATOM
      1 O8         -0.0190    0.1620    0.1330 o         1 3SK     -0.834800
      2 C1          1.2350    0.0110    0.0830 c         1 3SK      0.906200
      3 O9          1.9600   -0.1260    1.1100 o         1 3SK     -0.834800
      4 C2          1.9310    0.0020   -1.2720 ca        1 3SK     -0.123600
      5 C3          3.3220    0.1650   -1.2920 ca        1 3SK     -0.105000
      6 C4          4.0300    0.1720   -2.4910 ca        1 3SK     -0.172000
      7 C5          3.3500    0.0090   -3.6970 ca        1 3SK     -0.156000
      8 C6          1.9680   -0.1590   -3.6920 ca        1 3SK     -0.168000
      9 C7          1.2480   -0.1620   -2.4890 ca        1 3SK     -0.048300
     10 C10        -0.2220   -0.3350   -2.5190 c3        1 3SK     -0.041800
     11 H2          3.8410    0.2790   -0.3260 ha        1 3SK      0.151000
     12 H3          5.1210    0.3020   -2.4880 ha        1 3SK      0.102000
     13 H4          3.9000    0.0120   -4.6470 ha        1 3SK      0.098000
     14 H5          1.4330   -0.2890   -4.6440 ha        1 3SK      0.102000
     15 H6         -0.5240   -1.1680   -1.8340 hc        1 3SK      0.042033
     16 H7         -0.7170    0.5920   -2.1330 hc        1 3SK      0.042033
     17 H8         -0.5910   -0.5510   -3.5520 hc        1 3SK      0.042033
@<TRIPOS>BOND
     1    1    2 1   
     2    2    3 1   
     3    2    4 1   
     4    4    5 ar  
     5    4    9 ar  
     6    5    6 ar  
     7    5   11 1   
     8    6    7 ar  
     9    6   12 1   
    10    7    8 ar  
    11    7   13 1   
    12    8    9 ar  
    13    8   14 1   
    14    9   10 1   
    15   10   15 1   
    16   10   16 1   
    17   10   17 1   
@<TRIPOS>SUBSTRUCTURE
     1 3SK         1 TEMP              0 ****  ****    0 ROOT
