@<TRIPOS>MOLECULE
3SL
   14    13     1     0     0
SMALL
bcc


@<TRIPOS>ATOM
      1 O11        -0.0360   -0.2670    0.2180 o         1 3SL     -0.869800
      2 C1          1.2200   -0.1520    0.1430 c         1 3SL      0.887600
      3 O12         1.8410   -0.0740   -0.9650 o         1 3SL     -0.869800
      4 C2          2.0730   -0.1300    1.4340 c3        1 3SL      0.076100
      5 O2          3.4030   -0.5360    1.1320 oh        1 3SL     -0.637800
      6 C3          2.0610    1.2500    2.0710 c3        1 3SL     -0.312600
      7 S           2.4970    1.3990    3.7670 s6        1 3SL      1.408800
      8 O3S         3.8500    1.8550    3.8050 o         1 3SL     -0.768533
      9 O1S         2.3090    0.1510    4.4230 o         1 3SL     -0.768533
     10 O2S         1.6090    2.4040    4.2740 o         1 3SL     -0.768533
     11 H2          1.6940   -0.8930    2.1680 h1        1 3SL      0.066700
     12 HO2         3.5920   -0.2030    0.2420 ho        1 3SL      0.402000
     13 H31         1.0230    1.6520    1.9400 h1        1 3SL      0.077700
     14 H32         2.7390    1.9080    1.4730 h1        1 3SL      0.077700
@<TRIPOS>BOND
     1    1    2 1   
     2    2    3 1   
     3    2    4 1   
     4    4    5 1   
     5    4    6 1   
     6    4   11 1   
     7    5   12 1   
     8    6    7 1   
     9    6   13 1   
    10    6   14 1   
    11    7    8 1   
    12    7    9 1   
    13    7   10 1   
@<TRIPOS>SUBSTRUCTURE
     1 3SL         1 TEMP              0 ****  ****    0 ROOT
