@<TRIPOS>MOLECULE
3SL
   14    12     1     0     0
SMALL
bcc


@<TRIPOS>ATOM
      1 O11        -2.4310    0.4160   -1.4900 o         1 3SL     -0.869800
      2 C1         -1.1910    0.6280   -1.5670 c         1 3SL      0.887600
      3 O12        -0.6430    0.7140   -2.6850 o         1 3SL     -0.869800
      4 C2         -0.3480    0.6320   -0.3090 c3        1 3SL      0.076100
      5 O2         -0.9970    1.3750    0.6890 oh        1 3SL     -0.637800
      6 C3         -0.1420   -0.8010    0.1720 c3        1 3SL     -0.347100
      7 S           1.3560   -0.9050    1.0430 s4        1 3SL      1.628500
      8 O3S         1.7580   -2.3400    1.2700 o         1 3SL     -0.698900
      9 O1S         2.5180   -0.4010    0.1990 o         1 3SL     -0.698900
     10 O2S         1.2600   -0.1540    2.3410 os        1 3SL     -1.093000
     11 H2          0.5710    1.0620   -0.5130 h1        1 3SL      0.066700
     12 HO2        -0.7270    2.2010    0.6550 ho        1 3SL      0.402000
     13 H31        -0.1140   -1.3740   -0.5580 h1        1 3SL      0.077700
     14 H32        -0.8710   -1.0540    0.7530 h1        1 3SL      0.077700
@<TRIPOS>BOND
     1    1    2 1   
     2    2    3 1   
     3    2    4 1   
     4    4    5 1   
     5    4    6 1   
     6    4   11 1   
     7    5   12 1   
     8    6    7 1   
     9    6   13 1   
    10    6   14 1   
    11    7    8 1   
    12    7    9 1   
@<TRIPOS>SUBSTRUCTURE
     1 3SL         1 TEMP              0 ****  ****    0 ROOT
