@<TRIPOS>MOLECULE
3SL
   14    13     1     0     0
SMALL
bcc


@<TRIPOS>ATOM
      1 O11        -0.0080   -0.2400    0.1690 o         1 3SL     -0.869800
      2 C1          1.2510   -0.1440    0.1240 c         1 3SL      0.887600
      3 O12         1.8990   -0.0790   -0.9690 o         1 3SL     -0.869800
      4 C2          2.0730   -0.1300    1.4350 c3        1 3SL      0.076100
      5 O2          3.4030   -0.5580    1.1660 oh        1 3SL     -0.637800
      6 C3          2.0660    1.2520    2.0670 c3        1 3SL     -0.312600
      7 S           2.4630    1.4000    3.7720 s6        1 3SL      1.408800
      8 O3S         3.8210    1.8350    3.8430 o         1 3SL     -0.768533
      9 O1S         2.2400    0.1570    4.4280 o         1 3SL     -0.768533
     10 O2S         1.5780    2.4200    4.2550 o         1 3SL     -0.768533
     11 H2          1.6640   -0.8850    2.1620 h1        1 3SL      0.066700
     12 HO2         3.6180   -0.2310    0.2810 ho        1 3SL      0.402000
     13 H31         2.7690    1.8970    1.4840 h1        1 3SL      0.077700
     14 H32         1.0380    1.6690    1.9090 h1        1 3SL      0.077700
@<TRIPOS>BOND
     1    1    2 1   
     2    2    3 1   
     3    2    4 1   
     4    4    5 1   
     5    4    6 1   
     6    4   11 1   
     7    5   12 1   
     8    6    7 1   
     9    6   13 1   
    10    6   14 1   
    11    7    8 1   
    12    7    9 1   
    13    7   10 1   
@<TRIPOS>SUBSTRUCTURE
     1 3SL         1 TEMP              0 ****  ****    0 ROOT
