@<TRIPOS>MOLECULE
3SL
   14    13     1     0     0
SMALL
bcc


@<TRIPOS>ATOM
      1 O11        -1.5370    0.3240    2.7110 o         1 3SL     -0.869800
      2 C1         -0.3610   -0.0090    2.3890 c         1 3SL      0.887600
      3 O12         0.4090   -0.6570    3.1670 o         1 3SL     -0.869800
      4 C2          0.2070    0.3990    1.0090 c3        1 3SL      0.076100
      5 O2          1.6290    0.4180    1.0680 oh        1 3SL     -0.637800
      6 C3         -0.2760   -0.5450   -0.0790 c3        1 3SL     -0.312600
      7 S          -0.2100   -0.0090   -1.7510 s6        1 3SL      1.408800
      8 O3S         0.9500   -0.6090   -2.3310 o         1 3SL     -0.768533
      9 O1S        -0.1850    1.4130   -1.7990 o         1 3SL     -0.768533
     10 O2S        -1.4040   -0.5390   -2.3410 o         1 3SL     -0.768533
     11 H2         -0.0890    1.4540    0.7590 h1        1 3SL      0.066700
     12 HO2         1.8840   -0.2940    1.6730 ho        1 3SL      0.402000
     13 H31         0.3070   -1.4960    0.0100 h1        1 3SL      0.077700
     14 H32        -1.3410   -0.7960    0.1660 h1        1 3SL      0.077700
@<TRIPOS>BOND
     1    1    2 1   
     2    2    3 1   
     3    2    4 1   
     4    4    5 1   
     5    4    6 1   
     6    4   11 1   
     7    5   12 1   
     8    6    7 1   
     9    6   13 1   
    10    6   14 1   
    11    7    8 1   
    12    7    9 1   
    13    7   10 1   
@<TRIPOS>SUBSTRUCTURE
     1 3SL         1 TEMP              0 ****  ****    0 ROOT
