@<TRIPOS>MOLECULE
3SM
   50    49     1     0     0
SMALL
bcc


@<TRIPOS>ATOM
      1 C13         0.2910   -1.9340   -4.2260 c1        1 3SM     -0.237000
      2 C17         1.1110   -0.8170   -4.6340 c3        1 3SM      0.082000
      3 C16         0.9650    3.4080    3.4360 c2        1 3SM     -0.577000
      4 C15         0.3280    2.8700    4.4550 c1        1 3SM      0.306000
      5 C21         0.4180    2.4790   -2.7820 c3        1 3SM     -0.181000
      6 C23        -1.8750    2.7640   -2.1110 c1        1 3SM      0.010000
      7 C11         1.0380    2.9130    2.0500 c2        1 3SM      0.134000
      8 N1          4.7230    0.3670   -1.4820 n4        1 3SM     -0.134000
      9 C2          6.1990    0.4200   -1.6670 c1        1 3SM      0.113000
     10 N3          6.7970    0.0490   -0.5290 n3        1 3SM     -0.167000
     11 C4          5.8720   -0.1570    0.5460 c2        1 3SM     -0.253000
     12 C5          4.4900   -0.1270   -0.0410 cx        1 3SM      0.036000
     13 C6          3.4020    0.1900    0.9270 c3        1 3SM     -0.090000
     14 C7          3.9570    0.6720    2.2940 c2        1 3SM      0.161000
     15 N8          3.0130    1.5380    2.8320 n3        1 3SM     -0.230000
     16 C9          2.0850    1.8940    1.8110 c2        1 3SM      0.040000
     17 C10         2.3130    1.1850    0.6600 c2        1 3SM     -0.182000
     18 N12         0.2980    3.2930    1.0700 n2        1 3SM     -0.221000
     19 C14        -0.3730   -2.8780   -3.9140 c1        1 3SM     -0.144000
     20 N18         0.6090    0.4790   -4.2430 n         1 3SM     -0.329000
     21 O20         2.0760    0.7680   -2.4960 o         1 3SM     -0.492000
     22 O22        -1.0260    2.3800   -2.9760 os        1 3SM     -0.087000
     23 N24         5.1450    0.3500    2.8010 n2        1 3SM     -0.208000
     24 C25         6.0990   -0.0580    1.8990 c2        1 3SM      0.087000
     25 N26         9.7050   -0.2750    1.1900 n1        1 3SM     -0.137000
     26 H35         1.1900   -0.8190   -5.7650 h1        1 3SM      0.120500
     27 H36         2.1510   -0.9460   -4.2070 h1        1 3SM      0.120500
     28 H34         1.4920    4.3750    3.6020 ha        1 3SM      0.223000
     29 H33        -0.9650   -3.7200   -3.6470 ha        1 3SM      0.235000
     30 H38         0.6600    2.7340   -1.7190 h1        1 3SM      0.134000
     31 H39         0.7730    3.2850   -3.4760 h1        1 3SM      0.134000
     32 H41        -2.7120    0.7450   -1.1680 ha        1 3SM      0.003500
     33 H40        -2.1330    0.7580   -0.8150 ha        1 3SM      0.003500
     34 H42        -1.5600    3.1990   -1.1390 ha        1 3SM      0.046000
     35 H45        11.7890   -0.4700    1.9740 ha        1 3SM      0.261000
     36 H44        13.7370   -0.5840    3.0530 ha        1 3SM      0.003500
     37 H46        13.9600   -0.7400    2.4330 ha        1 3SM      0.003500
     38 H29         7.7840   -0.0150   -0.3900 hn        1 3SM      0.313000
     39 H30         3.1100    2.0330    3.6870 hn        1 3SM      0.286000
     40 H31         2.8940   -0.8120    1.1280 hc        1 3SM      0.181000
     41 H32        -0.3980    3.9790    1.2820 hn        1 3SM      0.181000
     42 H37        -0.2670    0.7600   -4.6310 hn        1 3SM      0.256000
     43 H43         7.1030   -0.2140    2.3470 h4        1 3SM      0.206000
     44 H48         4.8250   -1.8500   -1.5120 hx        1 3SM      0.181000
     45 H47         3.1120   -1.1290   -1.5330 hx        1 3SM      0.181000
     46 H49         4.1620    1.0550   -1.9690 hn        1 3SM      0.305000
     47 C19         1.0760    1.1600   -3.1540 c2        1 3SM      0.330000
     48 C27        10.7870   -0.3760    1.5970 c1        1 3SM     -0.125000
     49 H182        1.7800    1.2510   -0.2920 ha        1 3SM      0.206000
     50 C28         4.1810   -0.9860   -1.2330 cx        1 3SM     -0.091000
@<TRIPOS>BOND
     1    1    2 1   
     2    1   19 1   
     3    2   20 1   
     4    2   26 1   
     5    2   27 1   
     6    3    4 1   
     7    3    7 1   
     8    3   28 1   
     9    5   22 1   
    10    5   30 1   
    11    5   31 1   
    12    5   47 1   
    13    6   22 1   
    14    6   34 1   
    15    7   16 1   
    16    7   18 1   
    17    8    9 1   
    18    8   12 1   
    19    8   46 1   
    20    8   50 1   
    21    9   10 1   
    22   10   11 1   
    23   10   38 1   
    24   11   12 1   
    25   11   24 1   
    26   12   13 1   
    27   12   50 1   
    28   13   14 1   
    29   13   17 1   
    30   13   40 1   
    31   14   15 1   
    32   14   23 1   
    33   15   16 1   
    34   15   39 1   
    35   16   17 1   
    36   17   49 1   
    37   18   41 1   
    38   19   29 1   
    39   20   42 1   
    40   20   47 1   
    41   21   47 1   
    42   23   24 1   
    43   24   43 1   
    44   25   48 1   
    45   32   33 1   
    46   35   48 1   
    47   36   37 1   
    48   44   50 1   
    49   45   50 1   
@<TRIPOS>SUBSTRUCTURE
     1 3SM         1 TEMP              0 ****  ****    0 ROOT
