@<TRIPOS>MOLECULE
3SM
   50    49     1     0     0
SMALL
bcc


@<TRIPOS>ATOM
      1 C13         0.2710   -1.9380   -4.2020 c1        1 3SM     -0.237000
      2 C17         1.0870   -0.8210   -4.6170 c3        1 3SM      0.082000
      3 C16         0.9970    3.4190    3.4480 c2        1 3SM     -0.577000
      4 C15         0.3670    2.8830    4.4730 c1        1 3SM      0.306000
      5 C21         0.4050    2.4770   -2.7640 c3        1 3SM     -0.181000
      6 C23        -1.8840    2.7610   -2.0770 c1        1 3SM      0.010000
      7 C11         1.0600    2.9210    2.0620 c2        1 3SM      0.134000
      8 N1          4.7190    0.3670   -1.4910 nx        1 3SM     -0.134000
      9 C2          6.1940    0.4190   -1.6850 c1        1 3SM      0.113000
     10 N3          6.8000    0.0500   -0.5510 n7        1 3SM     -0.167000
     11 C4          5.8820   -0.1530    0.5300 c2        1 3SM     -0.253000
     12 C5          4.4960   -0.1240   -0.0460 cx        1 3SM      0.036000
     13 C6          3.4150    0.1940    0.9280 c3        1 3SM     -0.090000
     14 C7          3.9800    0.6790    2.2900 c2        1 3SM      0.161000
     15 N8          3.0400    1.5460    2.8330 n7        1 3SM     -0.230000
     16 C9          2.1050    1.9000    1.8190 c2        1 3SM      0.040000
     17 C10         2.3240    1.1900    0.6670 c2        1 3SM     -0.182000
     18 N12         0.3120    3.2980    1.0870 n2        1 3SM     -0.221000
     19 C14        -0.3920   -2.8820   -3.8850 c1        1 3SM     -0.144000
     20 N18         0.5870    0.4750   -4.2240 ns        1 3SM     -0.329000
     21 O20         2.0660    0.7670   -2.4870 o         1 3SM     -0.492000
     22 O22        -1.0410    2.3760   -2.9470 os        1 3SM     -0.087000
     23 N24         5.1720    0.3580    2.7900 n2        1 3SM     -0.208000
     24 C25         6.1190   -0.0530    1.8820 c2        1 3SM      0.087000
     25 N26         9.7190   -0.2800    1.1480 n1        1 3SM     -0.137000
     26 H35         1.1590   -0.8240   -5.7480 h1        1 3SM      0.120500
     27 H36         2.1300   -0.9480   -4.1960 h1        1 3SM      0.120500
     28 H34         1.5260    4.3860    3.6080 ha        1 3SM      0.223000
     29 H33        -0.9810   -3.7240   -3.6140 ha        1 3SM      0.235000
     30 H38         0.7540    3.2820   -3.4600 h1        1 3SM      0.134000
     31 H39         0.6540    2.7330   -1.7020 h1        1 3SM      0.134000
     32 H41        -2.7140    0.7420   -1.1270 ha        1 3SM      0.003500
     33 H40        -1.5620    3.1970   -1.1080 ha        1 3SM      0.046000
     34 H42        -2.1320    0.7560   -0.7780 ha        1 3SM      0.003500
     35 H45        13.7740   -0.5500    2.9660 ha        1 3SM      0.003500
     36 H44        13.9720   -0.8080    2.3720 ha        1 3SM      0.003500
     37 H46        11.8080   -0.4810    1.9160 ha        1 3SM      0.261000
     38 H29         7.7880   -0.0150   -0.4190 hn        1 3SM      0.313000
     39 H30         3.1430    2.0420    3.6870 hn        1 3SM      0.286000
     40 H31         2.9090   -0.8060    1.1350 hc        1 3SM      0.181000
     41 H32        -0.3820    3.9840    1.3020 hn        1 3SM      0.181000
     42 H37        -0.2920    0.7560   -4.6060 hn        1 3SM      0.256000
     43 H43         7.1260   -0.2080    2.3230 h4        1 3SM      0.206000
     44 H48         4.8210   -1.8500   -1.5170 hx        1 3SM      0.181000
     45 H47         3.1080   -1.1290   -1.5270 hx        1 3SM      0.181000
     46 H49         4.1550    1.0540   -1.9740 hn        1 3SM      0.305000
     47 C19         1.0610    1.1580   -3.1390 c2        1 3SM      0.330000
     48 C27        10.8040   -0.3850    1.5470 c1        1 3SM     -0.125000
     49 H182        1.7850    1.2530   -0.2810 ha        1 3SM      0.206000
     50 C28         4.1780   -0.9860   -1.2350 cx        1 3SM     -0.091000
@<TRIPOS>BOND
     1    1    2 1   
     2    1   19 1   
     3    2   20 1   
     4    2   26 1   
     5    2   27 1   
     6    3    4 1   
     7    3    7 1   
     8    3   28 1   
     9    5   22 1   
    10    5   30 1   
    11    5   31 1   
    12    5   47 1   
    13    6   22 1   
    14    6   33 1   
    15    7   16 1   
    16    7   18 1   
    17    8    9 1   
    18    8   12 1   
    19    8   46 1   
    20    8   50 1   
    21    9   10 1   
    22   10   11 1   
    23   10   38 1   
    24   11   12 1   
    25   11   24 1   
    26   12   13 1   
    27   12   50 1   
    28   13   14 1   
    29   13   17 1   
    30   13   40 1   
    31   14   15 1   
    32   14   23 1   
    33   15   16 1   
    34   15   39 1   
    35   16   17 1   
    36   17   49 1   
    37   18   41 1   
    38   19   29 1   
    39   20   42 1   
    40   20   47 1   
    41   21   47 1   
    42   23   24 1   
    43   24   43 1   
    44   25   48 1   
    45   32   34 1   
    46   35   36 1   
    47   37   48 1   
    48   44   50 1   
    49   45   50 1   
@<TRIPOS>SUBSTRUCTURE
     1 3SM         1 TEMP              0 ****  ****    0 ROOT
