@<TRIPOS>MOLECULE
3SN
   60    61     1     0     0
SMALL
bcc


@<TRIPOS>ATOM
      1 C14         1.2010   -1.0300    0.5770 ce        1 3SN      0.364500
      2 C5         -1.6510    0.3420    5.7000 c3        1 3SN      0.084000
      3 C6         -0.2280    0.3110    5.0990 c3        1 3SN     -0.019700
      4 C11         1.1190    1.0420    2.5650 c3        1 3SN     -0.186500
      5 C8         -4.7160   -0.8560    4.1380 c2        1 3SN     -0.230000
      6 C9         -3.8910   -0.3060    5.0390 c2        1 3SN     -0.059400
      7 C10         0.5090   -0.3020    2.8160 cf        1 3SN      0.454600
      8 C12         1.7920    1.2040    1.2650 c2        1 3SN     -0.043200
      9 C13         1.8390    0.2470    0.3080 ce        1 3SN     -0.196200
     10 C1         -4.0030    1.8660    3.0870 c3        1 3SN     -0.170100
     11 O3         -1.6680    2.0940    3.5800 o         1 3SN     -0.652100
     12 N4         -2.7370    0.4570    4.7510 n         1 3SN     -0.417000
     13 N7         -0.0780   -0.5960    3.9820 nh        1 3SN     -0.280100
     14 C15         0.5670   -1.2880    1.7800 cf        1 3SN     -0.432600
     15 F16         1.2300   -1.9850   -0.3630 f         1 3SN     -0.108500
     16 C17         2.4780    0.4610   -1.0460 c3        1 3SN      0.263000
     17 N18         3.6880    1.2140   -1.0410 n3        1 3SN     -0.910100
     18 C19        -0.1060    1.9430   -3.1650 cv        1 3SN     -0.201200
     19 C20        -0.5640    0.8620   -4.1350 cy        1 3SN     -0.075700
     20 C21        -1.8230    0.7180   -3.2140 cy        1 3SN     -0.075700
     21 C22        -1.1960    1.8170   -2.3690 cv        1 3SN     -0.201200
     22 S23         3.7380    2.8230   -1.3390 sy        1 3SN      1.538800
     23 O24         2.8680    3.1340   -2.4040 o         1 3SN     -0.667800
     24 O25         3.4440    3.4920   -0.1320 o         1 3SN     -0.667800
     25 C26         5.3110    3.0580   -1.7790 ce        1 3SN     -0.476400
     26 C27         5.6580    3.7580   -3.0790 c3        1 3SN      0.009000
     27 C28         6.8560    3.1170   -3.7220 c2        1 3SN     -0.105200
     28 C29         7.7850    2.4030   -3.0420 ce        1 3SN     -0.165000
     29 C30         7.6970    2.4580   -1.5750 ce        1 3SN     -0.115100
     30 C31         6.4260    2.6030   -1.2110 c1        1 3SN      0.114200
     31 H1         -1.6620    1.2290    6.4010 h1        1 3SN      0.075700
     32 H2         -1.8040   -0.5930    6.3120 h1        1 3SN      0.075700
     33 H3          0.4750   -0.0310    5.9150 h1        1 3SN      0.099200
     34 H4          0.0570    1.3590    4.7920 h1        1 3SN      0.099200
     35 H5          0.2940    1.8310    2.6300 hc        1 3SN      0.158700
     36 H6         -0.5190   -1.4920    4.0850 hn        1 3SN      0.311700
     37 H7         -5.5870   -1.4380    4.4700 ha        1 3SN      0.137000
     38 H8         -4.6020   -0.7610    3.0510 ha        1 3SN      0.137000
     39 H9         -4.0660   -0.4500    6.1260 h4        1 3SN      0.147000
     40 H10         1.8570    1.2950    3.3850 hc        1 3SN      0.158700
     41 H11        -4.0830    1.2570    2.1530 hc        1 3SN      0.083367
     42 H12        -3.9410    2.9470    2.8050 hc        1 3SN      0.083367
     43 H13        -4.9160    1.7010    3.7090 hc        1 3SN      0.083367
     44 H14         0.1010   -2.2770    1.9320 ha        1 3SN      0.181000
     45 H15         1.7110    0.9900   -1.6990 h1        1 3SN      0.088200
     46 H16         2.6710   -0.5510   -1.5130 h1        1 3SN      0.088200
     47 H17         4.5000    0.6840   -0.8380 hn        1 3SN      0.450800
     48 H18         0.7790    2.5700   -3.1920 ha        1 3SN      0.163000
     49 H19         0.0840   -0.0370   -4.1760 hc        1 3SN      0.057450
     50 H20        -0.7840    1.2240   -5.1600 hc        1 3SN      0.057450
     51 H21        -1.9180   -0.2660   -2.7120 hc        1 3SN      0.057450
     52 H22        -2.7800    0.9960   -3.7010 hc        1 3SN      0.057450
     53 H23        -1.5690    2.3010   -1.4790 ha        1 3SN      0.163000
     54 H24         4.7640    3.6630   -3.7590 hc        1 3SN      0.103200
     55 H25         5.8660    4.8540   -2.9400 hc        1 3SN      0.103200
     56 H26         6.9570    3.3000   -4.8040 ha        1 3SN      0.158000
     57 H27         8.6360    1.8960   -3.5110 ha        1 3SN      0.163000
     58 H28         8.5930    2.4740   -0.9470 ha        1 3SN      0.186000
     59 H181        2.2600    2.2030    1.1130 ha        1 3SN      0.219000
     60 C2         -2.7410    1.4970    3.8160 c         1 3SN      0.679100
@<TRIPOS>BOND
     1    1    9 1   
     2    1   14 2   
     3    1   15 1   
     4    2    3 1   
     5    2   12 1   
     6    2   31 1   
     7    2   32 1   
     8    3   13 1   
     9    3   33 1   
    10    3   34 1   
    11    4    7 1   
    12    4    8 1   
    13    4   35 1   
    14    4   40 1   
    15    5    6 2   
    16    5   37 1   
    17    5   38 1   
    18    6   12 1   
    19    6   39 1   
    20    7   13 2   
    21    7   14 1   
    22    8    9 2   
    23    8   59 1   
    24    9   16 1   
    25   10   41 1   
    26   10   42 1   
    27   10   43 1   
    28   10   60 1   
    29   11   60 2   
    30   12   60 1   
    31   13   36 1   
    32   14   44 1   
    33   16   17 1   
    34   16   45 1   
    35   16   46 1   
    36   17   22 1   
    37   17   47 1   
    38   18   19 1   
    39   18   21 2   
    40   18   48 1   
    41   19   20 1   
    42   19   49 1   
    43   19   50 1   
    44   20   21 1   
    45   20   51 1   
    46   20   52 1   
    47   21   53 1   
    48   22   23 2   
    49   22   24 2   
    50   22   25 1   
    51   25   26 1   
    52   25   30 2   
    53   26   27 1   
    54   26   54 1   
    55   26   55 1   
    56   27   28 2   
    57   27   56 1   
    58   28   29 1   
    59   28   57 1   
    60   29   30 2   
    61   29   58 1   
@<TRIPOS>SUBSTRUCTURE
     1 3SN         1 TEMP              0 ****  ****    0 ROOT
