@<TRIPOS>MOLECULE
3SN
   60    62     1     0     0
SMALL
bcc


@<TRIPOS>ATOM
      1 C14         0.3190    0.0810    0.9930 ce        1 3SN      0.317500
      2 C5          0.7430    1.7670    6.5660 c3        1 3SN     -0.168400
      3 C6          0.5520    1.5410    5.1060 c2        1 3SN      0.513200
      4 C11         2.5200    1.5510    2.0770 c3        1 3SN     -0.032000
      5 C8         -3.5520   -2.4920    6.0240 c3        1 3SN     -0.211400
      6 C9         -3.5390   -1.1960    6.7570 c2        1 3SN      0.520200
      7 C10         1.3730    1.0980    2.9340 cf        1 3SN      0.229400
      8 C12         2.4140    1.2930    0.6070 cf        1 3SN      0.032800
      9 C13         1.3390    0.4510    0.1390 cf        1 3SN     -0.296200
     10 C1         -4.7150    1.0400    4.3960 c3        1 3SN     -0.175100
     11 O3         -2.4050    0.3930    4.3130 o         1 3SN     -0.616100
     12 N4         -3.5130    0.0000    6.3100 ne        1 3SN     -0.681100
     13 N7          1.5470    1.3510    4.3020 nf        1 3SN     -0.635300
     14 C15         0.3150    0.4270    2.3900 ce        1 3SN     -0.276000
     15 F16        -0.7160   -0.6610    0.5460 f         1 3SN     -0.145500
     16 C17         1.3650   -0.1000   -1.2510 c3        1 3SN      0.091500
     17 N18         1.0690    0.9030   -2.2550 n7        1 3SN     -0.899400
     18 C19         2.5580    2.6930   -6.4040 cy        1 3SN     -0.100900
     19 C20         1.4920    1.7990   -7.0690 cy        1 3SN     -0.082400
     20 C21         0.7030    1.7240   -5.7450 cy        1 3SN     -0.100900
     21 C22         1.7380    2.6720   -5.0840 cy        1 3SN      0.126100
     22 S23         2.0060    2.1300   -2.4660 sy        1 3SN      1.821600
     23 O24         2.5010    2.0610   -4.0620 os        1 3SN     -0.514500
     24 O25         1.4240    3.3860   -2.3500 o         1 3SN     -0.554800
     25 C26         3.3970    1.8320   -1.6630 ce        1 3SN     -0.366100
     26 C27         4.6070    1.7100   -2.2740 c2        1 3SN      0.107800
     27 C28         5.8770    1.7130   -1.5140 c3        1 3SN     -0.059000
     28 C29         5.7270    2.4330   -0.2220 c2        1 3SN     -0.160200
     29 C30         4.5320    2.5320    0.3800 ce        1 3SN     -0.109000
     30 C31         3.3570    1.8760   -0.1950 ce        1 3SN     -0.113000
     31 H1          0.1640    0.9870    7.1230 hc        1 3SN      0.072033
     32 H2          0.3300    2.7730    6.8310 hc        1 3SN      0.072033
     33 H3          1.8120    1.7210    6.8880 hc        1 3SN      0.072033
     34 H4         -0.5160    1.5620    4.7780 h4        1 3SN      0.012800
     35 H5          3.4660    1.0620    2.4570 hc        1 3SN      0.105700
     36 H6         -2.7260   -3.1420    6.4080 hc        1 3SN      0.067367
     37 H7         -3.4190   -2.3630    4.9220 hc        1 3SN      0.067367
     38 H8         -4.5250   -3.0140    6.2100 hc        1 3SN      0.067367
     39 H9         -3.5720   -1.2880    7.8670 h4        1 3SN      0.027800
     40 H10         2.6420    2.6640    2.2410 hc        1 3SN      0.105700
     41 H11        -5.5670    0.3190    4.4350 hc        1 3SN      0.074033
     42 H12        -4.5320    1.3360    3.3350 hc        1 3SN      0.074033
     43 H13        -4.9880    1.9490    4.9870 hc        1 3SN      0.074033
     44 H14        -0.5570    0.1050    2.9900 ha        1 3SN      0.199000
     45 H15         0.6130   -0.9360   -1.3570 h1        1 3SN      0.090200
     46 H16         2.3870   -0.5370   -1.4620 h1        1 3SN      0.090200
     47 H17         3.5580    2.2180   -6.3100 hc        1 3SN      0.072200
     48 H18         2.6550    3.7120   -6.8350 hc        1 3SN      0.072200
     49 H19         1.8790    0.8190   -7.4200 hc        1 3SN      0.072700
     50 H20         0.9380    2.2980   -7.8930 hc        1 3SN      0.072700
     51 H21         0.6730    0.7060   -5.3010 hc        1 3SN      0.072200
     52 H22        -0.3200    2.1520   -5.7960 hc        1 3SN      0.072200
     53 H23         1.3500    3.6630   -4.7440 h1        1 3SN      0.095700
     54 H24         4.6910    1.6540   -3.3780 ha        1 3SN      0.167000
     55 H25         6.6890    2.1840   -2.1360 hc        1 3SN      0.104200
     56 H26         6.1930    0.6450   -1.3200 hc        1 3SN      0.104200
     57 H27         6.6410    2.8790    0.1990 ha        1 3SN      0.160000
     58 H28         4.4090    3.0890    1.3210 ha        1 3SN      0.155000
     59 H181        0.1980    0.7760   -2.7260 hn        1 3SN      0.336700
     60 C2         -3.4680    0.4150    4.9630 c         1 3SN      0.715500
@<TRIPOS>BOND
     1    1    9 2   
     2    1   14 1   
     3    1   15 1   
     4    2    3 1   
     5    2   31 1   
     6    2   32 1   
     7    2   33 1   
     8    3   13 2   
     9    3   34 1   
    10    4    7 1   
    11    4    8 1   
    12    4   35 1   
    13    4   40 1   
    14    5    6 1   
    15    5   36 1   
    16    5   37 1   
    17    5   38 1   
    18    6   12 2   
    19    6   39 1   
    20    7   13 1   
    21    7   14 2   
    22    8    9 1   
    23    8   30 2   
    24    9   16 1   
    25   10   41 1   
    26   10   42 1   
    27   10   43 1   
    28   10   60 1   
    29   11   60 2   
    30   12   60 1   
    31   14   44 1   
    32   16   17 1   
    33   16   45 1   
    34   16   46 1   
    35   17   22 2   
    36   17   59 1   
    37   18   19 1   
    38   18   21 1   
    39   18   47 1   
    40   18   48 1   
    41   19   20 1   
    42   19   49 1   
    43   19   50 1   
    44   20   21 1   
    45   20   51 1   
    46   20   52 1   
    47   21   23 1   
    48   21   53 1   
    49   22   23 1   
    50   22   24 2   
    51   22   25 1   
    52   25   26 2   
    53   25   30 1   
    54   26   27 1   
    55   26   54 1   
    56   27   28 1   
    57   27   55 1   
    58   27   56 1   
    59   28   29 2   
    60   28   57 1   
    61   29   30 1   
    62   29   58 1   
@<TRIPOS>SUBSTRUCTURE
     1 3SN         1 TEMP              0 ****  ****    0 ROOT
