@<TRIPOS>MOLECULE
3SO
   45    47     1     0     0
SMALL
bcc


@<TRIPOS>ATOM
      1 O01         0.1420    0.7270    0.8530 oh        1 3SO     -0.521100
      2 C02         1.3580    0.2380    0.4200 ca        1 3SO      0.013800
      3 C03         2.3080   -0.0830    1.4220 ca        1 3SO      0.318600
      4 N04         3.5350   -0.5740    1.1060 nb        1 3SO     -0.663000
      5 C05         3.8400   -0.7370   -0.1870 ca        1 3SO      0.374200
      6 C06         2.9660   -0.4270   -1.2570 ca        1 3SO     -0.074600
      7 C07         3.3470   -0.6010   -2.6910 c3        1 3SO      0.197700
      8 O08         4.4920   -1.3280   -2.8940 os        1 3SO     -0.552200
      9 P09         4.7500   -1.3540   -4.6390 p5        1 3SO      1.328900
     10 O10         5.0080    0.1060   -4.8810 o         1 3SO     -0.928833
     11 O11         5.8800   -2.3210   -4.8000 o         1 3SO     -0.928833
     12 O12         3.3820   -1.8060   -5.1030 o         1 3SO     -0.928833
     13 C13         1.6840    0.0650   -0.9370 ca        1 3SO     -0.173800
     14 C14         0.7910    0.3320   -2.0530 ce        1 3SO     -0.017200
     15 C15        -0.4560   -0.1400   -2.1920 cf        1 3SO     -0.296200
     16 C16        -1.1970   -0.0160   -3.4630 c         1 3SO      0.589300
     17 C17        -0.3650   -0.2330   -4.7000 c3        1 3SO     -0.133200
     18 C18        -1.0560   -0.8810   -5.8190 cc        1 3SO     -0.082400
     19 C19        -2.3820   -0.7750   -6.2030 cd        1 3SO     -0.161100
     20 N20        -2.6570   -1.6180   -7.3100 na        1 3SO     -0.190400
     21 C21        -1.4150   -2.1590   -7.7210 ca        1 3SO     -0.075200
     22 C22        -0.3970   -1.7680   -6.7740 ca        1 3SO     -0.100800
     23 C23         0.9050   -2.2460   -6.8980 ca        1 3SO     -0.051000
     24 C24         1.1850   -3.0910   -7.9750 ca        1 3SO     -0.158000
     25 C25         0.2020   -3.4580   -8.8990 ca        1 3SO     -0.127000
     26 C26        -1.1110   -3.0050   -8.7910 ca        1 3SO     -0.190000
     27 O27        -2.4100    0.2420   -3.4810 o         1 3SO     -0.589100
     28 C28         1.9250    0.1200    2.8490 c3        1 3SO     -0.114400
     29 H1         -0.3910    0.9130    0.0650 ho        1 3SO      0.417000
     30 H2          4.8390   -1.1480   -0.4370 h4        1 3SO      0.065100
     31 H3          3.4760    0.4350   -3.1420 h1        1 3SO      0.049700
     32 H4          2.4860   -1.1070   -3.2330 h1        1 3SO      0.049700
     33 H7          1.2680    0.8970   -2.8820 ha        1 3SO      0.158000
     34 H8         -0.9730   -0.7050   -1.4010 ha        1 3SO      0.137000
     35 H9          0.5590   -0.8400   -4.4450 hc        1 3SO      0.111700
     36 H10         0.0090    0.7800   -5.0290 hc        1 3SO      0.111700
     37 H11        -3.1880   -0.2220   -5.7160 h4        1 3SO      0.167000
     38 H12        -3.3040   -1.3180   -7.9970 hn        1 3SO      0.245700
     39 H13         1.7230   -1.9790   -6.1700 ha        1 3SO      0.282000
     40 H14         2.2130   -3.4710   -8.0850 ha        1 3SO      0.149000
     41 H15         0.4680   -4.1220   -9.7350 ha        1 3SO      0.101000
     42 H16        -1.8770   -3.3050   -9.5150 ha        1 3SO      0.102000
     43 H17         1.0680   -0.5530    3.1010 hc        1 3SO      0.030367
     44 H18         2.7680   -0.0910    3.5490 hc        1 3SO      0.030367
     45 H19         1.5890    1.1770    2.9940 hc        1 3SO      0.030367
@<TRIPOS>BOND
     1    1    2 1   
     2    1   29 1   
     3    2    3 ar  
     4    2   13 ar  
     5    3    4 ar  
     6    3   28 1   
     7    4    5 ar  
     8    5    6 ar  
     9    5   30 1   
    10    6    7 1   
    11    6   13 ar  
    12    7    8 1   
    13    7   31 1   
    14    7   32 1   
    15    8    9 1   
    16    9   10 1   
    17    9   11 1   
    18    9   12 1   
    19   13   14 1   
    20   14   15 2   
    21   14   33 1   
    22   15   16 1   
    23   15   34 1   
    24   16   17 1   
    25   16   27 2   
    26   17   18 1   
    27   17   35 1   
    28   17   36 1   
    29   18   19 2   
    30   18   22 1   
    31   19   20 1   
    32   19   37 1   
    33   20   21 1   
    34   20   38 1   
    35   21   22 ar  
    36   21   26 ar  
    37   22   23 ar  
    38   23   24 ar  
    39   23   39 1   
    40   24   25 ar  
    41   24   40 1   
    42   25   26 ar  
    43   25   41 1   
    44   26   42 1   
    45   28   43 1   
    46   28   44 1   
    47   28   45 1   
@<TRIPOS>SUBSTRUCTURE
     1 3SO         1 TEMP              0 ****  ****    0 ROOT
