@<TRIPOS>MOLECULE
3SO
   45    47     1     0     0
SMALL
bcc


@<TRIPOS>ATOM
      1 O01         0.1800    0.8020    0.8310 oh        1 3SO     -0.521100
      2 C02         1.3820    0.2750    0.4060 ca        1 3SO      0.013800
      3 C03         2.3220   -0.0610    1.4140 ca        1 3SO      0.318600
      4 N04         3.5350   -0.5880    1.1060 nb        1 3SO     -0.663000
      5 C05         3.8370   -0.7740   -0.1840 ca        1 3SO      0.374200
      6 C06         2.9750   -0.4520   -1.2600 ca        1 3SO     -0.074600
      7 C07         3.3530   -0.6520   -2.6910 c3        1 3SO      0.197700
      8 O08         4.4790   -1.4130   -2.8830 os        1 3SO     -0.552200
      9 P09         4.7400   -1.4650   -4.6270 p5        1 3SO      1.328900
     10 O10         5.0370   -0.0160   -4.8850 o         1 3SO     -0.928833
     11 O11         5.8430   -2.4640   -4.7750 o         1 3SO     -0.928833
     12 O12         3.3610   -1.8860   -5.0890 o         1 3SO     -0.928833
     13 C13         1.7060    0.0790   -0.9480 ca        1 3SO     -0.173800
     14 C14         0.8220    0.3560   -2.0680 ce        1 3SO     -0.017200
     15 C15        -0.4360   -0.0820   -2.2050 cf        1 3SO     -0.296200
     16 C16        -1.1710    0.0480   -3.4790 c         1 3SO      0.589300
     17 C17        -0.3430   -0.2060   -4.7110 c3        1 3SO     -0.133200
     18 C18        -1.0510   -0.8500   -5.8230 cc        1 3SO     -0.082400
     19 C19        -2.3730   -0.7130   -6.2110 cd        1 3SO     -0.161100
     20 N20        -2.6690   -1.5610   -7.3080 na        1 3SO     -0.190400
     21 C21        -1.4400   -2.1420   -7.7100 ca        1 3SO     -0.075200
     22 C22        -0.4140   -1.7660   -6.7660 ca        1 3SO     -0.100800
     23 C23         0.8750   -2.2800   -6.8820 ca        1 3SO     -0.051000
     24 C24         1.1330   -3.1460   -7.9470 ca        1 3SO     -0.158000
     25 C25         0.1420   -3.4990   -8.8690 ca        1 3SO     -0.127000
     26 C26        -1.1590   -3.0090   -8.7680 ca        1 3SO     -0.190000
     27 O27        -2.3770    0.3390   -3.5020 o         1 3SO     -0.589100
     28 C28         1.9420    0.1690    2.8380 c3        1 3SO     -0.114400
     29 H1         -0.3470    0.9930    0.0410 ho        1 3SO      0.417000
     30 H2          4.8260   -1.2150   -0.4280 h4        1 3SO      0.065100
     31 H3          3.5120    0.3750   -3.1530 h1        1 3SO      0.049700
     32 H4          2.4800   -1.1410   -3.2290 h1        1 3SO      0.049700
     33 H7          1.3160    0.9000   -2.9030 ha        1 3SO      0.158000
     34 H8         -0.9700   -0.6240   -1.4090 ha        1 3SO      0.137000
     35 H9          0.5640   -0.8340   -4.4480 hc        1 3SO      0.111200
     36 H10         0.0570    0.7930   -5.0520 hc        1 3SO      0.111200
     37 H11        -3.1640   -0.1310   -5.7330 h4        1 3SO      0.167000
     38 H12        -3.3060   -1.2520   -8.0000 hn        1 3SO      0.245700
     39 H13         1.6980   -2.0270   -6.1560 ha        1 3SO      0.282000
     40 H14         2.1500   -3.5560   -8.0510 ha        1 3SO      0.149000
     41 H15         0.3910   -4.1800   -9.6950 ha        1 3SO      0.101000
     42 H16        -1.9310   -3.2970   -9.4910 ha        1 3SO      0.102000
     43 H17         1.0600   -0.4690    3.0920 hc        1 3SO      0.030367
     44 H18         2.7740   -0.0670    3.5430 hc        1 3SO      0.030367
     45 H19         1.6450    1.2390    2.9720 hc        1 3SO      0.030367
@<TRIPOS>BOND
     1    1    2 1   
     2    1   29 1   
     3    2    3 ar  
     4    2   13 ar  
     5    3    4 ar  
     6    3   28 1   
     7    4    5 ar  
     8    5    6 ar  
     9    5   30 1   
    10    6    7 1   
    11    6   13 ar  
    12    7    8 1   
    13    7   31 1   
    14    7   32 1   
    15    8    9 1   
    16    9   10 1   
    17    9   11 1   
    18    9   12 1   
    19   13   14 1   
    20   14   15 2   
    21   14   33 1   
    22   15   16 1   
    23   15   34 1   
    24   16   17 1   
    25   16   27 2   
    26   17   18 1   
    27   17   35 1   
    28   17   36 1   
    29   18   19 2   
    30   18   22 1   
    31   19   20 1   
    32   19   37 1   
    33   20   21 1   
    34   20   38 1   
    35   21   22 ar  
    36   21   26 ar  
    37   22   23 ar  
    38   23   24 ar  
    39   23   39 1   
    40   24   25 ar  
    41   24   40 1   
    42   25   26 ar  
    43   25   41 1   
    44   26   42 1   
    45   28   43 1   
    46   28   44 1   
    47   28   45 1   
@<TRIPOS>SUBSTRUCTURE
     1 3SO         1 TEMP              0 ****  ****    0 ROOT
