@<TRIPOS>MOLECULE
3SP
   64    59     1     0     0
SMALL
bcc


@<TRIPOS>ATOM
      1 C18         1.2710    0.1170    0.6740 c1        1 3SP      0.305000
      2 O19         0.6670    0.3570    1.7000 o         1 3SP     -0.427000
      3 C20         2.7830    0.0090    0.6950 c3        1 3SP     -0.034000
      4 C24         3.3520    1.1110    1.5560 c3        1 3SP     -0.144000
      5 C25         3.6740    2.1610    0.7830 c3        1 3SP     -0.104000
      6 C26         2.9440    3.4940    1.2560 c3        1 3SP     -0.154000
      7 C27         3.3220    4.7250    0.4040 c3        1 3SP     -0.151000
      8 C28         4.4770    4.5210   -0.2770 c3        1 3SP     -0.152000
      9 C29         5.5760    3.8740    0.2100 c3        1 3SP     -0.151000
     10 C30         5.1870    2.6670    1.0560 c3        1 3SP     -0.154000
     11 N21         3.1570   -1.2530    1.2320 n3        1 3SP     -0.265000
     12 C22         4.4520   -1.5410    0.8740 c3        1 3SP     -0.176000
     13 C23         4.7920   -2.9810    1.3030 c2        1 3SP      0.306000
     14 O31         4.8670   -3.8940    0.4360 o         1 3SP     -0.584000
     15 O32         5.0890   -3.2320    2.5280 o         1 3SP     -0.584000
     16 N17         0.5310   -0.0350   -0.6040 n2        1 3SP     -0.321000
     17 C13        -1.0730    0.0890   -0.8070 c3        1 3SP      0.012000
     18 C11        -1.7010   -1.3030   -0.7550 c1        1 3SP      0.299000
     19 O12        -0.9920   -2.3100   -0.9050 o         1 3SP     -0.404000
     20 C14        -1.1820    0.7020   -2.0050 c3        1 3SP     -0.165000
     21 C15         0.0810    0.3340   -2.7800 c3        1 3SP     -0.169000
     22 C16         1.0400   -0.2870   -1.7640 c3        1 3SP     -0.043000
     23 C1         -7.6500   -3.0460   -0.0730 c1        1 3SP     -0.416500
     24 C2         -7.3830   -2.1250    1.0100 c1        1 3SP     -0.134500
     25 C3         -5.8180   -1.8490    1.0580 c1        1 3SP     -0.134500
     26 C4         -5.1850   -2.6180   -0.0060 c1        1 3SP     -0.416500
     27 S5         -6.2910   -3.3930   -0.7540 ss        1 3SP      0.589000
     28 C6         -8.9800   -3.6260   -0.4210 c1        1 3SP      0.161000
     29 N7         -9.3990   -4.7520    0.1800 n1        1 3SP     -0.322000
     30 N8         -9.8270   -2.9690   -1.4150 n3        1 3SP     -0.332000
     31 C9         -3.6640   -2.7500   -0.2470 c2        1 3SP      0.035000
     32 N10        -3.1070   -1.4470   -0.5230 n2        1 3SP     -0.354000
     33 H20         3.1230    0.0920   -0.1960 h1        1 3SP      0.120000
     34 H241        4.1620    0.7820    2.0180 hc        1 3SP      0.095500
     35 H242        2.6900    1.3820    2.2140 hc        1 3SP      0.095500
     36 H25         3.5190    1.9820   -0.1620 hc        1 3SP      0.091000
     37 H261        1.9810    3.3610    1.2020 hc        1 3SP      0.083750
     38 H262        3.1800    3.6670    2.1660 hc        1 3SP      0.083750
     39 H271        2.5850    4.9090   -0.2500 hc        1 3SP      0.070250
     40 H272        3.4340    5.5290    1.0130 hc        1 3SP      0.070250
     41 H281        4.7970    5.4360   -0.5620 hc        1 3SP      0.069500
     42 H282        4.2230    4.0380   -1.1050 hc        1 3SP      0.069500
     43 H291        6.0950    4.4970    0.7630 hc        1 3SP      0.070250
     44 H292        6.1350    3.5710   -0.5460 hc        1 3SP      0.070250
     45 H301        5.8060    1.9310    0.8580 hc        1 3SP      0.083750
     46 H302        5.2730    2.9040    2.0000 hc        1 3SP      0.083750
     47 HN21        2.6040   -1.8970    0.9080 hn        1 3SP      0.153000
     48 H221        5.0590   -0.9170    1.3170 h1        1 3SP      0.082500
     49 H222        4.5490   -1.4570   -0.1020 h1        1 3SP      0.082500
     50 H13        -1.5910    0.5600   -0.1220 h1        1 3SP      0.117000
     51 H141       -1.2350    1.7020   -1.8800 hc        1 3SP      0.100000
     52 H142       -1.9720    0.3810   -2.4760 hc        1 3SP      0.100000
     53 H151        0.4780    1.1320   -3.1710 hc        1 3SP      0.088500
     54 H152       -0.1360   -0.3290   -3.4970 hc        1 3SP      0.088500
     55 H161        1.1000   -1.2500   -1.9030 h1        1 3SP      0.135500
     56 H162        1.9400    0.1300   -1.8430 h1        1 3SP      0.135500
     57 H2         -8.0570   -1.7350    1.6160 DU        1 3SP      0.160000
     58 H3         -5.3630   -1.2680    1.6890 DU        1 3SP      0.160000
     59 HN7        -8.8470   -5.1810    0.8300 DU        1 3SP      0.160000
     60 HN81       -9.4690   -2.3060   -1.9660 hn        1 3SP      0.193500
     61 HN82      -10.7100   -3.1820   -1.4730 hn        1 3SP      0.193500
     62 H91        -3.5000   -3.3600   -1.0360 h4        1 3SP      0.109500
     63 H92        -3.2360   -3.1290    0.5550 h4        1 3SP      0.109500
     64 HN10       -3.6270   -0.7220   -0.4790 hn        1 3SP      0.256000
@<TRIPOS>BOND
     1    1    2 1   
     2    1    3 1   
     3    3    4 1   
     4    3   11 1   
     5    3   33 1   
     6    4    5 1   
     7    4   34 1   
     8    4   35 1   
     9    5    6 1   
    10    5   10 1   
    11    5   36 1   
    12    6    7 1   
    13    6   37 1   
    14    6   38 1   
    15    7    8 1   
    16    7   39 1   
    17    7   40 1   
    18    8    9 1   
    19    8   41 1   
    20    8   42 1   
    21    9   10 1   
    22    9   43 1   
    23    9   44 1   
    24   10   45 1   
    25   10   46 1   
    26   11   12 1   
    27   11   47 1   
    28   12   13 1   
    29   12   48 1   
    30   12   49 1   
    31   13   14 1   
    32   13   15 1   
    33   16   17 1   
    34   16   22 1   
    35   17   18 1   
    36   17   20 1   
    37   17   50 1   
    38   18   19 1   
    39   20   21 1   
    40   20   51 1   
    41   20   52 1   
    42   21   22 1   
    43   21   53 1   
    44   21   54 1   
    45   22   55 1   
    46   22   56 1   
    47   23   24 1   
    48   23   27 1   
    49   24   25 1   
    50   25   26 1   
    51   26   27 1   
    52   28   29 1   
    53   28   30 1   
    54   30   60 1   
    55   30   61 1   
    56   31   32 1   
    57   31   62 1   
    58   31   63 1   
    59   32   64 1   
@<TRIPOS>SUBSTRUCTURE
     1 3SP         1 TEMP              0 ****  ****    0 ROOT
