@<TRIPOS>MOLECULE
3SP
   64    66     1     0     0
SMALL
bcc


@<TRIPOS>ATOM
      1 C18         1.3990   -1.8990   -0.3700 c         1 3SP      0.625100
      2 O19         1.0550   -2.2830   -1.5070 o         1 3SP     -0.620100
      3 C20         2.5080   -0.8290   -0.1900 c3        1 3SP      0.133500
      4 C24         3.0720   -0.5190   -1.5870 c3        1 3SP     -0.064400
      5 C25         4.3660    0.2790   -1.5460 c3        1 3SP     -0.062700
      6 C26         5.5430   -0.5900   -1.1230 c3        1 3SP     -0.073400
      7 C27         6.8410    0.1900   -1.1400 c3        1 3SP     -0.075400
      8 C28         7.0990    0.8020   -2.5020 c3        1 3SP     -0.074400
      9 C29         5.9320    1.6610   -2.9420 c3        1 3SP     -0.075400
     10 C30         4.6340    0.8810   -2.9210 c3        1 3SP     -0.073400
     11 N21         2.1510    0.3480    0.5720 n3        1 3SP     -0.811200
     12 C22         1.0690    1.1660    0.0650 c3        1 3SP      0.042800
     13 C23        -0.2460    1.0990    0.8610 c         1 3SP      0.900600
     14 O31        -1.2070    1.8310    0.4560 o         1 3SP     -0.841300
     15 O32        -0.3510    0.3370    1.8640 o         1 3SP     -0.841300
     16 N17         0.7840   -2.4340    0.7500 n         1 3SP     -0.451800
     17 C13        -0.1040   -3.5810    0.6550 c3        1 3SP      0.032700
     18 C11        -1.6230   -3.2920    0.6660 c         1 3SP      0.653100
     19 O12        -2.3730   -4.2200    0.2760 o         1 3SP     -0.662100
     20 C14         0.2000   -4.4780    1.8830 c3        1 3SP     -0.086400
     21 C15         0.9630   -3.5960    2.8630 c3        1 3SP     -0.096400
     22 C16         1.2860   -2.2930    2.1060 c3        1 3SP      0.068000
     23 C1         -4.4640    1.5100   -0.4200 cc        1 3SP     -0.280000
     24 C2         -5.5690    0.6690   -0.5400 cd        1 3SP     -0.122000
     25 C3         -5.3130   -0.6020    0.0300 cd        1 3SP     -0.195000
     26 C4         -4.0280   -0.6690    0.5730 cc        1 3SP     -0.240400
     27 S5         -3.2090    0.7490    0.3650 ss        1 3SP      0.356200
     28 N7         -5.5090    3.6020   -0.9690 n2        1 3SP     -0.865100
     29 N8         -3.1290    3.3250   -1.3500 nh        1 3SP     -0.947800
     30 C9         -3.5290   -1.8800    1.2750 c3        1 3SP      0.173300
     31 N10        -2.1100   -2.1230    1.1810 n         1 3SP     -0.547900
     32 H20         3.3360   -1.3420    0.3940 h1        1 3SP      0.049700
     33 H241        3.2500   -1.4940   -2.1120 hc        1 3SP      0.057700
     34 H242        2.3030    0.0380   -2.1840 hc        1 3SP      0.057700
     35 H25         4.2630    1.1230   -0.8070 hc        1 3SP      0.072700
     36 H261        5.3640   -0.9870   -0.0900 hc        1 3SP      0.038450
     37 H262        5.6250   -1.4700   -1.8140 hc        1 3SP      0.038450
     38 H271        6.7960    1.0040   -0.3690 hc        1 3SP      0.034200
     39 H272        7.6900   -0.4880   -0.8660 hc        1 3SP      0.034200
     40 H281        8.0320    1.4220   -2.4660 hc        1 3SP      0.030700
     41 H282        7.2650   -0.0150   -3.2520 hc        1 3SP      0.030700
     42 H291        5.8440    2.5470   -2.2600 hc        1 3SP      0.034200
     43 H292        6.1200    2.0490   -3.9760 hc        1 3SP      0.034200
     44 H301        4.6740    0.0610   -3.6850 hc        1 3SP      0.038450
     45 H302        3.7870    1.5610   -3.2000 hc        1 3SP      0.038450
     46 HN21        1.9390    0.0850    1.5220 hn        1 3SP      0.380800
     47 H221        1.4310    2.2330    0.0990 h1        1 3SP      0.053700
     48 H222        0.8250    0.9190   -1.0040 h1        1 3SP      0.053700
     49 H13         0.0880   -4.1300   -0.3140 h1        1 3SP      0.101700
     50 H141       -0.7450   -4.8740    2.3270 hc        1 3SP      0.054700
     51 H142        0.8210   -5.3500    1.5620 hc        1 3SP      0.054700
     52 H151        0.3420   -3.3670    3.7630 hc        1 3SP      0.044700
     53 H152        1.9010   -4.0940    3.2070 hc        1 3SP      0.044700
     54 H161        0.7680   -1.4130    2.5890 h1        1 3SP      0.070700
     55 H162        2.3950   -2.1110    2.1090 h1        1 3SP      0.070700
     56 H3         -6.0320   -1.4210    0.0350 ha        1 3SP      0.128000
     57 HN7        -5.3980    4.5370   -1.3020 hn        1 3SP      0.356400
     58 HN81       -2.3700    2.7320   -1.0750 hn        1 3SP      0.401300
     59 HN82       -2.9330    4.2880   -1.1910 hn        1 3SP      0.401300
     60 H91        -3.7770   -1.7710    2.3750 h1        1 3SP      0.053200
     61 H92        -4.0830   -2.7850    0.8870 h1        1 3SP      0.053200
     62 HN10       -1.4970   -1.3540    1.3790 hn        1 3SP      0.365500
     63 C6         -4.4100    2.9000   -0.9090 ce        1 3SP      0.698800
     64 H2         -6.5120    0.9480   -1.0140 ha        1 3SP      0.144000
@<TRIPOS>BOND
     1    1    2 2   
     2    1    3 1   
     3    1   16 1   
     4    3    4 1   
     5    3   11 1   
     6    3   32 1   
     7    4    5 1   
     8    4   33 1   
     9    4   34 1   
    10    5    6 1   
    11    5   10 1   
    12    5   35 1   
    13    6    7 1   
    14    6   36 1   
    15    6   37 1   
    16    7    8 1   
    17    7   38 1   
    18    7   39 1   
    19    8    9 1   
    20    8   40 1   
    21    8   41 1   
    22    9   10 1   
    23    9   42 1   
    24    9   43 1   
    25   10   44 1   
    26   10   45 1   
    27   11   12 1   
    28   11   46 1   
    29   12   13 1   
    30   12   47 1   
    31   12   48 1   
    32   13   14 1   
    33   13   15 1   
    34   16   17 1   
    35   16   22 1   
    36   17   18 1   
    37   17   20 1   
    38   17   49 1   
    39   18   19 2   
    40   18   31 1   
    41   20   21 1   
    42   20   50 1   
    43   20   51 1   
    44   21   22 1   
    45   21   52 1   
    46   21   53 1   
    47   22   54 1   
    48   22   55 1   
    49   23   24 2   
    50   23   27 1   
    51   23   63 1   
    52   24   25 1   
    53   24   64 1   
    54   25   26 2   
    55   25   56 1   
    56   26   27 1   
    57   26   30 1   
    58   28   57 1   
    59   28   63 2   
    60   29   58 1   
    61   29   59 1   
    62   29   63 1   
    63   30   31 1   
    64   30   60 1   
    65   30   61 1   
    66   31   62 1   
@<TRIPOS>SUBSTRUCTURE
     1 3SP         1 TEMP              0 ****  ****    0 ROOT
