@<TRIPOS>MOLECULE
3SQ
   19    20     1     0     0
SMALL
bcc


@<TRIPOS>ATOM
      1 C2         -0.0310    0.1410   -0.0140 cc        1 3SQ     -0.238600
      2 C4          1.3760   -0.0210   -0.0200 cd        1 3SQ      0.351800
      3 C5          0.7300   -0.1250    2.0780 cc        1 3SQ      0.391400
      4 C6          2.2370   -0.0200   -1.1850 ca        1 3SQ     -0.112500
      5 C7          3.6300    0.1000   -1.0530 ca        1 3SQ     -0.092500
      6 C11         1.6810   -0.1390   -2.4690 ca        1 3SQ     -0.092500
      7 C10         2.4880   -0.1320   -3.6000 ca        1 3SQ     -0.168500
      8 C9          3.8820   -0.0080   -3.4560 ca        1 3SQ      0.121900
      9 C8          4.4510    0.1070   -2.1750 ca        1 3SQ     -0.168500
     10 N1         -0.4290    0.0730    1.3170 na        1 3SQ     -0.320900
     11 N3          1.8290   -0.1840    1.3020 nd        1 3SQ     -0.657000
     12 F           4.6760   -0.0010   -4.5540 f         1 3SQ     -0.142900
     13 H1         -0.7350    0.2980   -0.8290 h4        1 3SQ      0.179000
     14 H2          0.7150   -0.2180    3.1690 h5        1 3SQ      0.063100
     15 H3          4.0830    0.1890   -0.0530 ha        1 3SQ      0.144500
     16 H4          0.5920   -0.2430   -2.5860 ha        1 3SQ      0.144500
     17 H5          2.0500   -0.2250   -4.6040 ha        1 3SQ      0.147000
     18 H6          5.5420    0.2010   -2.0710 ha        1 3SQ      0.147000
     19 H7         -1.3510    0.1510    1.6540 hn        1 3SQ      0.302700
@<TRIPOS>BOND
     1    1    2 2   
     2    1   10 1   
     3    1   13 1   
     4    2    4 1   
     5    2   11 1   
     6    3   10 1   
     7    3   11 2   
     8    3   14 1   
     9    4    5 ar  
    10    4    6 ar  
    11    5    9 ar  
    12    5   15 1   
    13    6    7 ar  
    14    6   16 1   
    15    7    8 ar  
    16    7   17 1   
    17    8    9 ar  
    18    8   12 1   
    19    9   18 1   
    20   10   19 1   
@<TRIPOS>SUBSTRUCTURE
     1 3SQ         1 TEMP              0 ****  ****    0 ROOT
