@<TRIPOS>MOLECULE
3SR
   62    58     1     0     0
SMALL
bcc


@<TRIPOS>ATOM
      1 C1         -0.4340   -0.7910   -0.4810 c         1 3SR      0.763100
      2 C2          0.9230   -0.7160    0.0360 cc        1 3SR     -0.343200
      3 C3          1.2610   -1.1380    1.3640 cd        1 3SR      0.484200
      4 C5         -1.0360   -1.7530    1.7410 c         1 3SR      0.814500
      5 C16         4.1820    0.2180   -3.4960 c3        1 3SR     -0.067200
      6 C17         2.8850   -1.8410   -3.0080 c2        1 3SR     -0.185000
      7 C18         3.6320    1.0850   -4.6040 c3        1 3SR     -0.093100
      8 C21         5.3860    3.5820    2.8210 c1        1 3SR     -0.172000
      9 O32         7.3760    4.2830   -1.1350 o         1 3SR     -0.594100
     10 C27         8.9260    4.3860   -2.8930 cg        1 3SR     -0.181200
     11 O31         8.3160    2.3810   -4.7500 o         1 3SR     -0.585100
     12 C30        10.7590    2.8080   -7.0170 c1        1 3SR     -0.172000
     13 C29        11.6470    2.9890   -7.7980 c1        1 3SR     -0.172000
     14 C28         9.8790    4.8850   -3.4170 c1        1 3SR     -0.024500
     15 N23         7.1120    2.7440   -2.7860 ns        1 3SR     -0.620500
     16 C22         6.0100    4.0510    1.9150 c1        1 3SR     -0.172000
     17 C24         7.3860    2.1020   -3.9820 c         1 3SR      0.672900
     18 C25         5.1640    2.1420   -0.6280 c1        1 3SR     -0.187500
     19 N20         4.7650    1.3970    0.3600 n7        1 3SR     -0.535000
     20 C8          3.1010   -0.4060    0.4270 cc        1 3SR      0.413800
     21 N7          2.1030   -0.2440   -0.5420 na        1 3SR     -0.122900
     22 C14         2.2480    0.2830   -1.8760 c3        1 3SR      0.053500
     23 C15         3.1050   -0.5410   -2.7990 c2        1 3SR     -0.150400
     24 N9          2.6250   -0.9330    1.5980 nd        1 3SR     -0.681000
     25 N4          0.2950   -1.6580    2.2140 n         1 3SR     -0.419300
     26 C12         0.6390   -2.0790    3.5460 c3        1 3SR      0.090300
     27 O11        -1.9260   -2.2160    2.4860 o         1 3SR     -0.633500
     28 N6         -1.3680   -1.3290    0.4270 n         1 3SR     -0.483400
     29 C13        -2.7550   -1.4640    0.0450 c3        1 3SR      0.080300
     30 O10        -0.7810   -0.4220   -1.6180 o         1 3SR     -0.627500
     31 H1          4.7200    0.8680   -2.7450 hc        1 3SR      0.057700
     32 H2          2.0850   -2.3970   -2.5010 ha        1 3SR      0.123000
     33 H3          4.9350   -0.4980   -3.9240 hc        1 3SR      0.057700
     34 H4          3.4930   -2.4320   -3.7070 ha        1 3SR      0.123000
     35 H5          4.4600    1.6590   -5.0870 hc        1 3SR      0.039033
     36 H6          3.1300    0.4630   -5.3830 hc        1 3SR      0.039033
     37 H7          2.8860    1.8130   -4.2000 hc        1 3SR      0.039033
     38 H8          4.8490   -0.3380   -0.8400 h1        1 3SR      0.097200
     39 H9          5.1830   -0.5800    0.9510 h1        1 3SR      0.097200
     40 H10         4.8400    3.1840    3.6390 ha        1 3SR      0.172250
     41 H11         4.5850    1.7370    1.2910 hn        1 3SR      0.397800
     42 H12         9.9670    2.6470   -6.3220 ha        1 3SR      0.172250
     43 H13        12.4330    3.1470   -8.4910 ha        1 3SR      0.172250
     44 H14        10.7230    5.3180   -3.8930 ha        1 3SR      0.176500
     45 H15         6.3240    2.3970   -2.2420 hn        1 3SR      0.376500
     46 H16         6.5670    4.4640    1.1020 ha        1 3SR      0.172250
     47 H17         5.3840    5.5900   -0.5430 ha        1 3SR      0.001750
     48 H18         5.0600    5.3630   -1.0930 ha        1 3SR      0.001750
     49 H19         5.3150    3.2190   -0.3930 ha        1 3SR      0.037500
     50 H20         6.6550    1.2800   -4.1940 h5        1 3SR      0.038200
     51 H22         3.7760    3.6740   -2.2050 ha        1 3SR      0.001750
     52 H23         3.8590    3.1130   -2.5780 ha        1 3SR      0.001750
     53 H24         2.6920    1.3210   -1.7810 h1        1 3SR      0.097200
     54 H25         1.2120    0.3740   -2.3250 h1        1 3SR      0.097200
     55 H26         1.4320   -2.8730    3.4940 h1        1 3SR      0.063367
     56 H27        -0.2710   -2.4890    4.0600 h1        1 3SR      0.063367
     57 H28         1.0360   -1.2030    4.1260 h1        1 3SR      0.063367
     58 H29        -3.3950   -0.8480    0.7320 h1        1 3SR      0.064700
     59 H30        -3.0640   -2.5390    0.1350 h1        1 3SR      0.064700
     60 H31        -2.8880   -1.1160   -1.0140 h1        1 3SR      0.064700
     61 C19         4.5430   -0.0280    0.2030 c3        1 3SR      0.155500
     62 C26         7.7930    3.8290   -2.2210 c         1 3SR      0.716300
@<TRIPOS>BOND
     1    1    2 1   
     2    1   28 1   
     3    1   30 2   
     4    2    3 2   
     5    2   21 1   
     6    3   24 1   
     7    3   25 1   
     8    4   25 1   
     9    4   27 2   
    10    4   28 1   
    11    5    7 1   
    12    5   23 1   
    13    5   31 1   
    14    5   33 1   
    15    6   23 2   
    16    6   32 1   
    17    6   34 1   
    18    7   35 1   
    19    7   36 1   
    20    7   37 1   
    21    8   16 3   
    22    8   40 1   
    23    9   62 2   
    24   10   14 3   
    25   10   62 1   
    26   11   17 2   
    27   12   13 3   
    28   12   42 1   
    29   13   43 1   
    30   14   44 1   
    31   15   17 1   
    32   15   45 1   
    33   15   62 1   
    34   16   46 1   
    35   17   50 1   
    36   18   19 3   
    37   18   49 1   
    38   19   41 1   
    39   19   61 1   
    40   20   21 1   
    41   20   24 2   
    42   20   61 1   
    43   21   22 1   
    44   22   23 1   
    45   22   53 1   
    46   22   54 1   
    47   25   26 1   
    48   26   55 1   
    49   26   56 1   
    50   26   57 1   
    51   28   29 1   
    52   29   58 1   
    53   29   59 1   
    54   29   60 1   
    55   38   61 1   
    56   39   61 1   
    57   47   48 1   
    58   51   52 1   
@<TRIPOS>SUBSTRUCTURE
     1 3SR         1 TEMP              0 ****  ****    0 ROOT
