@<TRIPOS>MOLECULE
3SS
   12    11     1     0     0
SMALL
bcc


@<TRIPOS>ATOM
      1 C1         -0.0520    0.0760    0.0260 c3        1 3SS     -0.210400
      2 C2          1.4320    0.1750   -0.1250 c3        1 3SS      0.034700
      3 C4         -0.4300   -0.1030    1.5170 c         1 3SS      0.914600
      4 O5          0.3780   -0.7260    2.2650 o         1 3SS     -0.841300
      5 O6         -1.5340    0.3750    1.8960 o         1 3SS     -0.841300
      6 S7          2.1200   -0.1290   -1.7260 ss        1 3SS     -0.215100
      7 S1          1.5030    1.3890   -3.0530 sh        1 3SS     -0.295800
      8 H1         -0.4490   -0.8120   -0.5270 hc        1 3SS      0.042200
      9 H2         -0.5600    0.9900   -0.3710 hc        1 3SS      0.042200
     10 H3          1.8010    1.1480    0.2760 h1        1 3SS      0.090200
     11 H4          1.9150   -0.6560    0.4720 h1        1 3SS      0.090200
     12 H6          2.4690    2.2650   -2.8290 hs        1 3SS      0.190800
@<TRIPOS>BOND
     1    1    2 1   
     2    1    3 1   
     3    1    8 1   
     4    1    9 1   
     5    2    6 1   
     6    2   10 1   
     7    2   11 1   
     8    3    4 1   
     9    3    5 1   
    10    6    7 1   
    11    7   12 1   
@<TRIPOS>SUBSTRUCTURE
     1 3SS         1 TEMP              0 ****  ****    0 ROOT
