@<TRIPOS>MOLECULE
3SS
   12    11     1     0     0
SMALL
bcc


@<TRIPOS>ATOM
      1 C1         -0.0260   -0.0050    0.0020 c3        1 3SS     -0.210400
      2 C2          1.4410    0.2700   -0.0760 c3        1 3SS      0.034700
      3 C4         -0.4700   -0.1400    1.4800 c         1 3SS      0.914600
      4 O5          0.3610   -0.6080    2.3100 o         1 3SS     -0.841300
      5 O6         -1.6450    0.2170    1.7660 o         1 3SS     -0.841300
      6 S7          2.2580   -0.0420   -1.6140 ss        1 3SS     -0.215100
      7 S1          1.5420    1.3030   -3.0720 sh        1 3SS     -0.295800
      8 H1         -0.2780   -0.9680   -0.5100 hc        1 3SS      0.042200
      9 H2         -0.6160    0.8120   -0.4830 hc        1 3SS      0.042200
     10 H3          1.6630    1.3040    0.2770 h1        1 3SS      0.090200
     11 H4          1.9850   -0.4550    0.6000 h1        1 3SS      0.090200
     12 H6          2.3790    2.3050   -2.8570 hs        1 3SS      0.190800
@<TRIPOS>BOND
     1    1    2 1   
     2    1    3 1   
     3    1    8 1   
     4    1    9 1   
     5    2    6 1   
     6    2   10 1   
     7    2   11 1   
     8    3    4 1   
     9    3    5 1   
    10    6    7 1   
    11    7   12 1   
@<TRIPOS>SUBSTRUCTURE
     1 3SS         1 TEMP              0 ****  ****    0 ROOT
