@<TRIPOS>MOLECULE
3SS
   12    11     1     0     0
SMALL
bcc


@<TRIPOS>ATOM
      1 C1         -1.0700   -0.4160   -0.6350 c3        1 3SS     -0.173400
      2 C2          0.4420   -0.4260   -0.6210 c3        1 3SS     -0.054300
      3 C4         -1.5870   -0.3620    0.7860 c         1 3SS      0.890600
      4 O5         -1.9210    0.7410    1.2930 o         1 3SS     -0.700300
      5 O6         -1.6830   -1.4200    1.4620 o         1 3SS     -0.700300
      6 S7          1.0290    0.6050    0.6970 ss        1 3SS      0.119900
      7 S1          2.8720    1.3570    0.2070 sh        1 3SS     -0.814800
      8 H1         -1.3860    0.3690   -1.1270 hc        1 3SS      0.052700
      9 H2         -1.3980   -1.2280   -1.0700 hc        1 3SS      0.052700
     10 H3          0.7790   -0.0880   -1.4750 h1        1 3SS      0.051200
     11 H4          0.7610   -1.3410   -0.4850 h1        1 3SS      0.051200
     12 H6          3.1640    2.2070    0.9680 hs        1 3SS      0.224800
@<TRIPOS>BOND
     1    1    2 1   
     2    1    3 1   
     3    1    8 1   
     4    1    9 1   
     5    2    6 1   
     6    2   10 1   
     7    2   11 1   
     8    3    4 1   
     9    3    5 1   
    10    6    7 1   
    11    7   12 1   
@<TRIPOS>SUBSTRUCTURE
     1 3SS         1 TEMP              0 ****  ****    0 ROOT
