@<TRIPOS>MOLECULE
3SS
   12    11     1     0     0
SMALL
bcc


@<TRIPOS>ATOM
      1 C1         -0.7140    0.2170   -0.4010 c3        1 3SS     -0.215400
      2 C2          0.0120   -0.7620    0.4660 c3        1 3SS      0.028700
      3 C4         -2.2470    0.0770   -0.2250 c         1 3SS      0.916600
      4 O5         -2.7120   -1.0650    0.0520 o         1 3SS     -0.839300
      5 O6         -2.9420    1.1160   -0.3900 o         1 3SS     -0.839300
      6 S7          1.6660   -1.1580   -0.0220 ss        1 3SS     -0.207100
      7 S1          2.8890    0.5190    0.3500 sh        1 3SS     -0.316800
      8 H1         -0.4170    1.2670   -0.1570 hc        1 3SS      0.036200
      9 H2         -0.4910    0.0320   -1.4820 hc        1 3SS      0.036200
     10 H3         -0.0230   -0.4460    1.5340 h1        1 3SS      0.095700
     11 H4         -0.4910   -1.7710    0.3810 h1        1 3SS      0.095700
     12 H6          2.6760    1.2050   -0.7640 hs        1 3SS      0.209800
@<TRIPOS>BOND
     1    1    2 1   
     2    1    3 1   
     3    1    8 1   
     4    1    9 1   
     5    2    6 1   
     6    2   10 1   
     7    2   11 1   
     8    3    4 1   
     9    3    5 1   
    10    6    7 1   
    11    7   12 1   
@<TRIPOS>SUBSTRUCTURE
     1 3SS         1 TEMP              0 ****  ****    0 ROOT
