@<TRIPOS>MOLECULE
3ST
   59    57     1     0     0
SMALL
bcc


@<TRIPOS>ATOM
      1 C1         -0.1920   -0.9910    0.3940 c         1 3ST      0.759100
      2 C2          0.9680   -0.1000    0.3890 cc        1 3ST     -0.311200
      3 C3          1.2860    0.7490    1.5060 cd        1 3ST      0.501200
      4 C8          2.7980    1.0870   -0.0460 cc        1 3ST      0.317800
      5 N9          1.9260    0.1390   -0.5900 na        1 3ST     -0.091900
      6 C10         2.0110   -0.5120   -1.8760 c3        1 3ST      0.007300
      7 C11         3.1140   -1.5500   -2.0000 c3        1 3ST     -0.118100
      8 C15         4.0100    1.6370   -0.7410 c3        1 3ST      0.132200
      9 C17         5.2950    1.1190   -0.0700 c3        1 3ST     -0.065200
     10 C18         6.4750    1.8450   -0.5880 c2        1 3ST     -0.207200
     11 C20         7.2980    0.1470   -2.2350 ce        1 3ST     -0.185000
     12 C21         7.3060   -1.0380   -1.6230 c2        1 3ST     -0.166000
     13 C22         8.3180    2.4430   -2.0430 c         1 3ST      0.655300
     14 O28        -0.4990   -1.7240   -0.5620 o         1 3ST     -0.605500
     15 N6         -0.9440   -0.9490    1.5780 n         1 3ST     -0.475400
     16 C5         -0.6280   -0.1170    2.6850 c         1 3ST      0.814500
     17 O26        -1.3430   -0.1400    3.7050 o         1 3ST     -0.591500
     18 N4          0.4960    0.7560    2.6410 n         1 3ST     -0.422300
     19 C27         0.8360    1.5740    3.7760 c3        1 3ST      0.085300
     20 N7          2.4330    1.4910    1.2180 nd        1 3ST     -0.694000
     21 C12         3.7070   -0.2140   -5.7750 c1        1 3ST     -0.128100
     22 N16         3.9420    3.1440   -0.7180 n4        1 3ST     -0.844600
     23 C19         7.3120    1.4310   -1.5540 ce        1 3ST     -0.068200
     24 H1          1.0120   -1.0130   -2.0640 h1        1 3ST      0.095700
     25 H2          2.1590    0.2930   -2.6550 h1        1 3ST      0.095700
     26 H3          3.1020   -1.9400   -3.0500 hc        1 3ST      0.059367
     27 H4          4.1200   -1.1110   -1.7940 hc        1 3ST      0.059367
     28 H5          4.3450    1.9500   -5.7960 ha        1 3ST      0.164500
     29 H6          2.8310    2.2880   -3.9480 ha        1 3ST      0.002000
     30 H7          2.8490    2.5300   -3.3120 ha        1 3ST      0.002000
     31 H8          4.0350   -2.2250   -5.2480 hc        1 3ST      0.062700
     32 H9          3.2640   -1.9480   -6.8700 hc        1 3ST      0.062700
     33 H10         2.2910   -1.7130   -5.3540 hc        1 3ST      0.062700
     34 H11         4.0140    1.3360   -1.8360 hx        1 3ST      0.119700
     35 H12         3.0780    3.4590   -1.1670 hn        1 3ST      0.469800
     36 H13         3.9580    3.4790    0.2530 hn        1 3ST      0.469800
     37 H14         5.2280    1.2350    1.0470 hc        1 3ST      0.103200
     38 H15         6.0310    5.0480   -0.7750 ha        1 3ST      0.002000
     39 H16         5.3540    0.0170   -0.2900 hc        1 3ST      0.103200
     40 H17         7.3230   -1.9810   -2.1890 ha        1 3ST      0.132000
     41 H18         7.3220   -1.1520   -0.5300 ha        1 3ST      0.132000
     42 H19         4.7580    3.5320   -1.2150 hn        1 3ST      0.469800
     43 H20         7.3170    0.2150   -3.3400 ha        1 3ST      0.152000
     44 H21        -3.0140   -1.1430    1.9100 h1        1 3ST      0.074700
     45 H22        -2.2640   -2.3900    0.7880 h1        1 3ST      0.074700
     46 H23        -1.9740   -2.4740    2.6010 h1        1 3ST      0.074700
     47 H24         0.8360    2.6550    3.4700 h1        1 3ST      0.069367
     48 H25         1.8570    1.2960    4.1520 h1        1 3ST      0.069367
     49 H26         0.0810    1.4180    4.5940 h1        1 3ST      0.069367
     50 H27         2.9450   -2.4050   -1.3010 hc        1 3ST      0.059367
     51 H29         6.6270    5.2060   -1.0610 ha        1 3ST      0.002000
     52 H30         6.6630    2.8360   -0.1250 ha        1 3ST      0.147000
     53 H31        10.2310    2.6820   -2.7180 hn        1 3ST      0.331000
     54 C25        -2.1150   -1.7890    1.7230 c3        1 3ST      0.074300
     55 O24         7.9810    3.6480   -2.1140 o         1 3ST     -0.633100
     56 C13         4.0420    0.9350   -5.7610 c1        1 3ST     -0.188500
     57 C14         3.3070   -1.5840   -5.8090 c3        1 3ST     -0.033000
     58 H233        9.8190    1.0690   -2.3330 hn        1 3ST      0.331000
     59 N23         9.5610    2.0210   -2.4020 n         1 3ST     -0.637000
@<TRIPOS>BOND
     1    1    2 1   
     2    1   14 2   
     3    1   15 1   
     4    2    3 2   
     5    2    5 1   
     6    3   18 1   
     7    3   20 1   
     8    4    5 1   
     9    4    8 1   
    10    4   20 2   
    11    5    6 1   
    12    6    7 1   
    13    6   24 1   
    14    6   25 1   
    15    7   26 1   
    16    7   27 1   
    17    7   50 1   
    18    8    9 1   
    19    8   22 1   
    20    8   34 1   
    21    9   10 1   
    22    9   37 1   
    23    9   39 1   
    24   10   23 2   
    25   10   52 1   
    26   11   12 2   
    27   11   23 1   
    28   11   43 1   
    29   12   40 1   
    30   12   41 1   
    31   13   23 1   
    32   13   55 2   
    33   13   59 1   
    34   15   16 1   
    35   15   54 1   
    36   16   17 2   
    37   16   18 1   
    38   18   19 1   
    39   19   47 1   
    40   19   48 1   
    41   19   49 1   
    42   21   56 3   
    43   21   57 1   
    44   22   35 1   
    45   22   36 1   
    46   22   42 1   
    47   28   56 1   
    48   29   30 1   
    49   31   57 1   
    50   32   57 1   
    51   33   57 1   
    52   38   51 1   
    53   44   54 1   
    54   45   54 1   
    55   46   54 1   
    56   53   59 1   
    57   58   59 1   
@<TRIPOS>SUBSTRUCTURE
     1 3ST         1 TEMP              0 ****  ****    0 ROOT
