@<TRIPOS>MOLECULE
3ST
   59    54     1     0     0
SMALL
bcc


@<TRIPOS>ATOM
      1 C1         -0.6750   -0.7030    0.4190 c2        1 3ST      0.397000
      2 C2          0.6490   -0.4720   -0.1660 c2        1 3ST     -0.175000
      3 C3          1.5320    0.5600    0.2850 c2        1 3ST      0.073000
      4 C8          2.5360   -0.4970   -1.3470 c2        1 3ST     -0.100000
      5 N9          1.2930   -1.1270   -1.2120 na        1 3ST     -0.059000
      6 C10         0.8010   -2.2660   -1.9500 c3        1 3ST     -0.050000
      7 C11         1.5330   -3.5690   -1.6720 c3        1 3ST     -0.236000
      8 C15         3.5850   -0.8950   -2.3480 c3        1 3ST      0.002000
      9 C17         6.9250    4.5130    2.8950 c2        1 3ST     -0.163000
     10 C18         7.6660    4.4920    1.7890 c2        1 3ST     -0.144000
     11 C20         6.3320    4.4930   -0.2300 c1        1 3ST      0.322000
     12 C21         5.1830    0.9250   -2.0250 c2        1 3ST      0.149000
     13 C22         7.8210    2.5680    0.1360 c2        1 3ST      0.411000
     14 O28        -1.4560   -1.5850    0.0260 o         1 3ST     -0.312000
     15 N6         -0.9980    0.1650    1.4740 n         1 3ST     -0.303000
     16 C5         -0.1410    1.1860    1.9350 c2        1 3ST      0.331000
     17 O26        -0.4850    1.9190    2.8770 o         1 3ST     -0.292000
     18 N4          1.1770    1.4330    1.3340 n         1 3ST     -0.111000
     19 C27         1.9920    2.4020    1.7230 c1        1 3ST     -0.039000
     20 N7          2.7090    0.5340   -0.4590 n2        1 3ST     -0.122000
     21 C12         3.3200   -0.3210   -5.9530 c1        1 3ST     -0.165000
     22 N16         4.3880    0.2410   -2.7950 n7        1 3ST     -0.141000
     23 C19         7.2300    3.8720    0.5320 c2        1 3ST     -0.432000
     24 H1         -0.2950   -2.3930   -1.6930 h1        1 3ST      0.133500
     25 H2          0.8810   -2.0150   -3.0490 h1        1 3ST      0.133500
     26 H3          1.0710   -4.3690   -2.3010 hc        1 3ST      0.099000
     27 H4          2.6170   -3.4920   -1.9280 hc        1 3ST      0.099000
     28 H5          4.6270    1.5160   -6.1330 ha        1 3ST      0.238000
     29 H6          4.8240    3.4640   -4.3750 ha        1 3ST      0.001750
     30 H7          4.8320    2.8040   -4.2190 ha        1 3ST      0.001750
     31 H8          3.0690   -2.3840   -5.6070 hc        1 3ST      0.106000
     32 H9          1.6330   -1.3350   -5.1990 hc        1 3ST      0.106000
     33 H10         2.0530   -1.6710   -6.9340 hc        1 3ST      0.106000
     34 H11         4.2600    0.5010   -3.7690 hn        1 3ST      0.288000
     35 H12         3.1020   -1.3560   -3.2620 h1        1 3ST      0.151000
     36 H13         4.2680   -1.6610   -1.8710 h1        1 3ST      0.151000
     37 H14         5.3410    0.6740   -0.9490 h4        1 3ST      0.225000
     38 H15         6.4280    1.2550   -4.5950 ha        1 3ST      0.001750
     39 H16         7.2840    4.9890    3.8200 ha        1 3ST      0.135000
     40 H17         5.7500    1.7980   -2.4290 h4        1 3ST      0.225000
     41 H18         7.6800    0.0190   -2.1170 ha        1 3ST      0.001750
     42 H19         7.3060   -0.0230   -2.6830 ha        1 3ST      0.001750
     43 H20         7.0800    1.2750   -4.7830 ha        1 3ST      0.001750
     44 H21        -2.8520    0.9960    2.0360 h1        1 3ST      0.115333
     45 H22        -2.1020   -0.1550    3.2400 h1        1 3ST      0.115333
     46 H23        -2.8570   -0.8110    1.6980 h1        1 3ST      0.115333
     47 H24         4.3760    2.5070    3.6270 ha        1 3ST      0.001750
     48 H25         3.9970    2.5180    3.0650 ha        1 3ST      0.001750
     49 H26         1.6260    3.0460    2.5520 ha        1 3ST      0.096000
     50 H27         1.4390   -3.8660   -0.5990 hc        1 3ST      0.099000
     51 H29         8.6670    4.9570    1.7440 ha        1 3ST      0.142000
     52 H30         9.4180    2.7000    1.4240 hn        1 3ST      0.243500
     53 H31         5.9230    4.0630    2.9600 ha        1 3ST      0.135000
     54 C25        -2.2760    0.0380    2.1480 c3        1 3ST     -0.085000
     55 O24         7.2680    1.8480   -0.7400 o         1 3ST     -0.500000
     56 C13         4.0190    0.6510   -6.0180 c1        1 3ST     -0.245000
     57 C14         2.4850   -1.4780   -5.9140 c3        1 3ST     -0.132000
     58 H233        9.3800    1.2890    0.4640 hn        1 3ST      0.243500
     59 N23         8.9760    2.1550    0.7270 nt        1 3ST     -0.391000
@<TRIPOS>BOND
     1    1    2 1   
     2    1   14 1   
     3    1   15 1   
     4    2    3 1   
     5    2    5 1   
     6    3   18 1   
     7    3   20 1   
     8    4    5 1   
     9    4    8 1   
    10    4   20 1   
    11    5    6 1   
    12    6    7 1   
    13    6   24 1   
    14    6   25 1   
    15    7   26 1   
    16    7   27 1   
    17    7   50 1   
    18    8   22 1   
    19    8   35 1   
    20    8   36 1   
    21    9   10 1   
    22    9   39 1   
    23    9   53 1   
    24   10   23 1   
    25   10   51 1   
    26   11   23 1   
    27   12   22 1   
    28   12   37 1   
    29   12   40 1   
    30   13   23 1   
    31   13   55 1   
    32   13   59 1   
    33   15   16 1   
    34   15   54 1   
    35   16   17 1   
    36   16   18 1   
    37   18   19 1   
    38   19   49 1   
    39   21   56 1   
    40   21   57 1   
    41   22   34 1   
    42   28   56 1   
    43   29   30 1   
    44   31   57 1   
    45   32   57 1   
    46   33   57 1   
    47   38   43 1   
    48   41   42 1   
    49   44   54 1   
    50   45   54 1   
    51   46   54 1   
    52   47   48 1   
    53   52   59 1   
    54   58   59 1   
@<TRIPOS>SUBSTRUCTURE
     1 3ST         1 TEMP              0 ****  ****    0 ROOT
