@<TRIPOS>MOLECULE
3SU
   23    24     1     0     0
SMALL
bcc


@<TRIPOS>ATOM
      1 OAM         0.1650   -0.0460    0.1770 o         1 3SU     -0.819800
      2 CAL         1.3400   -0.4490   -0.0600 c         1 3SU      0.905800
      3 OAN         2.0100   -1.1790    0.7170 o         1 3SU     -0.819800
      4 CAJ         1.9870   -0.0190   -1.3810 ce        1 3SU     -0.018600
      5 SAP         1.0780    0.9670   -2.4290 sh        1 3SU     -0.426400
      6 CAI         3.2360   -0.4350   -1.6640 cf        1 3SU     -0.144000
      7 CAH         4.0070   -0.1510   -2.8320 cd        1 3SU     -0.045200
      8 CAE         5.3480   -0.6580   -3.0870 ca        1 3SU     -0.071800
      9 CAD         6.2240   -1.4750   -2.3780 ca        1 3SU     -0.071000
     10 CAC         7.4640   -1.7810   -2.9270 ca        1 3SU     -0.153000
     11 CAB         7.8430   -1.2730   -4.1810 ca        1 3SU     -0.010900
     12 Br          9.5320   -1.7240   -4.8780 br        1 3SU     -0.137100
     13 CAG         7.0050   -0.4470   -4.9230 ca        1 3SU     -0.134000
     14 CAF         5.7530   -0.1360   -4.3760 ca        1 3SU     -0.055200
     15 NAA         4.7300    0.6850   -4.8530 na        1 3SU     -0.199400
     16 CAK         3.6660    0.6350   -3.9380 cc        1 3SU     -0.122100
     17 H2          3.7350   -1.0760   -0.9080 ha        1 3SU      0.159000
     18 H4          5.9290   -1.8720   -1.3940 ha        1 3SU      0.152000
     19 H5          8.1550   -2.4290   -2.3680 ha        1 3SU      0.134000
     20 H6          7.3070   -0.0490   -5.9010 ha        1 3SU      0.133000
     21 H7          4.6550    0.9970   -5.7840 hn        1 3SU      0.282700
     22 H8          2.7440    1.1930   -4.1310 h4        1 3SU      0.188000
     23 H9         -0.0380    1.0620   -1.6800 hs        1 3SU      0.274800
@<TRIPOS>BOND
     1    1    2 1   
     2    2    3 1   
     3    2    4 1   
     4    4    5 1   
     5    4    6 2   
     6    5   23 1   
     7    6    7 1   
     8    6   17 1   
     9    7    8 1   
    10    7   16 2   
    11    8    9 ar  
    12    8   14 ar  
    13    9   10 ar  
    14    9   18 1   
    15   10   11 ar  
    16   10   19 1   
    17   11   12 1   
    18   11   13 ar  
    19   13   14 ar  
    20   13   20 1   
    21   14   15 1   
    22   15   16 1   
    23   15   21 1   
    24   16   22 1   
@<TRIPOS>SUBSTRUCTURE
     1 3SU         1 TEMP              0 ****  ****    0 ROOT
