@<TRIPOS>MOLECULE
3SV
   64    64     1     0     0
SMALL
bcc


@<TRIPOS>ATOM
      1 C5'        -0.1050    0.0010    0.0640 c3        1 3SV     -0.090100
      2 C3'         1.3650    0.1960   -0.2420 c3        1 3SV     -0.069700
      3 C4'         2.1190    0.5420    1.0260 c3        1 3SV     -0.090100
      4 C2'         1.9640   -1.0460   -0.8870 c3        1 3SV     -0.075400
      5 C1'         1.6200   -1.1410   -2.3630 c3        1 3SV     -0.044200
      6 C1          2.1160   -2.4120   -2.9740 ce        1 3SV     -0.059200
      7 C2          1.3380   -3.5200   -3.0040 c2        1 3SV     -0.121400
      8 C6'        -0.0090   -3.6090   -2.3720 c3        1 3SV     -0.042200
      9 C7'        -1.1190   -3.3120   -3.3520 c3        1 3SV     -0.087100
     10 C3          1.7920   -4.7660   -3.6820 c3        1 3SV     -0.039200
     11 C4          2.7130   -4.4460   -4.8390 c3        1 3SV     -0.072400
     12 C5          3.8690   -3.5840   -4.3850 c3        1 3SV     -0.040200
     13 C6          3.4660   -2.4140   -3.5470 ce        1 3SV     -0.089200
     14 C7          4.3510   -1.4290   -3.2970 c2        1 3SV     -0.147200
     15 C8          5.7500   -1.3790   -3.8130 c3        1 3SV     -0.040500
     16 C19         5.7900   -0.5980   -5.1140 c3        1 3SV     -0.084100
     17 C9          6.6660   -0.7510   -2.7670 c3        1 3SV     -0.074400
     18 C10         8.1280   -1.0380   -3.0380 c3        1 3SV     -0.079400
     19 C11         9.0120   -0.4290   -1.9700 c3        1 3SV     -0.076400
     20 C12        10.4940   -0.6260   -2.2630 c3        1 3SV     -0.046700
     21 C20        10.8820   -2.0890   -2.2000 c3        1 3SV     -0.094100
     22 C13        11.3360    0.1860   -1.2920 c3        1 3SV     -0.192400
     23 C14        12.7900    0.3070   -1.7870 c         1 3SV      0.907600
     24 O1         13.5980   -0.6280   -1.5150 o         1 3SV     -0.852300
     25 O2         13.1100    1.3440   -2.4370 o         1 3SV     -0.852300
     26 H1         -0.6680   -0.2620   -0.8640 hc        1 3SV      0.032200
     27 H2         -0.5400    0.9380    0.4900 hc        1 3SV      0.032200
     28 H3         -0.2450   -0.8220    0.8060 hc        1 3SV      0.032200
     29 H4          1.4680    1.0580   -0.9610 hc        1 3SV      0.046700
     30 H5          1.6660    1.4380    1.5150 hc        1 3SV      0.032200
     31 H6          3.1890    0.7660    0.7960 hc        1 3SV      0.032200
     32 H7          2.0850   -0.3110    1.7470 hc        1 3SV      0.032200
     33 H8          3.0800   -1.0250   -0.7720 hc        1 3SV      0.047700
     34 H9          1.5950   -1.9600   -0.3530 hc        1 3SV      0.047700
     35 H10         0.5060   -1.0710   -2.4930 hc        1 3SV      0.045200
     36 H11         2.0530   -0.2600   -2.9090 hc        1 3SV      0.045200
     37 H12        -0.0820   -2.9040   -1.5000 hc        1 3SV      0.043700
     38 H13        -0.1460   -4.6460   -1.9600 hc        1 3SV      0.043700
     39 H14        -2.1120   -3.4200   -2.8520 hc        1 3SV      0.031700
     40 H15        -1.0790   -4.0180   -4.2170 hc        1 3SV      0.031700
     41 H16        -1.0300   -2.2710   -3.7450 hc        1 3SV      0.031700
     42 H17         2.3260   -5.4160   -2.9370 hc        1 3SV      0.043700
     43 H18         0.9050   -5.3450   -4.0560 hc        1 3SV      0.043700
     44 H19         2.1350   -3.9130   -5.6390 hc        1 3SV      0.038700
     45 H20         3.1070   -5.3960   -5.2850 hc        1 3SV      0.038700
     46 H21         4.5860   -4.2140   -3.7880 hc        1 3SV      0.050200
     47 H22         4.4250   -3.2180   -5.2920 hc        1 3SV      0.050200
     48 H23         4.0820   -0.5690   -2.6620 ha        1 3SV      0.124000
     49 H24         6.1200   -2.4260   -4.0140 hc        1 3SV      0.053700
     50 H25         6.8330   -0.5650   -5.5100 hc        1 3SV      0.034367
     51 H26         5.4370    0.4490   -4.9540 hc        1 3SV      0.034367
     52 H27         5.1330   -1.0820   -5.8770 hc        1 3SV      0.034367
     53 H28         6.4970    0.3570   -2.7400 hc        1 3SV      0.037200
     54 H29         6.3970   -1.1530   -1.7550 hc        1 3SV      0.037200
     55 H30         8.2940   -2.1470   -3.0740 hc        1 3SV      0.038700
     56 H31         8.4180   -0.6260   -4.0410 hc        1 3SV      0.038700
     57 H32         8.7970    0.6710   -1.8990 hc        1 3SV      0.028700
     58 H33         8.7650   -0.8810   -0.9750 hc        1 3SV      0.028700
     59 H34        10.7040   -0.2440   -3.3020 hc        1 3SV      0.051700
     60 H35        12.0000   -2.1690   -2.1980 hc        1 3SV      0.031367
     61 H36        10.4730   -2.6470   -3.0750 hc        1 3SV      0.031367
     62 H37        10.4910   -2.5610   -1.2660 hc        1 3SV      0.031367
     63 H38        11.3300   -0.3010   -0.2860 hc        1 3SV      0.021200
     64 H39        10.9080    1.2150   -1.1900 hc        1 3SV      0.021200
@<TRIPOS>BOND
     1    1    2 1   
     2    1   26 1   
     3    1   27 1   
     4    1   28 1   
     5    2    3 1   
     6    2    4 1   
     7    2   29 1   
     8    3   30 1   
     9    3   31 1   
    10    3   32 1   
    11    4    5 1   
    12    4   33 1   
    13    4   34 1   
    14    5    6 1   
    15    5   35 1   
    16    5   36 1   
    17    6    7 2   
    18    6   13 1   
    19    7    8 1   
    20    7   10 1   
    21    8    9 1   
    22    8   37 1   
    23    8   38 1   
    24    9   39 1   
    25    9   40 1   
    26    9   41 1   
    27   10   11 1   
    28   10   42 1   
    29   10   43 1   
    30   11   12 1   
    31   11   44 1   
    32   11   45 1   
    33   12   13 1   
    34   12   46 1   
    35   12   47 1   
    36   13   14 2   
    37   14   15 1   
    38   14   48 1   
    39   15   16 1   
    40   15   17 1   
    41   15   49 1   
    42   16   50 1   
    43   16   51 1   
    44   16   52 1   
    45   17   18 1   
    46   17   53 1   
    47   17   54 1   
    48   18   19 1   
    49   18   55 1   
    50   18   56 1   
    51   19   20 1   
    52   19   57 1   
    53   19   58 1   
    54   20   21 1   
    55   20   22 1   
    56   20   59 1   
    57   21   60 1   
    58   21   61 1   
    59   21   62 1   
    60   22   23 1   
    61   22   63 1   
    62   22   64 1   
    63   23   24 1   
    64   23   25 1   
@<TRIPOS>SUBSTRUCTURE
     1 3SV         1 TEMP              0 ****  ****    0 ROOT
