@<TRIPOS>MOLECULE
3SW
   59    60     1     0     0
SMALL
bcc


@<TRIPOS>ATOM
      1 C1          0.0120    0.2890    0.3540 c3        1 3SW     -0.036200
      2 C10        -2.1410   -3.4500   -1.8440 ce        1 3SW     -0.227000
      3 C11        -2.5420   -4.2510   -2.8520 cf        1 3SW     -0.038000
      4 C9         -2.6750   -2.1270   -1.6420 ce        1 3SW     -0.072000
      5 O2         -1.9370   -7.8500   -5.8150 o         1 3SW     -0.828300
      6 C14        -2.1140   -7.6890   -4.5730 c         1 3SW      0.892800
      7 C20        -0.9970   -6.1220   -2.2010 c3        1 3SW     -0.049900
      8 C19        -2.9770    0.0350   -0.5060 c3        1 3SW     -0.042900
      9 C12        -2.0490   -5.5920   -3.1040 cf        1 3SW     -0.161200
     10 C13        -2.5470   -6.3080   -4.1330 ce        1 3SW     -0.127200
     11 C2          1.5130    0.4590    0.2630 c3        1 3SW     -0.073400
     12 C4          1.6730   -0.9940    2.2830 c2        1 3SW     -0.108400
     13 C5          0.5010   -1.5890    1.9500 ce        1 3SW     -0.046200
     14 C6         -0.3640   -1.0500    0.8970 ce        1 3SW     -0.095200
     15 C7         -1.4340   -1.7290    0.4320 cf        1 3SW     -0.090000
     16 C8         -2.3490   -1.3070   -0.6170 cf        1 3SW     -0.148200
     17 C3          2.1590    0.2450    1.6150 c3        1 3SW     -0.032200
     18 O1         -1.9770   -8.6050   -3.7140 o         1 3SW     -0.828300
     19 C4'        -1.7610   -5.3190    2.0010 c3        1 3SW     -0.095100
     20 C3'        -0.2930   -5.3210    2.3790 c3        1 3SW     -0.065700
     21 C5'         0.3740   -6.5640    1.8260 c3        1 3SW     -0.095100
     22 C2'         0.4150   -4.0790    1.8590 c3        1 3SW     -0.076400
     23 C1'         0.0550   -2.8330    2.6490 c3        1 3SW     -0.047200
     24 C6'         2.5650   -1.5530    3.3120 cx        1 3SW     -0.074500
     25 C7'         2.3000   -1.3230    4.7800 cx        1 3SW     -0.132900
     26 C8'         3.4780   -0.6700    4.1230 cx        1 3SW     -0.132900
     27 H1         -0.4380    0.4320   -0.6650 hc        1 3SW      0.045700
     28 H2         -0.4150    1.0830    1.0250 hc        1 3SW      0.045700
     29 H3         -1.3740   -3.7930   -1.1280 ha        1 3SW      0.128000
     30 H4         -3.3090   -3.8880   -3.5630 ha        1 3SW      0.103000
     31 H5         -3.4020   -1.7740   -2.3960 ha        1 3SW      0.110000
     32 H7         -0.7560   -7.1850   -2.4650 hc        1 3SW      0.038700
     33 H8         -0.0680   -5.5050   -2.2800 hc        1 3SW      0.038700
     34 H9         -1.3440   -6.0940   -1.1370 hc        1 3SW      0.038700
     35 H10        -2.6620    0.5530    0.4320 hc        1 3SW      0.031367
     36 H11        -2.6890    0.6770   -1.3760 hc        1 3SW      0.031367
     37 H12        -4.0920   -0.0590   -0.5000 hc        1 3SW      0.031367
     38 H13        -3.3290   -5.8740   -4.7790 ha        1 3SW      0.098000
     39 H14         1.9290   -0.2770   -0.4740 hc        1 3SW      0.040700
     40 H15         1.7540    1.4870   -0.1130 hc        1 3SW      0.040700
     41 H16        -1.6740   -2.7320    0.8380 ha        1 3SW      0.134000
     42 H17         1.9360    1.1230    2.2810 hc        1 3SW      0.039700
     43 H18         3.2740    0.1960    1.4940 hc        1 3SW      0.039700
     44 H19        -2.2480   -6.2630    2.3430 hc        1 3SW      0.037200
     45 H20        -2.2920   -4.4580    2.4740 hc        1 3SW      0.037200
     46 H21        -1.8800   -5.2420    0.8920 hc        1 3SW      0.037200
     47 H22        -0.2100   -5.3360    3.5020 hc        1 3SW      0.032700
     48 H23         1.4540   -6.5890    2.1080 hc        1 3SW      0.037200
     49 H24         0.2960   -6.5840    0.7110 hc        1 3SW      0.037200
     50 H25        -0.1190   -7.4810    2.2300 hc        1 3SW      0.037200
     51 H26         0.1590   -3.9340    0.7750 hc        1 3SW      0.048200
     52 H27         1.5260   -4.2330    1.9160 hc        1 3SW      0.048200
     53 H28         0.5280   -2.8950    3.6670 hc        1 3SW      0.045700
     54 H29        -1.0540   -2.7890    2.8210 hc        1 3SW      0.045700
     55 H30         2.9530   -2.5530    3.0180 hc        1 3SW      0.085700
     56 H31         1.4370   -0.7000    5.0740 hc        1 3SW      0.066450
     57 H32         2.4660   -2.1570    5.4840 hc        1 3SW      0.066450
     58 H33         3.4600    0.4210    3.9560 hc        1 3SW      0.066450
     59 H34         4.4940   -1.0340    4.3560 hc        1 3SW      0.066450
@<TRIPOS>BOND
     1    1   11 1   
     2    1   14 1   
     3    1   27 1   
     4    1   28 1   
     5    2    3 2   
     6    2    4 1   
     7    2   29 1   
     8    3    9 1   
     9    3   30 1   
    10    4   16 2   
    11    4   31 1   
    12    5    6 1   
    13    6   10 1   
    14    6   18 1   
    15    7    9 1   
    16    7   32 1   
    17    7   33 1   
    18    7   34 1   
    19    8   16 1   
    20    8   35 1   
    21    8   36 1   
    22    8   37 1   
    23    9   10 2   
    24   10   38 1   
    25   11   17 1   
    26   11   39 1   
    27   11   40 1   
    28   12   13 2   
    29   12   17 1   
    30   12   24 1   
    31   13   14 1   
    32   13   23 1   
    33   14   15 2   
    34   15   16 1   
    35   15   41 1   
    36   17   42 1   
    37   17   43 1   
    38   19   20 1   
    39   19   44 1   
    40   19   45 1   
    41   19   46 1   
    42   20   21 1   
    43   20   22 1   
    44   20   47 1   
    45   21   48 1   
    46   21   49 1   
    47   21   50 1   
    48   22   23 1   
    49   22   51 1   
    50   22   52 1   
    51   23   53 1   
    52   23   54 1   
    53   24   25 1   
    54   24   26 1   
    55   24   55 1   
    56   25   26 1   
    57   25   56 1   
    58   25   57 1   
    59   26   58 1   
    60   26   59 1   
@<TRIPOS>SUBSTRUCTURE
     1 3SW         1 TEMP              0 ****  ****    0 ROOT
