@<TRIPOS>MOLECULE
3SX
   65    67     1     0     0
SMALL
bcc


@<TRIPOS>ATOM
      1 C4          0.0090    0.6840    0.0160 c3        1 3SX      0.099800
      2 C14         4.7270   -2.2210    6.3710 c3        1 3SX      0.171300
      3 C6          0.0120   -0.5690    2.1660 c3        1 3SX      0.202100
      4 C11         3.0660   -2.6240    3.0330 ca        1 3SX     -0.207500
      5 C7          1.2000   -1.0850    2.8930 ca        1 3SX     -0.261300
      6 C8          1.5230   -0.5950    4.1650 ca        1 3SX     -0.050000
      7 C9          2.6050   -1.0960    4.8670 ca        1 3SX     -0.207500
      8 C10         3.4310   -2.1190    4.3150 ca        1 3SX      0.232600
      9 C12         1.9820   -2.1090    2.3450 ca        1 3SX     -0.050000
     10 C3          0.5120   -0.2400   -2.2210 c3        1 3SX     -0.107100
     11 C1          2.3770    0.6570   -0.8370 c3        1 3SX     -0.107100
     12 C2          1.0530   -0.0750   -0.8150 c3        1 3SX     -0.075700
     13 N5          0.2820    0.7370    1.4720 nx        1 3SX     -0.638300
     14 N13         4.5750   -2.5610    4.9700 nh        1 3SX     -0.643000
     15 C15         6.0570   -2.6750    7.0180 c3        1 3SX      0.078000
     16 N16         6.4780   -3.9930    6.6290 n         1 3SX     -0.467800
     17 C17         6.5210   -4.1610    5.1970 c3        1 3SX      0.078000
     18 C18         5.2120   -3.7690    4.4780 c3        1 3SX      0.171300
     19 C19         6.3520   -5.1110    7.4640 c         1 3SX      0.656100
     20 O20         6.4090   -6.2530    6.9720 o         1 3SX     -0.584100
     21 C21         6.2300   -4.9080    8.9520 c3        1 3SX     -0.170100
     22 S22        -0.6020    2.1890    2.2820 s6        1 3SX      1.342900
     23 O23        -0.3760    1.9710    3.6300 o         1 3SX     -0.561300
     24 O24        -0.0250    3.2640    1.6260 o         1 3SX     -0.561300
     25 C25        -2.1820    1.8690    1.7880 c3        1 3SX     -0.270300
     26 C26        -3.0900    2.8810    2.3950 ca        1 3SX     -0.157300
     27 C27        -3.7500    2.6010    3.5990 ca        1 3SX     -0.096000
     28 C28        -4.6220    3.5390    4.1480 ca        1 3SX     -0.118000
     29 C29        -4.8480    4.7520    3.4950 ca        1 3SX     -0.080000
     30 C30        -4.2010    5.0270    2.2890 ca        1 3SX     -0.118000
     31 C31        -3.3280    4.0940    1.7350 ca        1 3SX     -0.096000
     32 H1         -0.0290    1.7500   -0.3600 hx        1 3SX      0.091200
     33 H2         -0.9990    0.2010   -0.1370 hx        1 3SX      0.091200
     34 H5         -0.8310   -0.3830    2.8940 hx        1 3SX      0.086700
     35 H6         -0.3350   -1.3260    1.4050 hx        1 3SX      0.086700
     36 H7          3.6350   -3.4430    2.5670 ha        1 3SX      0.152000
     37 H8          0.9030    0.1970    4.6220 ha        1 3SX      0.142000
     38 H9          2.8060   -0.6860    5.8680 ha        1 3SX      0.152000
     39 H10         1.7270   -2.5280    1.3580 ha        1 3SX      0.142000
     40 H11         0.3410    0.7540   -2.7000 hc        1 3SX      0.055533
     41 H12        -0.4500   -0.8070   -2.2130 hc        1 3SX      0.055533
     42 H13         1.2490   -0.8070   -2.8420 hc        1 3SX      0.055533
     43 H14         3.0760    0.1490   -1.5470 hc        1 3SX      0.055533
     44 H15         2.2440    1.7130   -1.1760 hc        1 3SX      0.055533
     45 H16         2.8610    0.6600    0.1700 hc        1 3SX      0.055533
     46 H17         1.2080   -1.0970   -0.3650 hc        1 3SX      0.066700
     47 H18         5.9310   -2.6020    8.1330 h1        1 3SX      0.075950
     48 H19         6.8680   -1.9530    6.7100 h1        1 3SX      0.075950
     49 H20         7.3600   -3.5180    4.8030 h1        1 3SX      0.075950
     50 H21         6.7420   -5.2370    4.9420 h1        1 3SX      0.075950
     51 H22         4.4890   -4.6340    4.5390 h1        1 3SX      0.053950
     52 H23         5.4820   -3.6070    3.3940 h1        1 3SX      0.053950
     53 H24         7.0430   -4.2460    9.3340 hc        1 3SX      0.072033
     54 H25         5.2370   -4.4630    9.2030 hc        1 3SX      0.072033
     55 H26         6.3130   -5.9060    9.4510 hc        1 3SX      0.072033
     56 H27        -2.5530    0.8450    2.0790 h1        1 3SX      0.147700
     57 H28        -2.3130    1.9170    0.6680 h1        1 3SX      0.147700
     58 H29        -3.5830    1.6430    4.1160 ha        1 3SX      0.142500
     59 H30        -5.1360    3.3180    5.0970 ha        1 3SX      0.158000
     60 H31        -5.5400    5.4910    3.9300 ha        1 3SX      0.158000
     61 H32        -4.3820    5.9820    1.7700 ha        1 3SX      0.158000
     62 H33        -2.8260    4.3150    0.7790 ha        1 3SX      0.142500
     63 H3          4.6970   -1.0970    6.4680 h1        1 3SX      0.053950
     64 H51         1.2910    0.9150    1.5710 hn        1 3SX      0.462800
     65 H4          3.8670   -2.6500    6.9640 h1        1 3SX      0.053950
@<TRIPOS>BOND
     1    1   12 1   
     2    1   13 1   
     3    1   32 1   
     4    1   33 1   
     5    2   14 1   
     6    2   15 1   
     7    2   63 1   
     8    2   65 1   
     9    3    5 1   
    10    3   13 1   
    11    3   34 1   
    12    3   35 1   
    13    4    8 ar  
    14    4    9 ar  
    15    4   36 1   
    16    5    6 ar  
    17    5    9 ar  
    18    6    7 ar  
    19    6   37 1   
    20    7    8 ar  
    21    7   38 1   
    22    8   14 1   
    23    9   39 1   
    24   10   12 1   
    25   10   40 1   
    26   10   41 1   
    27   10   42 1   
    28   11   12 1   
    29   11   43 1   
    30   11   44 1   
    31   11   45 1   
    32   12   46 1   
    33   13   22 1   
    34   13   64 1   
    35   14   18 1   
    36   15   16 1   
    37   15   47 1   
    38   15   48 1   
    39   16   17 1   
    40   16   19 1   
    41   17   18 1   
    42   17   49 1   
    43   17   50 1   
    44   18   51 1   
    45   18   52 1   
    46   19   20 2   
    47   19   21 1   
    48   21   53 1   
    49   21   54 1   
    50   21   55 1   
    51   22   23 2   
    52   22   24 2   
    53   22   25 1   
    54   25   26 1   
    55   25   56 1   
    56   25   57 1   
    57   26   27 ar  
    58   26   31 ar  
    59   27   28 ar  
    60   27   58 1   
    61   28   29 ar  
    62   28   59 1   
    63   29   30 ar  
    64   29   60 1   
    65   30   31 ar  
    66   30   61 1   
    67   31   62 1   
@<TRIPOS>SUBSTRUCTURE
     1 3SX         1 TEMP              0 ****  ****    0 ROOT
