@<TRIPOS>MOLECULE
3SX
   65    67     1     0     0
SMALL
bcc


@<TRIPOS>ATOM
      1 C4          0.0240    0.6980    0.0150 c3        1 3SX      0.099800
      2 C14         4.7150   -2.2290    6.3800 c3        1 3SX      0.171300
      3 C6          0.0190   -0.5700    2.1570 c3        1 3SX      0.202100
      4 C11         3.0780   -2.6160    3.0290 ca        1 3SX     -0.207500
      5 C7          1.2050   -1.0850    2.8880 ca        1 3SX     -0.261300
      6 C8          1.5180   -0.6010    4.1650 ca        1 3SX     -0.050000
      7 C9          2.5980   -1.1030    4.8700 ca        1 3SX     -0.207500
      8 C10         3.4320   -2.1180    4.3170 ca        1 3SX      0.232600
      9 C12         1.9960   -2.1010    2.3380 ca        1 3SX     -0.050000
     10 C3          0.5470   -0.2090   -2.2240 c3        1 3SX     -0.107100
     11 C1          2.3980    0.6900   -0.8210 c3        1 3SX     -0.107100
     12 C2          1.0780   -0.0500   -0.8130 c3        1 3SX     -0.075700
     13 N5          0.2870    0.7430    1.4740 n4        1 3SX     -0.638300
     14 N13         4.5740   -2.5590    4.9760 nh        1 3SX     -0.643000
     15 C15         6.0430   -2.6830    7.0330 c3        1 3SX      0.078000
     16 N16         6.4730   -3.9950    6.6360 n         1 3SX     -0.467800
     17 C17         6.5260   -4.1520    5.2040 c3        1 3SX      0.078000
     18 C18         5.2200   -3.7610    4.4790 c3        1 3SX      0.171300
     19 C19         6.3460   -5.1200    7.4630 c         1 3SX      0.656100
     20 O20         6.4110   -6.2580    6.9620 o         1 3SX     -0.584100
     21 C21         6.2120   -4.9290    8.9510 c3        1 3SX     -0.170100
     22 S22        -0.6100    2.1850    2.2880 s6        1 3SX      1.342900
     23 O23        -0.3910    1.9590    3.6350 o         1 3SX     -0.561300
     24 O24        -0.0340    3.2670    1.6420 o         1 3SX     -0.561300
     25 C25        -2.1850    1.8600    1.7810 c3        1 3SX     -0.270300
     26 C26        -3.1020    2.8630    2.3880 ca        1 3SX     -0.157300
     27 C27        -3.7660    2.5750    3.5880 ca        1 3SX     -0.096000
     28 C28        -4.6470    3.5050    4.1360 ca        1 3SX     -0.118000
     29 C29        -4.8770    4.7200    3.4870 ca        1 3SX     -0.080000
     30 C30        -4.2250    5.0040    2.2860 ca        1 3SX     -0.118000
     31 C31        -3.3440    4.0780    1.7320 ca        1 3SX     -0.096000
     32 H1         -0.9800    0.2110   -0.1470 hx        1 3SX      0.091200
     33 H2         -0.0180    1.7670   -0.3530 hx        1 3SX      0.091200
     34 H5         -0.8290   -0.3920    2.8820 hx        1 3SX      0.086700
     35 H6         -0.3200   -1.3230    1.3890 hx        1 3SX      0.086700
     36 H7          3.6530   -3.4290    2.5610 ha        1 3SX      0.152000
     37 H8          0.8920    0.1840    4.6240 ha        1 3SX      0.142000
     38 H9          2.7910   -0.6990    5.8760 ha        1 3SX      0.152000
     39 H10         1.7490   -2.5150    1.3460 ha        1 3SX      0.142000
     40 H11         0.3730    0.7870   -2.6970 hc        1 3SX      0.055533
     41 H12         1.2900   -0.7680   -2.8440 hc        1 3SX      0.055533
     42 H13        -0.4130   -0.7810   -2.2250 hc        1 3SX      0.055533
     43 H14         2.8750    0.6900    0.1880 hc        1 3SX      0.055533
     44 H15         2.2610    1.7470   -1.1560 hc        1 3SX      0.055533
     45 H16         3.1040    0.1900   -1.5300 hc        1 3SX      0.055533
     46 H17         1.2350   -1.0740   -0.3690 hc        1 3SX      0.066700
     47 H18         5.9090   -2.6180    8.1470 h1        1 3SX      0.075950
     48 H19         6.8530   -1.9540    6.7360 h1        1 3SX      0.075950
     49 H20         6.7540   -5.2250    4.9420 h1        1 3SX      0.075950
     50 H21         7.3640   -3.5020    4.8210 h1        1 3SX      0.075950
     51 H22         5.4970   -3.5900    3.3980 h1        1 3SX      0.053950
     52 H23         4.5010   -4.6300    4.5290 h1        1 3SX      0.053950
     53 H24         5.2160   -4.4900    9.1980 hc        1 3SX      0.072033
     54 H25         6.2960   -5.9310    9.4430 hc        1 3SX      0.072033
     55 H26         7.0200   -4.2660    9.3440 hc        1 3SX      0.072033
     56 H27        -2.3090    1.9130    0.6610 h1        1 3SX      0.147700
     57 H28        -2.5530    0.8330    2.0640 h1        1 3SX      0.147700
     58 H29        -3.5960    1.6160    4.1010 ha        1 3SX      0.142500
     59 H30        -5.1640    3.2780    5.0810 ha        1 3SX      0.158000
     60 H31        -5.5750    5.4530    3.9220 ha        1 3SX      0.158000
     61 H32        -4.4090    5.9600    1.7700 ha        1 3SX      0.158000
     62 H33        -2.8390    4.3060    0.7800 ha        1 3SX      0.142500
     63 H3          3.8530   -2.6660    6.9650 h1        1 3SX      0.053950
     64 H51         1.2950    0.9250    1.5810 hn        1 3SX      0.462800
     65 H4          4.6800   -1.1060    6.4850 h1        1 3SX      0.053950
@<TRIPOS>BOND
     1    1   12 1   
     2    1   13 1   
     3    1   32 1   
     4    1   33 1   
     5    2   14 1   
     6    2   15 1   
     7    2   63 1   
     8    2   65 1   
     9    3    5 1   
    10    3   13 1   
    11    3   34 1   
    12    3   35 1   
    13    4    8 ar  
    14    4    9 ar  
    15    4   36 1   
    16    5    6 ar  
    17    5    9 ar  
    18    6    7 ar  
    19    6   37 1   
    20    7    8 ar  
    21    7   38 1   
    22    8   14 1   
    23    9   39 1   
    24   10   12 1   
    25   10   40 1   
    26   10   41 1   
    27   10   42 1   
    28   11   12 1   
    29   11   43 1   
    30   11   44 1   
    31   11   45 1   
    32   12   46 1   
    33   13   22 1   
    34   13   64 1   
    35   14   18 1   
    36   15   16 1   
    37   15   47 1   
    38   15   48 1   
    39   16   17 1   
    40   16   19 1   
    41   17   18 1   
    42   17   49 1   
    43   17   50 1   
    44   18   51 1   
    45   18   52 1   
    46   19   20 2   
    47   19   21 1   
    48   21   53 1   
    49   21   54 1   
    50   21   55 1   
    51   22   23 2   
    52   22   24 2   
    53   22   25 1   
    54   25   26 1   
    55   25   56 1   
    56   25   57 1   
    57   26   27 ar  
    58   26   31 ar  
    59   27   28 ar  
    60   27   58 1   
    61   28   29 ar  
    62   28   59 1   
    63   29   30 ar  
    64   29   60 1   
    65   30   31 ar  
    66   30   61 1   
    67   31   62 1   
@<TRIPOS>SUBSTRUCTURE
     1 3SX         1 TEMP              0 ****  ****    0 ROOT
