@<TRIPOS>MOLECULE
3SZ
   54    57     1     0     0
SMALL
bcc


@<TRIPOS>ATOM
      1 NAA         0.2330   -0.5150    0.9890 n4        1 3SZ     -0.699000
      2 OAB         1.5120    0.5290   -3.7680 o         1 3SZ     -0.630300
      3 OAC         3.9160    0.8500   -3.6880 o         1 3SZ     -0.630300
      4 OAD         4.2510   -1.8150   -9.3380 o         1 3SZ     -0.642300
      5 OAE         6.0750   -0.7730   -8.1530 o         1 3SZ     -0.642300
      6 CAF         3.9200   -0.6430    0.3390 ca        1 3SZ     -0.118000
      7 CAG         2.7080   -0.6770    1.0160 ca        1 3SZ     -0.063000
      8 CAH         3.9500   -0.4480   -1.0470 ca        1 3SZ      0.029000
      9 CAI         4.4120    1.5250   -7.5950 ca        1 3SZ     -0.016000
     10 CAJ         3.7520    2.7480   -7.5900 ca        1 3SZ     -0.149000
     11 CAK         1.5430   -0.3340   -1.1070 ca        1 3SZ     -0.001000
     12 CAL         2.5650    0.4710   -8.7470 ca        1 3SZ     -0.012000
     13 CAM         1.8710   -2.2790   -6.1980 c3        1 3SZ     -0.122400
     14 CAN         0.7340    4.1470   -9.0550 c3        1 3SZ      0.087400
     15 CAO        -0.1210    2.8930   -9.0050 c3        1 3SZ      0.089400
     16 CAP         1.9270   -2.2120   -4.6750 c3        1 3SZ      0.225800
     17 CAQ         3.1730   -2.7800   -6.8240 c3        1 3SZ      0.219800
     18 CAR         4.3370   -1.9840   -4.3210 c3        1 3SZ      0.217800
     19 CAS         5.0230   -1.6350   -5.6570 c3        1 3SZ      0.204800
     20 OAT         1.8450    4.0560   -8.1500 os        1 3SZ     -0.307900
     21 OAU         0.6390    1.7290   -9.3490 os        1 3SZ     -0.309900
     22 CAV         1.5140   -0.5130    0.2830 ca        1 3SZ     -0.100400
     23 CAW         2.7680   -0.3030   -1.7740 ca        1 3SZ     -0.295500
     24 CAX         3.8380    0.3810   -8.1710 ca        1 3SZ     -0.405500
     25 CAY         2.4820    2.8340   -8.1780 ca        1 3SZ      0.130100
     26 CAZ         1.8850    1.6890   -8.7440 ca        1 3SZ      0.024100
     27 NBA         3.0170   -1.4360   -4.1280 n3        1 3SZ     -0.816500
     28 NBB         4.2490   -1.8330   -6.8480 n3        1 3SZ     -0.805500
     29 SBC         2.7990    0.0250   -3.4940 sy        1 3SZ      1.492200
     30 SBD         4.6980   -1.0600   -8.2360 sy        1 3SZ      1.512200
     31 HNAA       -0.5240   -0.2530    0.3470 hn        1 3SZ      0.464800
     32 HNAB        0.0470   -1.4520    1.3660 hn        1 3SZ      0.464800
     33 HAF         4.8630   -0.7600    0.9000 ha        1 3SZ      0.180000
     34 HAG         2.6950   -0.8230    2.1090 ha        1 3SZ      0.160000
     35 HAH         4.9260   -0.3830   -1.5660 ha        1 3SZ      0.182000
     36 HAK         0.6150   -0.1890   -1.6960 ha        1 3SZ      0.180000
     37 HAL         2.1030   -0.4080   -9.2300 ha        1 3SZ      0.170000
     38 HAM         1.5930   -1.2780   -6.6210 hc        1 3SZ      0.068200
     39 HAMA        1.0550   -3.0000   -6.4710 hc        1 3SZ      0.068200
     40 HAN         1.1340    4.3190  -10.0890 h1        1 3SZ      0.081700
     41 HANA        0.1700    5.0470   -8.6950 h1        1 3SZ      0.081700
     42 HAO        -0.9340    2.9210   -9.7770 h1        1 3SZ      0.075200
     43 HAOA       -0.5550    2.7480   -7.9810 h1        1 3SZ      0.075200
     44 HAP         0.9570   -1.7660   -4.3040 h1        1 3SZ      0.053200
     45 HAPA        2.0030   -3.2640   -4.2710 h1        1 3SZ      0.053200
     46 HAQ         2.9490   -3.0850   -7.8910 h1        1 3SZ      0.067700
     47 HAQA        3.5000   -3.7110   -6.2740 h1        1 3SZ      0.067700
     48 HAR         5.0080   -1.5930   -3.5000 h1        1 3SZ      0.058200
     49 HARA        4.2840   -3.1060   -4.2190 h1        1 3SZ      0.058200
     50 HAS         5.9570   -2.2720   -5.7040 h1        1 3SZ      0.065200
     51 HASA        5.3490   -0.5520   -5.6230 h1        1 3SZ      0.065200
     52 HAI         5.4240    1.4560   -7.1580 ha        1 3SZ      0.161000
     53 HAA3        0.2650    0.1580    1.7630 hn        1 3SZ      0.464800
     54 HAJ         4.2100    3.6440   -7.1470 ha        1 3SZ      0.165000
@<TRIPOS>BOND
     1    1   22 1   
     2    1   31 1   
     3    1   32 1   
     4    1   53 1   
     5    2   29 2   
     6    3   29 2   
     7    4   30 2   
     8    5   30 2   
     9    6    7 ar  
    10    6    8 ar  
    11    6   33 1   
    12    7   22 ar  
    13    7   34 1   
    14    8   23 ar  
    15    8   35 1   
    16    9   10 ar  
    17    9   24 ar  
    18    9   52 1   
    19   10   25 ar  
    20   10   54 1   
    21   11   22 ar  
    22   11   23 ar  
    23   11   36 1   
    24   12   24 ar  
    25   12   26 ar  
    26   12   37 1   
    27   13   16 1   
    28   13   17 1   
    29   13   38 1   
    30   13   39 1   
    31   14   15 1   
    32   14   20 1   
    33   14   40 1   
    34   14   41 1   
    35   15   21 1   
    36   15   42 1   
    37   15   43 1   
    38   16   27 1   
    39   16   44 1   
    40   16   45 1   
    41   17   28 1   
    42   17   46 1   
    43   17   47 1   
    44   18   19 1   
    45   18   27 1   
    46   18   48 1   
    47   18   49 1   
    48   19   28 1   
    49   19   50 1   
    50   19   51 1   
    51   20   25 1   
    52   21   26 1   
    53   23   29 1   
    54   24   30 1   
    55   25   26 ar  
    56   27   29 1   
    57   28   30 1   
@<TRIPOS>SUBSTRUCTURE
     1 3SZ         1 TEMP              0 ****  ****    0 ROOT
