@<TRIPOS>MOLECULE
3SZ
   53    56     1     0     0
SMALL
bcc


@<TRIPOS>ATOM
      1 NAA         6.4940   -0.9400   -1.8960 nh        1 3SZ     -0.817200
      2 OAB         1.5910   -1.4010   -0.4380 o         1 3SZ     -0.653300
      3 OAC         1.4660   -0.1110    1.5920 o         1 3SZ     -0.653300
      4 OAD        -3.8040    2.2550   -0.8570 o         1 3SZ     -0.653300
      5 OAE        -3.0650    2.7040    1.3850 o         1 3SZ     -0.653300
      6 CAF         5.6120    0.8620    1.2290 ca        1 3SZ     -0.117000
      7 CAG         6.3740    0.2950    0.2140 ca        1 3SZ     -0.130000
      8 CAH         4.2270    0.7160    1.2400 ca        1 3SZ     -0.065000
      9 CAI        -2.4840   -0.0980    1.7720 ca        1 3SZ     -0.009000
     10 CAJ        -2.4650   -1.4540    2.0750 ca        1 3SZ     -0.146000
     11 CAK         4.3450   -0.5790   -0.7900 ca        1 3SZ     -0.083000
     12 CAL        -3.1130   -0.5600   -0.5160 ca        1 3SZ     -0.008000
     13 CAM        -0.4030    1.1270   -2.3640 c3        1 3SZ     -0.122400
     14 CAN        -3.2960   -4.5810    0.4020 c3        1 3SZ      0.089400
     15 CAO        -2.9400   -4.1340   -1.0060 c3        1 3SZ      0.088400
     16 CAP         1.0740    1.0140   -1.9980 c3        1 3SZ      0.230800
     17 CAQ        -1.0620    2.3850   -1.7970 c3        1 3SZ      0.222800
     18 CAR         1.1420    2.3490    0.0460 c3        1 3SZ      0.225800
     19 CAS        -0.2960    2.6030    0.5420 c3        1 3SZ      0.204800
     20 OAT        -2.7250   -3.7150    1.3920 os        1 3SZ     -0.307900
     21 OAU        -3.4140   -2.8060   -1.2540 os        1 3SZ     -0.313900
     22 CAV         5.7500   -0.4400   -0.8220 ca        1 3SZ      0.116600
     23 CAW         3.5850   -0.0030    0.2290 ca        1 3SZ     -0.334500
     24 CAX        -2.8090    0.3660    0.4890 ca        1 3SZ     -0.397500
     25 CAY        -2.7740   -2.3770    1.0670 ca        1 3SZ      0.132100
     26 CAZ        -3.0900   -1.9250   -0.2310 ca        1 3SZ      0.021100
     27 NBA         1.3690    1.0830   -0.5910 n3        1 3SZ     -0.804500
     28 NBB        -1.3580    2.3510   -0.3920 n3        1 3SZ     -0.801500
     29 SBC         1.9040   -0.2070    0.2520 sy        1 3SZ      1.502200
     30 SBD        -2.8600    2.0170    0.1680 sy        1 3SZ      1.508200
     31 HNAA        7.4550   -1.1010   -1.6890 hn        1 3SZ      0.392800
     32 HNAB        6.0630   -1.7020   -2.3740 hn        1 3SZ      0.392800
     33 HAF         6.1100    1.4270    2.0310 ha        1 3SZ      0.140000
     34 HAG         7.4680    0.4230    0.2200 ha        1 3SZ      0.137000
     35 HAH         3.6320    1.1500    2.0620 ha        1 3SZ      0.151000
     36 HAJ        -2.2050   -1.8120    3.0820 ha        1 3SZ      0.163000
     37 HAK         3.8290   -1.1640   -1.5720 ha        1 3SZ      0.151000
     38 HAL        -3.3900   -0.2210   -1.5280 ha        1 3SZ      0.166000
     39 HAM        -0.4730    1.1740   -3.4830 hc        1 3SZ      0.060200
     40 HAMA       -0.9560    0.2110   -2.0280 hc        1 3SZ      0.060200
     41 HAN        -4.4080   -4.5930    0.5460 h1        1 3SZ      0.073700
     42 HANA       -2.8560   -5.5850    0.6380 h1        1 3SZ      0.073700
     43 HAO        -1.8300   -4.1600   -1.1650 h1        1 3SZ      0.076200
     44 HAOA       -3.4650   -4.7560   -1.7770 h1        1 3SZ      0.076200
     45 HAP         1.4590    0.0260   -2.3900 h1        1 3SZ      0.052200
     46 HAPA        1.6350    1.8380   -2.5290 h1        1 3SZ      0.052200
     47 HAQ        -0.3960    3.2690   -2.0140 h1        1 3SZ      0.062200
     48 HAQA       -2.0340    2.5520   -2.3530 h1        1 3SZ      0.062200
     49 HAR         1.4350    3.1800   -0.6580 h1        1 3SZ      0.055700
     50 HARA        1.8100    2.4160    0.9560 h1        1 3SZ      0.055700
     51 HAS        -0.4750    1.9650    1.4600 h1        1 3SZ      0.057200
     52 HASA       -0.3360    3.6870    0.8630 h1        1 3SZ      0.057200
     53 HAI        -2.2520    0.6360    2.5660 ha        1 3SZ      0.160000
@<TRIPOS>BOND
     1    1   22 1   
     2    1   31 1   
     3    1   32 1   
     4    2   29 2   
     5    3   29 2   
     6    4   30 2   
     7    5   30 2   
     8    6    7 ar  
     9    6    8 ar  
    10    6   33 1   
    11    7   22 ar  
    12    7   34 1   
    13    8   23 ar  
    14    8   35 1   
    15    9   10 ar  
    16    9   24 ar  
    17    9   53 1   
    18   10   25 ar  
    19   10   36 1   
    20   11   22 ar  
    21   11   23 ar  
    22   11   37 1   
    23   12   24 ar  
    24   12   26 ar  
    25   12   38 1   
    26   13   16 1   
    27   13   17 1   
    28   13   39 1   
    29   13   40 1   
    30   14   15 1   
    31   14   20 1   
    32   14   41 1   
    33   14   42 1   
    34   15   21 1   
    35   15   43 1   
    36   15   44 1   
    37   16   27 1   
    38   16   45 1   
    39   16   46 1   
    40   17   28 1   
    41   17   47 1   
    42   17   48 1   
    43   18   19 1   
    44   18   27 1   
    45   18   49 1   
    46   18   50 1   
    47   19   28 1   
    48   19   51 1   
    49   19   52 1   
    50   20   25 1   
    51   21   26 1   
    52   23   29 1   
    53   24   30 1   
    54   25   26 ar  
    55   27   29 1   
    56   28   30 1   
@<TRIPOS>SUBSTRUCTURE
     1 3SZ         1 TEMP              0 ****  ****    0 ROOT
