@<TRIPOS>MOLECULE
3SZ
   53    56     1     0     0
SMALL
bcc


@<TRIPOS>ATOM
      1 NAA         0.1960   -1.0220    0.6860 nh        1 3SZ     -0.817200
      2 OAB         1.5710    0.6890   -3.9570 o         1 3SZ     -0.653300
      3 OAC         3.9610    0.9460   -3.7970 o         1 3SZ     -0.653300
      4 OAD         4.1080   -1.9270   -9.3730 o         1 3SZ     -0.653300
      5 OAE         6.0450   -0.9620   -8.3270 o         1 3SZ     -0.653300
      6 CAF         3.8350   -0.4200    0.2520 ca        1 3SZ     -0.117000
      7 CAG         2.6130   -0.6730    0.8630 ca        1 3SZ     -0.130000
      8 CAH         3.9040   -0.1720   -1.1170 ca        1 3SZ     -0.065000
      9 CAI         4.5340    1.4120   -7.6810 ca        1 3SZ     -0.009000
     10 CAJ         3.9200    2.6570   -7.6100 ca        1 3SZ     -0.146000
     11 CAK         1.5120   -0.4240   -1.2850 ca        1 3SZ     -0.083000
     12 CAL         2.5400    0.4190   -8.6210 ca        1 3SZ     -0.008000
     13 CAM         1.8750   -2.2940   -6.2140 c3        1 3SZ     -0.122400
     14 CAN         0.7590    4.1430   -8.6470 c3        1 3SZ      0.089400
     15 CAO        -0.0890    2.8920   -8.4950 c3        1 3SZ      0.088400
     16 CAP         1.9290   -2.1150   -4.6990 c3        1 3SZ      0.230800
     17 CAQ         3.1700   -2.8640   -6.7920 c3        1 3SZ      0.222800
     18 CAR         4.3360   -1.8990   -4.3490 c3        1 3SZ      0.225800
     19 CAS         5.0340   -1.6590   -5.7040 c3        1 3SZ      0.204800
     20 OAT         2.0060    4.0260   -7.9490 os        1 3SZ     -0.307900
     21 OAU         0.5990    1.7460   -9.0080 os        1 3SZ     -0.313900
     22 CAV         1.4210   -0.6820    0.1010 ca        1 3SZ      0.116600
     23 CAW         2.7420   -0.1750   -1.8940 ca        1 3SZ     -0.334500
     24 CAX         3.8640    0.2880   -8.1860 ca        1 3SZ     -0.397500
     25 CAY         2.5950    2.7840   -8.0520 ca        1 3SZ      0.132100
     26 CAZ         1.9060    1.6590   -8.5500 ca        1 3SZ      0.021100
     27 NBA         3.0280   -1.3260   -4.2080 n3        1 3SZ     -0.804500
     28 NBB         4.2670   -1.9420   -6.8860 n3        1 3SZ     -0.801500
     29 SBC         2.8160    0.1540   -3.5540 sy        1 3SZ      1.502200
     30 SBD         4.6520   -1.1950   -8.2920 sy        1 3SZ      1.508200
     31 HNAA        0.1520   -0.8570    1.6670 hn        1 3SZ      0.392800
     32 HNAB       -0.6010   -0.6830    0.1950 hn        1 3SZ      0.392800
     33 HAF         4.7550   -0.4120    0.8570 ha        1 3SZ      0.140000
     34 HAG         2.5780   -0.8700    1.9460 ha        1 3SZ      0.137000
     35 HAH         4.8750    0.0510   -1.5910 ha        1 3SZ      0.151000
     36 HAJ         4.4480    3.5340   -7.2100 ha        1 3SZ      0.163000
     37 HAK         0.5980   -0.4030   -1.9050 ha        1 3SZ      0.151000
     38 HAL         1.9980   -0.4460   -9.0410 ha        1 3SZ      0.166000
     39 HAM         1.0470   -3.0150   -6.4410 hc        1 3SZ      0.060200
     40 HAMA        1.6210   -1.3190   -6.7080 hc        1 3SZ      0.060200
     41 HAN         0.9810    4.3460   -9.7280 h1        1 3SZ      0.073700
     42 HANA        0.2690    5.0330   -8.1710 h1        1 3SZ      0.073700
     43 HAO        -1.0190    2.9500   -9.1180 h1        1 3SZ      0.076200
     44 HAOA       -0.3450    2.7110   -7.4180 h1        1 3SZ      0.076200
     45 HAP         1.9730   -3.1380   -4.2220 h1        1 3SZ      0.052200
     46 HAPA        0.9670   -1.6210   -4.3680 h1        1 3SZ      0.052200
     47 HAQ         3.4840   -3.7490   -6.1670 h1        1 3SZ      0.062200
     48 HAQA        2.9490   -3.2480   -7.8340 h1        1 3SZ      0.062200
     49 HAR         5.0100   -1.4500   -3.5590 h1        1 3SZ      0.055700
     50 HARA        4.2800   -3.0100   -4.1630 h1        1 3SZ      0.055700
     51 HAS         5.9620   -2.3040   -5.7030 h1        1 3SZ      0.057200
     52 HASA        5.3640   -0.5770   -5.7480 h1        1 3SZ      0.057200
     53 HAI         5.5810    1.3080   -7.3450 ha        1 3SZ      0.160000
@<TRIPOS>BOND
     1    1   22 1   
     2    1   31 1   
     3    1   32 1   
     4    2   29 2   
     5    3   29 2   
     6    4   30 2   
     7    5   30 2   
     8    6    7 ar  
     9    6    8 ar  
    10    6   33 1   
    11    7   22 ar  
    12    7   34 1   
    13    8   23 ar  
    14    8   35 1   
    15    9   10 ar  
    16    9   24 ar  
    17    9   53 1   
    18   10   25 ar  
    19   10   36 1   
    20   11   22 ar  
    21   11   23 ar  
    22   11   37 1   
    23   12   24 ar  
    24   12   26 ar  
    25   12   38 1   
    26   13   16 1   
    27   13   17 1   
    28   13   39 1   
    29   13   40 1   
    30   14   15 1   
    31   14   20 1   
    32   14   41 1   
    33   14   42 1   
    34   15   21 1   
    35   15   43 1   
    36   15   44 1   
    37   16   27 1   
    38   16   45 1   
    39   16   46 1   
    40   17   28 1   
    41   17   47 1   
    42   17   48 1   
    43   18   19 1   
    44   18   27 1   
    45   18   49 1   
    46   18   50 1   
    47   19   28 1   
    48   19   51 1   
    49   19   52 1   
    50   20   25 1   
    51   21   26 1   
    52   23   29 1   
    53   24   30 1   
    54   25   26 ar  
    55   27   29 1   
    56   28   30 1   
@<TRIPOS>SUBSTRUCTURE
     1 3SZ         1 TEMP              0 ****  ****    0 ROOT
