@<TRIPOS>MOLECULE
3SZ
   53    50     1     0     0
SMALL
bcc


@<TRIPOS>ATOM
      1 NAA        -3.5260   -0.3810    7.5090 n3        1 3SZ     -0.790400
      2 OAB        -2.9790    1.4100    2.7010 o         1 3SZ     -0.647800
      3 OAC        -0.7930    1.8050    2.5750 o         1 3SZ     -0.647800
      4 OAD         0.1140    2.4480   -1.4400 o         1 3SZ     -0.647800
      5 OAE        -1.5910    1.6100   -2.5970 o         1 3SZ     -0.647800
      6 CAF        -0.0430   -0.0170    6.3700 c1        1 3SZ     -0.031250
      7 CAG        -1.1370   -0.1530    7.2020 c1        1 3SZ     -0.073500
      8 CAH        -0.2240    0.0870    4.9960 c1        1 3SZ     -0.031250
      9 CAI         0.3710   -0.1130   -4.4460 c1        1 3SZ     -0.031250
     10 CAJ         1.2480   -0.4770   -5.4900 c1        1 3SZ     -0.031250
     11 CAK        -2.5970   -0.0830    5.2960 c1        1 3SZ      0.011500
     12 CAL         2.1440    1.2440   -3.4110 c1        1 3SZ      0.011500
     13 CAM        -2.7000   -0.8040   -0.4160 c3        1 3SZ     -0.113400
     14 CAN         4.5560    0.4750   -6.6690 c3        1 3SZ      0.088900
     15 CAO         5.1770    0.7860   -5.3890 c3        1 3SZ      0.088900
     16 CAP        -2.6600   -1.1250    1.0450 c3        1 3SZ      0.232300
     17 CAQ        -1.3810   -1.1340   -1.0750 c3        1 3SZ      0.232300
     18 CAR        -0.3160   -1.0550    1.2610 c3        1 3SZ      0.213800
     19 CAS         0.3710   -0.1790    0.2150 c3        1 3SZ      0.213800
     20 OAT         3.4640   -0.2330   -6.6350 os        1 3SZ     -0.294900
     21 OAU         4.4110    1.3310   -4.4800 os        1 3SZ     -0.294900
     22 CAV        -2.4160   -0.1870    6.6670 c1        1 3SZ      0.089800
     23 CAW        -1.5010    0.0540    4.4620 c1        1 3SZ     -0.400200
     24 CAX         0.8210    0.7510   -3.4010 c1        1 3SZ     -0.400200
     25 CAY         2.5450    0.0040   -5.5040 c1        1 3SZ      0.054600
     26 CAZ         3.0070    0.8900   -4.4340 c1        1 3SZ      0.054600
     27 NBA        -1.5660   -0.4750    1.6740 n3        1 3SZ     -0.805500
     28 NBB        -0.4550   -0.0320   -0.9530 n3        1 3SZ     -0.805500
     29 SBC        -1.7170    0.7290    2.8220 s6        1 3SZ      1.547400
     30 SBD        -0.3090    1.2250   -2.0760 s6        1 3SZ      1.547400
     31 HNAA       -3.4010   -0.5900    8.3840 hn        1 3SZ      0.392300
     32 HNAB       -4.3770   -0.2940    7.1750 hn        1 3SZ      0.392300
     33 HAF         0.8560    0.0060    6.7470 ha        1 3SZ      0.094000
     34 HAG        -1.0100   -0.2270    8.1680 ha        1 3SZ      0.079500
     35 HAH         0.5480    0.1830    4.4100 ha        1 3SZ      0.094000
     36 HAI        -0.5340   -0.4500   -4.4370 ha        1 3SZ      0.094000
     37 HAJ         0.9410   -1.0660   -6.2010 ha        1 3SZ      0.094000
     38 HAK        -3.4960   -0.1070    4.9200 ha        1 3SZ      0.104000
     39 HAL         2.4500    1.8340   -2.6970 ha        1 3SZ      0.104000
     40 HAM        -2.8850    0.1410   -0.5300 hc        1 3SZ      0.066200
     41 HAMA       -3.4140   -1.3280   -0.8420 hc        1 3SZ      0.066200
     42 HAN         5.2130   -0.0100   -7.2140 h1        1 3SZ      0.074700
     43 HANA        4.3520    1.3230   -7.1200 h1        1 3SZ      0.074700
     44 HAO         5.9250    1.3940   -5.5570 h1        1 3SZ      0.074700
     45 HAOA        5.5400   -0.0490   -5.0170 h1        1 3SZ      0.074700
     46 HAP        -3.4890   -0.8290    1.4600 h1        1 3SZ      0.048950
     47 HAPA       -2.5690   -2.1020    1.1610 h1        1 3SZ      0.048950
     48 HAQ        -1.5330   -1.3220   -2.0170 h1        1 3SZ      0.048950
     49 HAQA       -0.9940   -1.9330   -0.6430 h1        1 3SZ      0.048950
     50 HAR        -0.4820   -1.9390    0.8790 h1        1 3SZ      0.058200
     51 HARA        0.2700   -1.1450    2.0390 h1        1 3SZ      0.058200
     52 HAS         1.2260   -0.5940   -0.0430 h1        1 3SZ      0.058200
     53 HASA        0.5440    0.7030    0.5980 h1        1 3SZ      0.058200
@<TRIPOS>BOND
     1    1   22 1   
     2    1   31 1   
     3    1   32 1   
     4    2   29 2   
     5    3   29 2   
     6    4   30 2   
     7    5   30 2   
     8    6    8 3   
     9    6   33 1   
    10    7   22 3   
    11    7   34 1   
    12    8   35 1   
    13    9   10 3   
    14    9   36 1   
    15   10   37 1   
    16   11   23 3   
    17   11   38 1   
    18   12   24 3   
    19   12   39 1   
    20   13   16 1   
    21   13   17 1   
    22   13   40 1   
    23   13   41 1   
    24   14   15 1   
    25   14   20 1   
    26   14   42 1   
    27   14   43 1   
    28   15   21 1   
    29   15   44 1   
    30   15   45 1   
    31   16   27 1   
    32   16   46 1   
    33   16   47 1   
    34   17   28 1   
    35   17   48 1   
    36   17   49 1   
    37   18   19 1   
    38   18   27 1   
    39   18   50 1   
    40   18   51 1   
    41   19   28 1   
    42   19   52 1   
    43   19   53 1   
    44   20   25 1   
    45   21   26 1   
    46   23   29 1   
    47   24   30 1   
    48   25   26 3   
    49   27   29 1   
    50   28   30 1   
@<TRIPOS>SUBSTRUCTURE
     1 3SZ         1 TEMP              0 ****  ****    0 ROOT
