@<TRIPOS>MOLECULE
3SZ
   53    56     1     0     0
SMALL
bcc


@<TRIPOS>ATOM
      1 NAA         0.1860   -0.9740    0.6910 nv        1 3SZ     -0.817200
      2 OAB         1.5630    0.6960   -3.9660 o         1 3SZ     -0.653300
      3 OAC         3.9500    0.9680   -3.8040 o         1 3SZ     -0.653300
      4 OAD         4.1300   -1.9660   -9.3480 o         1 3SZ     -0.653300
      5 OAE         6.0580   -0.9790   -8.3060 o         1 3SZ     -0.653300
      6 CAF         3.8220   -0.3560    0.2590 ca        1 3SZ     -0.117000
      7 CAG         2.6010   -0.6100    0.8700 ca        1 3SZ     -0.130000
      8 CAH         3.8930   -0.1210   -1.1120 ca        1 3SZ     -0.065000
      9 CAI         4.5330    1.3940   -7.6920 ca        1 3SZ     -0.009000
     10 CAJ         3.9130    2.6360   -7.6380 ca        1 3SZ     -0.146000
     11 CAK         1.5030   -0.3880   -1.2830 ca        1 3SZ     -0.083000
     12 CAL         2.5480    0.3810   -8.6290 ca        1 3SZ     -0.008000
     13 CAM         1.8890   -2.3080   -6.1910 c3        1 3SZ     -0.122400
     14 CAN         0.7480    4.0950   -8.7030 c3        1 3SZ      0.089400
     15 CAO        -0.0940    2.8410   -8.5400 c3        1 3SZ      0.088400
     16 CAP         1.9360   -2.1120   -4.6780 c3        1 3SZ      0.230800
     17 CAQ         3.1880   -2.8780   -6.7600 c3        1 3SZ      0.222800
     18 CAR         4.3420   -1.8810   -4.3240 c3        1 3SZ      0.225800
     19 CAS         5.0420   -1.6530   -5.6790 c3        1 3SZ      0.204800
     20 OAT         1.9940    3.9920   -7.9990 os        1 3SZ     -0.307900
     21 OAU         0.6020    1.6930   -9.0380 os        1 3SZ     -0.313900
     22 CAV         1.4100   -0.6320    0.1050 ca        1 3SZ      0.116600
     23 CAW         2.7330   -0.1400   -1.8910 ca        1 3SZ     -0.334500
     24 CAX         3.8710    0.2610   -8.1870 ca        1 3SZ     -0.397500
     25 CAY         2.5890    2.7520   -8.0860 ca        1 3SZ      0.132100
     26 CAZ         1.9070    1.6180   -8.5730 ca        1 3SZ      0.021100
     27 NBA         3.0300   -1.3130   -4.1930 n3        1 3SZ     -0.804500
     28 NBB         4.2810   -1.9520   -6.8600 n3        1 3SZ     -0.801500
     29 SBC         2.8100    0.1720   -3.5550 sy        1 3SZ      1.502200
     30 SBD         4.6660   -1.2200   -8.2740 sy        1 3SZ      1.508200
     31 HNAA        0.1380   -0.7980    1.6700 hn        1 3SZ      0.392800
     32 HNAB       -0.6120   -0.6430    0.1940 hn        1 3SZ      0.392800
     33 HAF         4.7410   -0.3370    0.8660 ha        1 3SZ      0.140000
     34 HAG         2.5640   -0.7960    1.9550 ha        1 3SZ      0.137000
     35 HAH         4.8640    0.1020   -1.5860 ha        1 3SZ      0.151000
     36 HAJ         4.4340    3.5210   -7.2450 ha        1 3SZ      0.163000
     37 HAK         0.5910   -0.3790   -1.9050 ha        1 3SZ      0.151000
     38 HAL         2.0110   -0.4920   -9.0400 ha        1 3SZ      0.166000
     39 HAM         1.0640   -3.0360   -6.4130 hc        1 3SZ      0.060200
     40 HAMA        1.6310   -1.3400   -6.6970 hc        1 3SZ      0.060200
     41 HAN         0.9730    4.2860   -9.7850 h1        1 3SZ      0.073700
     42 HANA        0.2520    4.9870   -8.2390 h1        1 3SZ      0.073700
     43 HAO        -0.3530    2.6720   -7.4620 h1        1 3SZ      0.076200
     44 HAOA       -1.0220    2.8880   -9.1680 h1        1 3SZ      0.076200
     45 HAP         0.9710   -1.6200   -4.3560 h1        1 3SZ      0.052200
     46 HAPA        1.9840   -3.1300   -4.1900 h1        1 3SZ      0.052200
     47 HAQ         3.5040   -3.7560   -6.1240 h1        1 3SZ      0.062200
     48 HAQA        2.9710   -3.2750   -7.7980 h1        1 3SZ      0.062200
     49 HAR         5.0110   -1.4210   -3.5370 h1        1 3SZ      0.055700
     50 HARA        4.2900   -2.9910   -4.1260 h1        1 3SZ      0.055700
     51 HAS         5.9740   -2.2920   -5.6680 h1        1 3SZ      0.057200
     52 HASA        5.3670   -0.5700   -5.7340 h1        1 3SZ      0.057200
     53 HAI         5.5800    1.2980   -7.3500 ha        1 3SZ      0.160000
@<TRIPOS>BOND
     1    1   22 1   
     2    1   31 1   
     3    1   32 1   
     4    2   29 2   
     5    3   29 2   
     6    4   30 2   
     7    5   30 2   
     8    6    7 ar  
     9    6    8 ar  
    10    6   33 1   
    11    7   22 ar  
    12    7   34 1   
    13    8   23 ar  
    14    8   35 1   
    15    9   10 ar  
    16    9   24 ar  
    17    9   53 1   
    18   10   25 ar  
    19   10   36 1   
    20   11   22 ar  
    21   11   23 ar  
    22   11   37 1   
    23   12   24 ar  
    24   12   26 ar  
    25   12   38 1   
    26   13   16 1   
    27   13   17 1   
    28   13   39 1   
    29   13   40 1   
    30   14   15 1   
    31   14   20 1   
    32   14   41 1   
    33   14   42 1   
    34   15   21 1   
    35   15   43 1   
    36   15   44 1   
    37   16   27 1   
    38   16   45 1   
    39   16   46 1   
    40   17   28 1   
    41   17   47 1   
    42   17   48 1   
    43   18   19 1   
    44   18   27 1   
    45   18   49 1   
    46   18   50 1   
    47   19   28 1   
    48   19   51 1   
    49   19   52 1   
    50   20   25 1   
    51   21   26 1   
    52   23   29 1   
    53   24   30 1   
    54   25   26 ar  
    55   27   29 1   
    56   28   30 1   
@<TRIPOS>SUBSTRUCTURE
     1 3SZ         1 TEMP              0 ****  ****    0 ROOT
