@<TRIPOS>MOLECULE
3T0
   41    43     1     0     0
SMALL
bcc


@<TRIPOS>ATOM
      1 CAA        -2.9830    4.6510   -0.1870 c3        1 3T0      0.111700
      2 OAD         1.7760    1.6270    1.8200 o         1 3T0     -0.578500
      3 CAF        -0.8690    1.2050    0.7230 ce        1 3T0      0.034800
      4 CAG         6.0210    1.3750   -0.5560 ca        1 3T0     -0.137500
      5 CAH         5.9700   -0.9310   -1.2750 ca        1 3T0     -0.137500
      6 CAI        -4.8460    0.9480   -0.7950 ca        1 3T0     -0.044000
      7 CAJ         5.0960    1.0850    0.4450 ca        1 3T0     -0.104000
      8 CAK         5.0470   -1.2230   -0.2740 ca        1 3T0     -0.104000
      9 CAL        -4.2470    2.1910   -0.6100 ca        1 3T0     -0.215000
     10 CAM        -2.8480   -0.1470    0.0170 ca        1 3T0     -0.045000
     11 CAN         3.6490   -0.5440    1.6990 c3        1 3T0      0.149300
     12 OAO        -2.2730    3.4500    0.1060 os        1 3T0     -0.321900
     13 SAP        -0.0040   -1.3820    0.2580 ss        1 3T0     -0.119200
     14 CAQ         6.4680    0.3700   -1.4220 ca        1 3T0     -0.065300
     15 CAR        -4.1520   -0.2220   -0.4790 ca        1 3T0     -0.069900
     16 CAS         4.6120   -0.2170    0.5950 ca        1 3T0     -0.131300
     17 CAT        -2.2160    1.0870    0.2070 ca        1 3T0     -0.117800
     18 CAU        -2.9420    2.2670   -0.1090 ca        1 3T0      0.171100
     19 CAV         1.6760   -1.7280    0.7140 c         1 3T0      0.713100
     20 CAW         1.4190    0.5420    1.3430 c         1 3T0      0.711700
     21 CAX         0.0700    0.2430    0.7780 cd        1 3T0     -0.148600
     22 NAY         2.2620   -0.5920    1.2960 n         1 3T0     -0.510400
     23 HAA        -3.2460    4.6950   -1.2720 h1        1 3T0      0.052033
     24 HAAA       -3.8980    4.7320    0.4470 h1        1 3T0      0.052033
     25 HAAB       -2.2460    5.4520    0.0750 h1        1 3T0      0.052033
     26 HAB         8.4970    0.5010   -2.0830 hc        1 3T0      0.045367
     27 HABA        7.3140    0.0210   -3.3690 hc        1 3T0      0.045367
     28 HABB        7.3890    1.7420   -2.8010 hc        1 3T0      0.045367
     29 HAF        -0.5940    2.2160    1.0990 ha        1 3T0      0.177000
     30 HAG         6.4000    2.4020   -0.6690 ha        1 3T0      0.133500
     31 HAH         6.3100   -1.7260   -1.9560 ha        1 3T0      0.133500
     32 HAI        -5.8730    0.8990   -1.1910 ha        1 3T0      0.152000
     33 HAJ         4.7410    1.8830    1.1160 ha        1 3T0      0.146000
     34 HAK         4.6480   -2.2450   -0.1650 ha        1 3T0      0.146000
     35 HAL        -4.8080    3.1020   -0.8620 ha        1 3T0      0.148000
     36 HAM        -2.3140   -1.0790    0.2810 ha        1 3T0      0.161000
     37 HAN         3.9090   -1.5580    2.1240 h1        1 3T0      0.078200
     38 HANA        3.7350    0.2310    2.5150 h1        1 3T0      0.078200
     39 BRAE       -4.9670   -1.8880   -0.7190 br        1 3T0     -0.073100
     40 OAC         2.2550   -2.8100    0.5710 o         1 3T0     -0.559500
     41 CAB         7.4630    0.6750   -2.4750 c3        1 3T0     -0.055800
@<TRIPOS>BOND
     1    1   12 1   
     2    1   23 1   
     3    1   24 1   
     4    1   25 1   
     5    2   20 2   
     6    3   17 1   
     7    3   21 2   
     8    3   29 1   
     9    4    7 ar  
    10    4   14 ar  
    11    4   30 1   
    12    5    8 ar  
    13    5   14 ar  
    14    5   31 1   
    15    6    9 ar  
    16    6   15 ar  
    17    6   32 1   
    18    7   16 ar  
    19    7   33 1   
    20    8   16 ar  
    21    8   34 1   
    22    9   18 ar  
    23    9   35 1   
    24   10   15 ar  
    25   10   17 ar  
    26   10   36 1   
    27   11   16 1   
    28   11   22 1   
    29   11   37 1   
    30   11   38 1   
    31   12   18 1   
    32   13   19 1   
    33   13   21 1   
    34   14   41 1   
    35   15   39 1   
    36   17   18 ar  
    37   19   22 1   
    38   19   40 2   
    39   20   21 1   
    40   20   22 1   
    41   26   41 1   
    42   27   41 1   
    43   28   41 1   
@<TRIPOS>SUBSTRUCTURE
     1 3T0         1 TEMP              0 ****  ****    0 ROOT
