@<TRIPOS>MOLECULE
3T0
   41    44     1     0     0
SMALL
bcc


@<TRIPOS>ATOM
      1 CAA        -0.1740    0.3600    1.5650 c2        1 3T0     -0.193000
      2 OAD         6.3490    0.1640   -2.1290 o         1 3T0     -0.575500
      3 CAF         4.4810    0.0760    0.0820 ce        1 3T0      0.033000
      4 CAG         9.4360   -3.5900   -4.4690 c3        1 3T0      0.021900
      5 CAH         9.0690   -4.6590   -2.2300 c2        1 3T0     -0.181200
      6 CAI         1.5200   -0.3250    3.2180 c3        1 3T0      0.002000
      7 CAJ         9.2770   -2.6210   -3.3920 cc        1 3T0     -0.155300
      8 CAK         9.0620   -3.3410   -2.0880 cc        1 3T0     -0.156000
      9 CAL         1.0980    0.0270    1.8270 cf        1 3T0     -0.112200
     10 CAM         3.8500    0.1620    2.5210 ce        1 3T0     -0.070000
     11 CAN         9.0630   -0.6110   -1.6220 c3        1 3T0      0.187300
     12 OAO         1.8110   -0.0630   -0.5250 oh        1 3T0     -0.485100
     13 SAP         6.6880   -0.6030    1.6080 ss        1 3T0     -0.107200
     14 CAQ         9.3170   -4.9730   -3.7110 c3        1 3T0     -0.035500
     15 CAR         2.9460   -0.0190    3.5020 c2        1 3T0     -0.090500
     16 CAS         9.1140   -1.9200   -2.2740 cd        1 3T0     -0.010300
     17 CAT         3.4800    0.0760    1.1230 ce        1 3T0     -0.131000
     18 CAU         2.1430    0.0040    0.8030 cf        1 3T0      0.178100
     19 CAV         8.2180   -0.7570    0.7300 c         1 3T0      0.710100
     20 CAW         6.6900   -0.1390   -0.9790 c         1 3T0      0.711700
     21 CAX         5.7950   -0.1810    0.2130 cd        1 3T0     -0.155600
     22 NAY         8.0240   -0.4590   -0.6330 n         1 3T0     -0.514400
     23 HAA        -0.9360    0.3990    2.3560 ha        1 3T0      0.127500
     24 HAAA        0.8610   -0.2390   -0.6050 ho        1 3T0      0.433000
     25 HAAB       -0.5390    0.6270    0.5640 ha        1 3T0      0.127500
     26 HAB         7.2310   -5.3000   -4.2110 hc        1 3T0      0.037033
     27 HABA        8.1460   -6.7900   -3.7400 hc        1 3T0      0.037033
     28 HABB        8.4160   -6.0380   -5.3680 hc        1 3T0      0.037033
     29 HAF         4.0990    0.3010   -0.9390 ha        1 3T0      0.174000
     30 HAG        10.4310   -3.5010   -4.9700 hc        1 3T0      0.072200
     31 HAH        10.2970   -5.5120   -3.8020 hc        1 3T0      0.053700
     32 HAI         0.8560    0.2120    3.9510 hc        1 3T0      0.077700
     33 HAJ         8.6330   -3.4860   -5.2410 hc        1 3T0      0.072200
     34 HAK         8.9400   -5.4530   -1.5000 ha        1 3T0      0.156000
     35 HAL         1.3520   -1.4310    3.3720 hc        1 3T0      0.077700
     36 HAM         4.9080    0.3960    2.7480 ha        1 3T0      0.160000
     37 HAN        10.0540   -0.4290   -1.1050 h1        1 3T0      0.094200
     38 HANA        8.9040    0.1800   -2.4160 h1        1 3T0      0.094200
     39 BRAE        3.4320    0.0650    5.3080 br        1 3T0     -0.063700
     40 OAC         9.3130   -1.0450    1.2220 o         1 3T0     -0.549500
     41 CAB         8.2160   -5.8210   -4.2910 c3        1 3T0     -0.089100
@<TRIPOS>BOND
     1    1    9 2   
     2    1   23 1   
     3    1   25 1   
     4    2   20 2   
     5    3   17 1   
     6    3   21 2   
     7    3   29 1   
     8    4    7 1   
     9    4   14 1   
    10    4   30 1   
    11    4   33 1   
    12    5    8 2   
    13    5   14 1   
    14    5   34 1   
    15    6    9 1   
    16    6   15 1   
    17    6   32 1   
    18    6   35 1   
    19    7    8 1   
    20    7   16 2   
    21    8   16 1   
    22    9   18 1   
    23   10   15 2   
    24   10   17 1   
    25   10   36 1   
    26   11   16 1   
    27   11   22 1   
    28   11   37 1   
    29   11   38 1   
    30   12   18 1   
    31   12   24 1   
    32   13   19 1   
    33   13   21 1   
    34   14   31 1   
    35   14   41 1   
    36   15   39 1   
    37   17   18 2   
    38   19   22 1   
    39   19   40 2   
    40   20   21 1   
    41   20   22 1   
    42   26   41 1   
    43   27   41 1   
    44   28   41 1   
@<TRIPOS>SUBSTRUCTURE
     1 3T0         1 TEMP              0 ****  ****    0 ROOT
