@<TRIPOS>MOLECULE
3T0
   41    36     1     0     0
SMALL
bcc


@<TRIPOS>ATOM
      1 CAA        -0.1180    6.2710    0.7640 c3        1 3T0     -0.078000
      2 CAB         0.8580   -7.0060   -1.6300 c3        1 3T0     -0.181000
      3 OAC         1.7760   -1.3250    1.0960 o         1 3T0     -0.284000
      4 OAD        -0.4550    0.9570   -2.5670 o         1 3T0     -0.303000
      5 BRAE       -3.9630    1.9690    4.6140 br        1 3T0      0.067000
      6 CAF        -1.2490    2.5730   -0.0730 c1        1 3T0      0.023000
      7 CAG         0.4280   -4.7370   -2.5510 c1        1 3T0     -0.120500
      8 CAH         1.9830   -4.8840   -0.7210 c1        1 3T0     -0.137000
      9 CAI        -2.3040    4.1090    3.8150 c1        1 3T0     -0.044000
     10 CAJ         0.6310   -3.3590   -2.6140 c1        1 3T0     -0.120500
     11 CAK         2.1860   -3.5050   -0.7840 c2        1 3T0     -0.105000
     12 CAL        -1.5120    4.8640    2.9640 c1        1 3T0     -0.215000
     13 CAM        -2.4380    2.3740    2.1510 c1        1 3T0     -0.045000
     14 CAN         1.7960   -1.2490   -1.9980 c3        1 3T0      0.027000
     15 OAO        -0.1490    4.8580    0.8800 os        1 3T0     -0.205000
     16 SAP         0.2920    0.7500    1.0640 ss        1 3T0      0.304000
     17 CAQ         1.1050   -5.4970   -1.6050 c1        1 3T0     -0.058000
     18 CAR        -2.7680    2.8630    3.4100 c2        1 3T0     -0.210000
     19 CAS         1.5100   -2.7450   -1.7300 c1        1 3T0     -0.124000
     20 CAT        -1.6460    3.1290    1.3000 c2        1 3T0     -0.106000
     21 CAU        -1.1820    4.3760    1.7060 c2        1 3T0      0.126000
     22 CAV         1.1340   -0.5100    0.4520 c2        1 3T0      0.189000
     23 CAW        -0.0200    0.7320   -1.4560 c1        1 3T0      0.350000
     24 CAX        -0.3830    1.5100   -0.1600 c2        1 3T0     -0.370000
     25 NAY         1.0420   -0.4400   -1.0640 n2        1 3T0     -0.339000
     26 HAA         0.5230    6.5290    0.0620 h1        1 3T0      0.091333
     27 HAAA       -1.0140    6.6000    0.5260 h1        1 3T0      0.091333
     28 HAAB        0.1580    6.6650    1.6220 h1        1 3T0      0.091333
     29 HAB         0.0130   -7.2060   -1.1780 hc        1 3T0      0.084667
     30 HABA        0.8140   -7.3150   -2.5610 hc        1 3T0      0.084667
     31 HABB        1.5900   -7.4630   -1.1690 hc        1 3T0      0.084667
     32 HAF        -1.6160    2.9770   -0.8920 DU        1 3T0      0.157667
     33 HAG        -0.1890   -5.1680   -3.1730 ha        1 3T0      0.137500
     34 HAH         2.4630   -5.4220   -0.0500 DU        1 3T0      0.157667
     35 HAI        -2.5360    4.4520    4.6990 ha        1 3T0      0.152000
     36 HAJ         0.1550   -2.8250   -3.2800 ha        1 3T0      0.137500
     37 HAK         2.8010   -3.0760   -0.1650 ha        1 3T0      0.150000
     38 HAL        -1.1850    5.7420    3.2500 ha        1 3T0      0.148000
     39 HAM        -2.8130    1.5300    1.8450 DU        1 3T0      0.157667
     40 HAN         1.5310   -1.0240   -2.9180 h1        1 3T0      0.117500
     41 HANA        2.7530   -1.0740   -1.8820 h1        1 3T0      0.117500
@<TRIPOS>BOND
     1    1   15 1   
     2    1   26 1   
     3    1   27 1   
     4    1   28 1   
     5    2   17 1   
     6    2   29 1   
     7    2   30 1   
     8    2   31 1   
     9    3   22 1   
    10    4   23 1   
    11    5   18 1   
    12    6   20 1   
    13    6   24 1   
    14    7   10 1   
    15    7   33 1   
    16    8   11 1   
    17    8   17 1   
    18    9   18 1   
    19    9   35 1   
    20   10   36 1   
    21   11   19 1   
    22   11   37 1   
    23   12   21 1   
    24   12   38 1   
    25   13   18 1   
    26   13   20 1   
    27   14   19 1   
    28   14   25 1   
    29   14   40 1   
    30   14   41 1   
    31   15   21 1   
    32   16   22 1   
    33   16   24 1   
    34   20   21 1   
    35   22   25 1   
    36   23   24 1   
@<TRIPOS>SUBSTRUCTURE
     1 3T0         1 TEMP              0 ****  ****    0 ROOT
