@<TRIPOS>MOLECULE
3T0
   41    41     1     0     0
SMALL
bcc


@<TRIPOS>ATOM
      1 CAA         0.0020    1.3940    1.6770 c2        1 3T0     -0.193000
      2 OAD         6.2770   -0.1300   -2.1210 o         1 3T0     -0.588500
      3 CAF         4.4680    0.1400    0.1180 ce        1 3T0      0.032000
      4 CAG         7.7000   -3.4820   -4.6280 ce        1 3T0     -0.030700
      5 CAH         9.8200   -4.8580   -1.5400 c2        1 3T0     -0.227100
      6 CAI         1.5210    0.3130    3.2890 c3        1 3T0      0.002000
      7 CAJ         7.7380   -2.6510   -3.5720 cf        1 3T0     -0.095000
      8 CAK         9.2150   -3.8040   -1.9900 c1        1 3T0      0.025200
      9 CAL         1.1730    0.7840    1.9130 cf        1 3T0     -0.112200
     10 CAM         3.8950    0.2960    2.5680 ce        1 3T0     -0.070000
     11 CAN         8.8060   -1.4160   -1.6700 c3        1 3T0      0.149200
     12 OAO         1.8260    0.5990   -0.4520 oh        1 3T0     -0.485100
     13 SAP         6.4930   -1.0390    1.5920 ss        1 3T0     -0.116200
     14 CAQ         8.5100   -4.6020   -4.8540 cg        1 3T0     -0.160300
     15 CAR         2.9820    0.2920    3.5580 c2        1 3T0     -0.090500
     16 CAS         8.6090   -2.7200   -2.4140 cf        1 3T0     -0.147300
     17 CAT         3.5010    0.3300    1.1740 ce        1 3T0     -0.130000
     18 CAU         2.1780    0.5590    0.8730 cf        1 3T0      0.178100
     19 CAV         7.9480   -1.4870    0.6820 c         1 3T0      0.710100
     20 CAW         6.5670   -0.5210   -0.9830 c         1 3T0      0.711700
     21 CAX         5.6960   -0.4000    0.2230 cd        1 3T0     -0.155600
     22 NAY         7.8030   -1.1300   -0.6710 n         1 3T0     -0.511400
     23 HAA        -0.3050    1.7600    0.6880 ha        1 3T0      0.127500
     24 HAAA        0.8600    0.6400   -0.5210 ho        1 3T0      0.433000
     25 HAAB       -0.7240    1.5780    2.4810 ha        1 3T0      0.127500
     26 HAB         9.7810   -6.4150   -5.3090 ha        1 3T0      0.165500
     27 HABA       10.7820   -8.4500   -5.7320 ha        1 3T0      0.001000
     28 HABB       11.3230   -8.0520   -5.8200 ha        1 3T0      0.001000
     29 HAF         4.1340    0.4680   -0.8920 ha        1 3T0      0.173000
     30 HAG         6.9660   -3.2860   -5.4350 ha        1 3T0      0.138000
     31 HAH        10.8360   -5.1340   -1.8590 ha        1 3T0      0.140500
     32 HAI         0.9980    0.9640    4.0430 hc        1 3T0      0.077700
     33 HAJ         7.0390   -1.7890   -3.5560 ha        1 3T0      0.152000
     34 HAK         9.3510   -5.5380   -0.8130 ha        1 3T0      0.140500
     35 HAL         1.1160   -0.7330    3.4200 hc        1 3T0      0.077700
     36 HAM         4.9800    0.2880    2.7830 ha        1 3T0      0.161000
     37 HAN         9.8070   -1.4330   -1.1480 h1        1 3T0      0.080200
     38 HANA        8.7920   -0.5700   -2.4180 h1        1 3T0      0.080200
     39 BRAE        3.4920    0.2210    5.3570 br        1 3T0     -0.064700
     40 OAC         8.9600   -2.0120    1.1560 o         1 3T0     -0.554500
     41 CAB         9.1840   -5.5640   -5.0970 c1        1 3T0     -0.153500
@<TRIPOS>BOND
     1    1    9 2   
     2    1   23 1   
     3    1   25 1   
     4    2   20 2   
     5    3   17 1   
     6    3   21 2   
     7    3   29 1   
     8    4    7 2   
     9    4   14 1   
    10    4   30 1   
    11    5    8 2   
    12    5   31 1   
    13    5   34 1   
    14    6    9 1   
    15    6   15 1   
    16    6   32 1   
    17    6   35 1   
    18    7   16 1   
    19    7   33 1   
    20    8   16 2   
    21    9   18 1   
    22   10   15 2   
    23   10   17 1   
    24   10   36 1   
    25   11   16 1   
    26   11   22 1   
    27   11   37 1   
    28   11   38 1   
    29   12   18 1   
    30   12   24 1   
    31   13   19 1   
    32   13   21 1   
    33   14   41 3   
    34   15   39 1   
    35   17   18 2   
    36   19   22 1   
    37   19   40 2   
    38   20   21 1   
    39   20   22 1   
    40   26   41 1   
    41   27   28 1   
@<TRIPOS>SUBSTRUCTURE
     1 3T0         1 TEMP              0 ****  ****    0 ROOT
