@<TRIPOS>MOLECULE
3T1
   55    59     1     0     0
SMALL
bcc


@<TRIPOS>ATOM
      1 C1          0.1370   -0.3850   -0.1550 c         1 3T1      0.598300
      2 O1          1.3300   -0.7250   -0.2380 o         1 3T1     -0.578100
      3 C2         -0.5580   -0.4960    1.1750 c3        1 3T1     -0.175400
      4 C3         -2.0600   -0.6350    1.0180 c3        1 3T1     -0.008400
      5 C4         -2.5820    0.5110    0.1660 c3        1 3T1     -0.066200
      6 N5         -2.7290    1.0210   -2.1960 nh        1 3T1     -0.621400
      7 C6         -3.7080    1.6030   -4.3020 ca        1 3T1     -0.158000
      8 C7         -3.7390    1.6330   -5.6860 ca        1 3T1     -0.130000
      9 C8         -2.6980    1.0620   -6.4170 ca        1 3T1     -0.124000
     10 C9         -1.6350    0.4730   -5.7550 ca        1 3T1     -0.158000
     11 N10        -0.5330   -0.3200   -3.7420 nh        1 3T1     -0.699600
     12 C11         0.1880    0.1710   -2.5820 c3        1 3T1      0.300000
     13 C12        -2.7470   -0.6660    2.3470 ca        1 3T1     -0.087300
     14 C13        -3.4900   -1.7930    2.7180 ca        1 3T1     -0.123500
     15 C14        -4.1330   -1.8350    3.9540 ca        1 3T1     -0.127500
     16 C15        -4.0420   -0.7540    4.8300 ca        1 3T1     -0.126000
     17 C16        -3.3020    0.3710    4.4660 ca        1 3T1     -0.127500
     18 C17        -2.6580    0.4160    3.2310 ca        1 3T1     -0.123500
     19 C18         0.8950    1.5080   -2.7160 ca        1 3T1     -0.099300
     20 C19         0.3400    2.6140   -3.3480 ca        1 3T1     -0.115000
     21 C20         1.0570    3.8150   -3.4330 ca        1 3T1     -0.049600
     22 CL1         0.3420    5.1450   -4.2240 cl        1 3T1     -0.097400
     23 C21         2.3370    3.9250   -2.8770 ca        1 3T1      0.113100
     24 O21         3.1120    5.0560   -2.9100 oh        1 3T1     -0.468100
     25 C22         2.8950    2.7940   -2.2220 ca        1 3T1      0.105100
     26 O22         4.1570    2.9890   -1.7000 os        1 3T1     -0.304900
     27 C23         2.1780    1.6040   -2.1480 ca        1 3T1     -0.166000
     28 C24         4.7130    1.8850   -0.9920 c3        1 3T1      0.108700
     29 C25        -1.9170    0.5250   -1.2000 c2        1 3T1      0.224800
     30 C26        -2.6390    0.9930   -3.5930 ca        1 3T1      0.121600
     31 C27        -1.5750    0.4080   -4.3380 ca        1 3T1      0.103600
     32 C28        -0.6100    0.1360   -1.3070 ce        1 3T1     -0.307400
     33 H2         -0.3110    0.4240    1.7700 hc        1 3T1      0.078200
     34 H2A        -0.1450   -1.3770    1.7340 hc        1 3T1      0.078200
     35 H3         -2.2710   -1.6020    0.4750 hc        1 3T1      0.070700
     36 H4         -3.6980    0.4130    0.0870 hc        1 3T1      0.065200
     37 H4A        -2.3640    1.4930    0.6690 hc        1 3T1      0.065200
     38 H61        -3.6140    1.3610   -1.8710 hn        1 3T1      0.431800
     39 H6         -4.5410    2.0650   -3.7470 ha        1 3T1      0.129000
     40 H7         -4.5840    2.1090   -6.2040 ha        1 3T1      0.136000
     41 H8         -2.7170    1.0840   -7.5160 ha        1 3T1      0.136000
     42 H9         -0.8160    0.0340   -6.3490 ha        1 3T1      0.135000
     43 HN10        0.1220   -0.6350   -4.4370 hn        1 3T1      0.391800
     44 H11         1.0190   -0.6070   -2.4550 h1        1 3T1      0.090700
     45 H13        -3.5650   -2.6520    2.0340 ha        1 3T1      0.132500
     46 H14        -4.7140   -2.7260    4.2380 ha        1 3T1      0.134000
     47 H15        -4.5490   -0.7890    5.8050 ha        1 3T1      0.134000
     48 H16        -3.2260    1.2260    5.1540 ha        1 3T1      0.134000
     49 H17        -2.0730    1.3060    2.9520 ha        1 3T1      0.132500
     50 H19        -0.6690    2.5680   -3.7890 ha        1 3T1      0.157000
     51 HO21        2.6200    5.7420   -3.3890 ho        1 3T1      0.423000
     52 H23         2.5960    0.7270   -1.6250 ha        1 3T1      0.169000
     53 H24         4.0690    1.6030   -0.1240 h1        1 3T1      0.047700
     54 H24A        4.8550    1.0110   -1.6740 h1        1 3T1      0.047700
     55 H24B        5.7010    2.2770   -0.6420 h1        1 3T1      0.047700
@<TRIPOS>BOND
     1    1    2 2   
     2    1    3 1   
     3    1   32 1   
     4    3    4 1   
     5    3   33 1   
     6    3   34 1   
     7    4    5 1   
     8    4   13 1   
     9    4   35 1   
    10    5   29 1   
    11    5   36 1   
    12    5   37 1   
    13    6   29 1   
    14    6   30 1   
    15    6   38 1   
    16    7    8 ar  
    17    7   30 ar  
    18    7   39 1   
    19    8    9 ar  
    20    8   40 1   
    21    9   10 ar  
    22    9   41 1   
    23   10   31 ar  
    24   10   42 1   
    25   11   12 1   
    26   11   31 1   
    27   11   43 1   
    28   12   19 1   
    29   12   32 1   
    30   12   44 1   
    31   13   14 ar  
    32   13   18 ar  
    33   14   15 ar  
    34   14   45 1   
    35   15   16 ar  
    36   15   46 1   
    37   16   17 ar  
    38   16   47 1   
    39   17   18 ar  
    40   17   48 1   
    41   18   49 1   
    42   19   20 ar  
    43   19   27 ar  
    44   20   21 ar  
    45   20   50 1   
    46   21   22 1   
    47   21   23 ar  
    48   23   24 1   
    49   23   25 ar  
    50   24   51 1   
    51   25   26 1   
    52   25   27 ar  
    53   26   28 1   
    54   27   52 1   
    55   28   53 1   
    56   28   54 1   
    57   28   55 1   
    58   29   32 2   
    59   30   31 ar  
@<TRIPOS>SUBSTRUCTURE
     1 3T1         1 TEMP              0 ****  ****    0 ROOT
