@<TRIPOS>MOLECULE
3T1
   55    51     1     0     0
SMALL
bcc


@<TRIPOS>ATOM
      1 C1          0.7590   -1.6320   -1.1430 c1        1 3T1      0.281000
      2 O1          0.1560   -1.9580   -2.1440 o         1 3T1     -0.304000
      3 C2          2.2650   -1.6840   -1.1200 c2        1 3T1     -0.206000
      4 C3          2.8280   -1.4940    0.2490 c3        1 3T1     -0.054000
      5 C4          2.4120   -0.2710    1.0150 c3        1 3T1     -0.147000
      6 N5          0.5550    1.1970    1.5540 n3        1 3T1     -0.262000
      7 C6         -0.8400    2.3290    3.1600 c1        1 3T1     -0.126667
      8 C7         -2.0860    2.9390    3.2380 c1        1 3T1     -0.126667
      9 C8         -3.1560    2.4340    2.5050 c1        1 3T1     -0.126667
     10 C9         -2.9790    1.3180    1.6940 c1        1 3T1     -0.126667
     11 N10        -1.6830   -0.7410    1.5760 n3        1 3T1     -0.249000
     12 C11        -1.3920   -1.1970    0.3000 c3        1 3T1      0.067000
     13 C12         4.4170   -1.4610    0.1150 c2        1 3T1     -0.080000
     14 C13         5.1650   -2.5880    0.4310 c2        1 3T1     -0.121000
     15 C14         6.5420   -2.5780    0.2600 c1        1 3T1     -0.127000
     16 C15         7.1710   -1.4420   -0.2260 c1        1 3T1     -0.126667
     17 C16         6.4240   -0.3160   -0.5420 c1        1 3T1     -0.126667
     18 C17         5.0470   -0.3260   -0.3710 c1        1 3T1     -0.126000
     19 C18        -2.1600   -0.3300   -0.5690 c2        1 3T1     -0.070000
     20 C19        -1.5430    0.7430   -1.1930 c2        1 3T1     -0.087000
     21 C20        -2.2300    1.4820   -2.1440 c1        1 3T1     -0.139000
     22 CL1        -1.4190    2.7650   -3.0030 cl        1 3T1     -0.025000
     23 C21        -3.5340    1.1470   -2.4710 c2        1 3T1      0.065000
     24 O21        -4.2180    1.8730   -3.4640 oh        1 3T1     -0.242000
     25 C22        -4.1510    0.0740   -1.8490 c1        1 3T1      0.031000
     26 O22        -5.4410   -0.3200   -2.2450 os        1 3T1     -0.209000
     27 C23        -3.4640   -0.6650   -0.8980 c1        1 3T1     -0.083000
     28 C24        -6.4690    0.4940   -1.7300 c3        1 3T1     -0.075000
     29 C25         0.8850   -0.1400    1.1150 c2        1 3T1      0.123000
     30 C26        -0.6590    1.2000    2.3400 c1        1 3T1      0.038000
     31 C27        -1.7180    0.7000    1.6140 c1        1 3T1     -0.023000
     32 C28         0.0110   -0.8430    0.0130 c2        1 3T1     -0.320000
     33 H2          2.7610   -1.0770   -1.7060 ha        1 3T1      0.118000
     34 H2A         2.5070   -2.5480   -1.5120 ha        1 3T1      0.118000
     35 H3          2.5870   -2.2760    0.7820 hc        1 3T1      0.107000
     36 H4          2.8610    0.5500    0.7240 hc        1 3T1      0.105000
     37 H4A         2.7480   -0.3810    1.9280 hc        1 3T1      0.105000
     38 H61         1.0670    1.9340    1.3920 hn        1 3T1      0.224000
     39 H6         -0.0890    2.6840    3.6750 ha        1 3T1      0.136667
     40 H7         -2.2100    3.7220    3.8070 ha        1 3T1      0.136667
     41 H8         -4.0300    2.8630    2.5600 ha        1 3T1      0.136667
     42 H9         -3.7300    0.9640    1.1790 ha        1 3T1      0.136667
     43 HN10       -1.0500   -1.0460    2.1600 hn        1 3T1      0.176000
     44 H11        -1.6960   -2.0910    0.0550 h1        1 3T1      0.145000
     45 H13         4.7200   -3.3900    0.7740 ha        1 3T1      0.134000
     46 H14         7.0710   -3.3750    0.4830 ha        1 3T1      0.135000
     47 H15         8.1420   -1.4350   -0.3470 ha        1 3T1      0.136667
     48 H16         6.8680    0.4840   -0.8850 ha        1 3T1      0.136667
     49 H17         4.5200    0.4700   -0.5950 ha        1 3T1      0.131000
     50 H19        -0.6150    0.9620   -0.9830 ha        1 3T1      0.146000
     51 HO21       -3.9050    1.6480   -4.2660 ho        1 3T1      0.227000
     52 H23        -3.8980   -1.4200   -0.4600 ha        1 3T1      0.164000
     53 H24        -7.3200    0.0080   -1.7670 h1        1 3T1      0.083333
     54 H24A       -6.2660    0.7280   -0.7980 h1        1 3T1      0.083333
     55 H24B       -6.5370    1.3140   -2.2660 h1        1 3T1      0.083333
@<TRIPOS>BOND
     1    1    2 1   
     2    1   32 1   
     3    3    4 1   
     4    3   33 1   
     5    3   34 1   
     6    4    5 1   
     7    4   13 1   
     8    4   35 1   
     9    5   29 1   
    10    5   36 1   
    11    5   37 1   
    12    6   29 1   
    13    6   30 1   
    14    6   38 1   
    15    7    8 1   
    16    7   39 1   
    17    8   40 1   
    18    9   10 1   
    19    9   41 1   
    20   10   42 1   
    21   11   12 1   
    22   11   31 1   
    23   11   43 1   
    24   12   19 1   
    25   12   32 1   
    26   12   44 1   
    27   13   14 1   
    28   13   18 1   
    29   14   15 1   
    30   14   45 1   
    31   15   46 1   
    32   16   17 1   
    33   16   47 1   
    34   17   48 1   
    35   18   49 1   
    36   19   20 1   
    37   19   27 1   
    38   20   21 1   
    39   20   50 1   
    40   21   23 1   
    41   23   24 1   
    42   23   25 1   
    43   24   51 1   
    44   25   26 1   
    45   26   28 1   
    46   27   52 1   
    47   28   53 1   
    48   28   54 1   
    49   28   55 1   
    50   29   32 1   
    51   30   31 1   
@<TRIPOS>SUBSTRUCTURE
     1 3T1         1 TEMP              0 ****  ****    0 ROOT
