@<TRIPOS>MOLECULE
3T1
   55    59     1     0     0
SMALL
bcc


@<TRIPOS>ATOM
      1 C1          0.1370   -0.3810   -0.1320 c         1 3T1      0.598300
      2 O1          1.3320   -0.7110   -0.2140 o         1 3T1     -0.578100
      3 C2         -0.5620   -0.5060    1.1950 c3        1 3T1     -0.175400
      4 C3         -2.0620   -0.6600    1.0330 c3        1 3T1     -0.008400
      5 C4         -2.5920    0.4880    0.1870 c3        1 3T1     -0.066200
      6 N5         -2.7370    1.0150   -2.1710 nu        1 3T1     -0.621400
      7 C6         -3.7080    1.6190   -4.2750 ca        1 3T1     -0.158000
      8 C7         -3.7310    1.6660   -5.6580 ca        1 3T1     -0.130000
      9 C8         -2.6810    1.1120   -6.3910 ca        1 3T1     -0.124000
     10 C9         -1.6180    0.5210   -5.7300 ca        1 3T1     -0.158000
     11 N10        -0.5220   -0.2890   -3.7210 nu        1 3T1     -0.699600
     12 C11         0.1910    0.1960   -2.5540 c3        1 3T1      0.299000
     13 C12        -2.7530   -0.7070    2.3590 ca        1 3T1     -0.087300
     14 C13        -3.4850   -1.8440    2.7200 ca        1 3T1     -0.123500
     15 C14        -4.1330   -1.9020    3.9530 ca        1 3T1     -0.127500
     16 C15        -4.0550   -0.8260    4.8370 ca        1 3T1     -0.126000
     17 C16        -3.3260    0.3100    4.4830 ca        1 3T1     -0.127500
     18 C17        -2.6780    0.3700    3.2510 ca        1 3T1     -0.123500
     19 C18         0.8900    1.5380   -2.6720 ca        1 3T1     -0.099300
     20 C19         0.3270    2.6480   -3.2910 ca        1 3T1     -0.115000
     21 C20         1.0360    3.8540   -3.3620 ca        1 3T1     -0.049600
     22 Cl1         0.3120    5.1890   -4.1370 cl        1 3T1     -0.097400
     23 C21         2.3150    3.9660   -2.8050 ca        1 3T1      0.113100
     24 O21         3.0830    5.1020   -2.8250 oh        1 3T1     -0.468100
     25 C22         2.8810    2.8320   -2.1630 ca        1 3T1      0.105100
     26 O22         4.1420    3.0290   -1.6390 os        1 3T1     -0.304900
     27 C23         2.1710    1.6360   -2.1030 ca        1 3T1     -0.166000
     28 C24         4.7050    1.9200   -0.9430 c3        1 3T1      0.108700
     29 C25        -1.9230    0.5190   -1.1770 c2        1 3T1      0.224800
     30 C26        -2.6380    1.0070   -3.5680 ca        1 3T1      0.121600
     31 C27        -1.5650    0.4390   -4.3140 ca        1 3T1      0.103600
     32 C28        -0.6110    0.1430   -1.2820 ce        1 3T1     -0.308400
     33 H2         -0.1420   -1.3860    1.7510 hc        1 3T1      0.078200
     34 H2A        -0.3270    0.4130    1.7970 hc        1 3T1      0.078200
     35 H3         -2.2610   -1.6250    0.4820 hc        1 3T1      0.070700
     36 H4         -3.7070    0.3780    0.1030 hc        1 3T1      0.065200
     37 H4A        -2.3870    1.4670    0.6980 hc        1 3T1      0.065200
     38 H61        -3.6260    1.3420   -1.8470 hn        1 3T1      0.431800
     39 H6         -4.5470    2.0680   -3.7190 ha        1 3T1      0.129000
     40 H7         -4.5760    2.1430   -6.1760 ha        1 3T1      0.136000
     41 H8         -2.6940    1.1480   -7.4900 ha        1 3T1      0.136000
     42 H9         -0.7930    0.0960   -6.3250 ha        1 3T1      0.135000
     43 HN10        0.1380   -0.5930   -4.4170 hn        1 3T1      0.391800
     44 H11         1.0260   -0.5790   -2.4300 h1        1 3T1      0.090700
     45 H13        -3.5500   -2.6980    2.0290 ha        1 3T1      0.132500
     46 H14        -4.7050   -2.8000    4.2290 ha        1 3T1      0.134000
     47 H15        -4.5650   -0.8730    5.8090 ha        1 3T1      0.134000
     48 H16        -3.2600    1.1600    5.1780 ha        1 3T1      0.134000
     49 H17        -2.1010    1.2670    2.9800 ha        1 3T1      0.132500
     50 H19        -0.6820    2.6000   -3.7320 ha        1 3T1      0.157000
     51 HO21        2.5870    5.7910   -3.2960 ho        1 3T1      0.423000
     52 H23         2.5960    0.7560   -1.5890 ha        1 3T1      0.169000
     53 H24         4.8530    1.0550   -1.6340 h1        1 3T1      0.047700
     54 H24A        5.6910    2.3160   -0.5880 h1        1 3T1      0.047700
     55 H24B        4.0620    1.6250   -0.0790 h1        1 3T1      0.047700
@<TRIPOS>BOND
     1    1    2 2   
     2    1    3 1   
     3    1   32 1   
     4    3    4 1   
     5    3   33 1   
     6    3   34 1   
     7    4    5 1   
     8    4   13 1   
     9    4   35 1   
    10    5   29 1   
    11    5   36 1   
    12    5   37 1   
    13    6   29 1   
    14    6   30 1   
    15    6   38 1   
    16    7    8 ar  
    17    7   30 ar  
    18    7   39 1   
    19    8    9 ar  
    20    8   40 1   
    21    9   10 ar  
    22    9   41 1   
    23   10   31 ar  
    24   10   42 1   
    25   11   12 1   
    26   11   31 1   
    27   11   43 1   
    28   12   19 1   
    29   12   32 1   
    30   12   44 1   
    31   13   14 ar  
    32   13   18 ar  
    33   14   15 ar  
    34   14   45 1   
    35   15   16 ar  
    36   15   46 1   
    37   16   17 ar  
    38   16   47 1   
    39   17   18 ar  
    40   17   48 1   
    41   18   49 1   
    42   19   20 ar  
    43   19   27 ar  
    44   20   21 ar  
    45   20   50 1   
    46   21   22 1   
    47   21   23 ar  
    48   23   24 1   
    49   23   25 ar  
    50   24   51 1   
    51   25   26 1   
    52   25   27 ar  
    53   26   28 1   
    54   27   52 1   
    55   28   53 1   
    56   28   54 1   
    57   28   55 1   
    58   29   32 2   
    59   30   31 ar  
@<TRIPOS>SUBSTRUCTURE
     1 3T1         1 TEMP              0 ****  ****    0 ROOT
