@<TRIPOS>MOLECULE
3T1
   55    59     1     0     0
SMALL
bcc


@<TRIPOS>ATOM
      1 C1          1.2240   -1.3180    1.2660 c         1 3T1      0.599300
      2 O1          0.6660   -2.2150    1.9220 o         1 3T1     -0.580100
      3 C2          2.6130   -1.5620    0.7410 c3        1 3T1     -0.175400
      4 C3          3.3740   -0.2660    0.5390 c3        1 3T1     -0.008400
      5 C4          2.5580    0.6570   -0.3530 c3        1 3T1     -0.066200
      6 N5          0.7070    2.1880   -0.0800 nh        1 3T1     -0.621400
      7 C6         -0.6510    4.1460   -0.3230 ca        1 3T1     -0.159000
      8 C7         -1.7100    4.9660    0.0280 ca        1 3T1     -0.128000
      9 C8         -2.5780    4.5840    1.0500 ca        1 3T1     -0.124000
     10 C9         -2.3810    3.3810    1.7060 ca        1 3T1     -0.156000
     11 N10        -1.0830    1.3780    2.1740 nh        1 3T1     -0.697600
     12 C11        -0.8050    0.0840    1.5780 c3        1 3T1      0.299000
     13 C12         4.7280   -0.5120   -0.0460 ca        1 3T1     -0.087300
     14 C13         5.8720   -0.1340    0.6670 ca        1 3T1     -0.123500
     15 C14         7.1400   -0.3600    0.1340 ca        1 3T1     -0.127500
     16 C15         7.2780   -0.9630   -1.1160 ca        1 3T1     -0.126000
     17 C16         6.1420   -1.3430   -1.8310 ca        1 3T1     -0.127500
     18 C17         4.8730   -1.1190   -1.3000 ca        1 3T1     -0.123500
     19 C18        -1.8420   -0.4730    0.6190 ca        1 3T1     -0.105300
     20 C19        -2.4330    0.2770   -0.3940 ca        1 3T1     -0.117000
     21 C20        -3.3830   -0.2940   -1.2520 ca        1 3T1      0.001400
     22 CL1        -4.0710    0.6770   -2.4640 cl        1 3T1     -0.073400
     23 C21        -3.7440   -1.6410   -1.1020 ca        1 3T1      0.119100
     24 O21        -4.6820   -2.1790   -1.9480 oh        1 3T1     -0.483100
     25 C22        -3.1300   -2.4000   -0.0750 ca        1 3T1      0.045100
     26 O22        -3.5610   -3.7150   -0.0000 os        1 3T1     -0.351900
     27 C23        -2.1920   -1.8240    0.7750 ca        1 3T1     -0.149000
     28 C24        -2.8010   -4.5680    0.8510 c3        1 3T1      0.120700
     29 C25         1.1920    0.9420    0.2490 c2        1 3T1      0.227800
     30 C26        -0.4120    2.9150    0.3430 ca        1 3T1      0.122600
     31 C27        -1.2990    2.5210    1.3850 ca        1 3T1      0.100600
     32 C28         0.5690   -0.0360    0.9770 ce        1 3T1     -0.311400
     33 H2          3.1670   -2.2280    1.4540 hc        1 3T1      0.078200
     34 H2A         2.5220   -2.1160   -0.2330 hc        1 3T1      0.078200
     35 H3          3.4950    0.2330    1.5450 hc        1 3T1      0.070700
     36 H4          3.1470    1.5990   -0.5180 hc        1 3T1      0.065700
     37 H4A         2.4010    0.1780   -1.3580 hc        1 3T1      0.065700
     38 H61         1.2910    2.7030   -0.7090 hn        1 3T1      0.432800
     39 H6          0.0190    4.4690   -1.1370 ha        1 3T1      0.130000
     40 H7         -1.8650    5.9170   -0.5040 ha        1 3T1      0.136000
     41 H8         -3.4220    5.2320    1.3300 ha        1 3T1      0.137000
     42 H9         -3.0830    3.0890    2.5050 ha        1 3T1      0.135000
     43 HN10       -1.8120    1.2810    2.8600 hn        1 3T1      0.389800
     44 H11        -0.8110   -0.6160    2.4840 h1        1 3T1      0.088700
     45 H13         5.7720    0.3410    1.6550 ha        1 3T1      0.132500
     46 H14         8.0330   -0.0610    0.7020 ha        1 3T1      0.134000
     47 H15         8.2790   -1.1410   -1.5350 ha        1 3T1      0.134000
     48 H16         6.2460   -1.8210   -2.8160 ha        1 3T1      0.134000
     49 H17         3.9820   -1.4230   -1.8680 ha        1 3T1      0.132500
     50 H19        -2.1600    1.3350   -0.5400 ha        1 3T1      0.157000
     51 HO21       -4.7770   -3.1200   -1.7300 ho        1 3T1      0.439000
     52 H23        -1.6970   -2.4220    1.5580 ha        1 3T1      0.167000
     53 H24        -2.9400   -4.2700    1.9190 h1        1 3T1      0.049033
     54 H24A       -3.2410   -5.5800    0.6630 h1        1 3T1      0.049033
     55 H24B       -1.7190   -4.5460    0.5760 h1        1 3T1      0.049033
@<TRIPOS>BOND
     1    1    2 2   
     2    1    3 1   
     3    1   32 1   
     4    3    4 1   
     5    3   33 1   
     6    3   34 1   
     7    4    5 1   
     8    4   13 1   
     9    4   35 1   
    10    5   29 1   
    11    5   36 1   
    12    5   37 1   
    13    6   29 1   
    14    6   30 1   
    15    6   38 1   
    16    7    8 ar  
    17    7   30 ar  
    18    7   39 1   
    19    8    9 ar  
    20    8   40 1   
    21    9   10 ar  
    22    9   41 1   
    23   10   31 ar  
    24   10   42 1   
    25   11   12 1   
    26   11   31 1   
    27   11   43 1   
    28   12   19 1   
    29   12   32 1   
    30   12   44 1   
    31   13   14 ar  
    32   13   18 ar  
    33   14   15 ar  
    34   14   45 1   
    35   15   16 ar  
    36   15   46 1   
    37   16   17 ar  
    38   16   47 1   
    39   17   18 ar  
    40   17   48 1   
    41   18   49 1   
    42   19   20 ar  
    43   19   27 ar  
    44   20   21 ar  
    45   20   50 1   
    46   21   22 1   
    47   21   23 ar  
    48   23   24 1   
    49   23   25 ar  
    50   24   51 1   
    51   25   26 1   
    52   25   27 ar  
    53   26   28 1   
    54   27   52 1   
    55   28   53 1   
    56   28   54 1   
    57   28   55 1   
    58   29   32 2   
    59   30   31 ar  
@<TRIPOS>SUBSTRUCTURE
     1 3T1         1 TEMP              0 ****  ****    0 ROOT
