@<TRIPOS>MOLECULE
3T1
   55    59     1     0     0
SMALL
bcc


@<TRIPOS>ATOM
      1 C1          0.1320   -0.3860   -0.1360 c         1 3T1      0.598300
      2 O1          1.3230   -0.7310   -0.2240 o         1 3T1     -0.578100
      3 C2         -0.5670   -0.5230    1.1890 c3        1 3T1     -0.175400
      4 C3         -2.0690   -0.6540    1.0250 c3        1 3T1     -0.008400
      5 C4         -2.5850    0.5140    0.1980 c3        1 3T1     -0.066200
      6 N5         -2.7230    1.0790   -2.1520 nh        1 3T1     -0.621400
      7 C6         -3.6870    1.7280   -4.2460 ca        1 3T1     -0.158000
      8 C7         -3.7100    1.7960   -5.6280 ca        1 3T1     -0.130000
      9 C8         -2.6690    1.2380   -6.3700 ca        1 3T1     -0.124000
     10 C9         -1.6130    0.6240   -5.7190 ca        1 3T1     -0.158000
     11 N10        -0.5270   -0.2310   -3.7240 nh        1 3T1     -0.699600
     12 C11         0.1930    0.2260   -2.5490 c3        1 3T1      0.299000
     13 C12        -2.7600   -0.7120    2.3510 ca        1 3T1     -0.087300
     14 C13        -3.5080   -1.8450    2.6950 ca        1 3T1     -0.123500
     15 C14        -4.1560   -1.9130    3.9270 ca        1 3T1     -0.127500
     16 C15        -4.0630   -0.8520    4.8270 ca        1 3T1     -0.126000
     17 C16        -3.3190    0.2790    4.4910 ca        1 3T1     -0.127500
     18 C17        -2.6710    0.3490    3.2590 ca        1 3T1     -0.123500
     19 C18         0.9100    1.5610   -2.6470 ca        1 3T1     -0.099300
     20 C19         0.3620    2.6870   -3.2500 ca        1 3T1     -0.115000
     21 C20         1.0870    3.8850   -3.3030 ca        1 3T1     -0.049600
     22 CL1         0.3810    5.2400   -4.0570 cl        1 3T1     -0.097400
     23 C21         2.3680    3.9710   -2.7450 ca        1 3T1      0.113100
     24 O21         3.1510    5.0970   -2.7490 oh        1 3T1     -0.468100
     25 C22         2.9180    2.8190   -2.1210 ca        1 3T1      0.105100
     26 O22         4.1830    2.9910   -1.5940 os        1 3T1     -0.304900
     27 C23         2.1930    1.6320   -2.0780 ca        1 3T1     -0.166000
     28 C24         4.7310    1.8650   -0.9160 c3        1 3T1      0.108700
     29 C25        -1.9160    0.5570   -1.1660 c2        1 3T1      0.224800
     30 C26        -2.6250    1.0910   -3.5490 ca        1 3T1      0.121600
     31 C27        -1.5610    0.5200   -4.3050 ca        1 3T1      0.103600
     32 C28        -0.6090    0.1650   -1.2780 ce        1 3T1     -0.308400
     33 H2         -0.1590   -1.4170    1.7310 hc        1 3T1      0.078200
     34 H2A        -0.3200    0.3830    1.8050 hc        1 3T1      0.078200
     35 H3         -2.2820   -1.6070    0.4600 hc        1 3T1      0.070700
     36 H4         -2.3660    1.4830    0.7230 hc        1 3T1      0.065200
     37 H4A        -3.7010    0.4210    0.1120 hc        1 3T1      0.065200
     38 H61        -3.6080    1.4130   -1.8220 hn        1 3T1      0.431800
     39 H6         -4.5190    2.1800   -3.6820 ha        1 3T1      0.129000
     40 H7         -4.5490    2.2920   -6.1380 ha        1 3T1      0.136000
     41 H8         -2.6820    1.2920   -7.4680 ha        1 3T1      0.136000
     42 H9         -0.7940    0.1960   -6.3210 ha        1 3T1      0.135000
     43 HN10        0.1280   -0.5330   -4.4240 hn        1 3T1      0.391800
     44 H11         1.0180   -0.5610   -2.4380 h1        1 3T1      0.090700
     45 H13        -3.5840   -2.6870    1.9910 ha        1 3T1      0.132500
     46 H14        -4.7400   -2.8080    4.1890 ha        1 3T1      0.134000
     47 H15        -4.5740   -0.9070    5.8000 ha        1 3T1      0.134000
     48 H16        -3.2420    1.1180    5.1990 ha        1 3T1      0.134000
     49 H17        -2.0830    1.2440    3.0020 ha        1 3T1      0.132500
     50 H19        -0.6480    2.6590   -3.6900 ha        1 3T1      0.157000
     51 HO21        2.6640    5.7990   -3.2090 ho        1 3T1      0.423000
     52 H23         2.6060    0.7390   -1.5780 ha        1 3T1      0.169000
     53 H24         4.8670    1.0080   -1.6200 h1        1 3T1      0.047700
     54 H24A        5.7220    2.2410   -0.5560 h1        1 3T1      0.047700
     55 H24B        4.0850    1.5650   -0.0560 h1        1 3T1      0.047700
@<TRIPOS>BOND
     1    1    2 2   
     2    1    3 1   
     3    1   32 1   
     4    3    4 1   
     5    3   33 1   
     6    3   34 1   
     7    4    5 1   
     8    4   13 1   
     9    4   35 1   
    10    5   29 1   
    11    5   36 1   
    12    5   37 1   
    13    6   29 1   
    14    6   30 1   
    15    6   38 1   
    16    7    8 ar  
    17    7   30 ar  
    18    7   39 1   
    19    8    9 ar  
    20    8   40 1   
    21    9   10 ar  
    22    9   41 1   
    23   10   31 ar  
    24   10   42 1   
    25   11   12 1   
    26   11   31 1   
    27   11   43 1   
    28   12   19 1   
    29   12   32 1   
    30   12   44 1   
    31   13   14 ar  
    32   13   18 ar  
    33   14   15 ar  
    34   14   45 1   
    35   15   16 ar  
    36   15   46 1   
    37   16   17 ar  
    38   16   47 1   
    39   17   18 ar  
    40   17   48 1   
    41   18   49 1   
    42   19   20 ar  
    43   19   27 ar  
    44   20   21 ar  
    45   20   50 1   
    46   21   22 1   
    47   21   23 ar  
    48   23   24 1   
    49   23   25 ar  
    50   24   51 1   
    51   25   26 1   
    52   25   27 ar  
    53   26   28 1   
    54   27   52 1   
    55   28   53 1   
    56   28   54 1   
    57   28   55 1   
    58   29   32 2   
    59   30   31 ar  
@<TRIPOS>SUBSTRUCTURE
     1 3T1         1 TEMP              0 ****  ****    0 ROOT
