@<TRIPOS>MOLECULE
3T2
   61    59     1     0     0
SMALL
bcc


@<TRIPOS>ATOM
      1 C13        -0.3800    0.1590    0.5310 c1        1 3T2      0.002000
      2 C11         1.4510   -0.2030   -1.2170 c1        1 3T2     -0.077000
      3 C9          3.5300   -0.1490   -2.4620 c2        1 3T2      0.092000
      4 C8          4.8910   -0.1320   -2.5470 c2        1 3T2     -0.246000
      5 C20         3.3540   -0.0690    2.2070 c3        1 3T2     -0.274000
      6 O1         -2.3710    1.1680    1.2170 o         1 3T2     -0.534000
      7 O2         -1.4620   -0.4220    2.5180 o         1 3T2     -0.534000
      8 C1          7.6260    0.6650   -0.1070 c2        1 3T2     -0.050000
      9 C2          8.5860    1.5620    0.1970 c2        1 3T2     -0.127000
     10 C3          9.2970    2.3270   -0.8680 c3        1 3T2     -0.135000
     11 C4          8.4620    2.5610   -2.1110 c3        1 3T2     -0.217000
     12 C5          7.5580    1.4950   -2.5030 c1        1 3T2     -0.047000
     13 C6          7.1080    0.5180   -1.5160 c3        1 3T2     -0.169000
     14 C7          5.6220    0.4720   -1.4930 c1        1 3T2     -0.032000
     15 C10         2.7500    0.4410   -1.3490 c3        1 3T2     -0.166000
     16 C12         0.5430    0.0390   -0.2690 c1        1 3T2     -0.277000
     17 C14        -1.4890    0.3110    1.4930 c2        1 3T2      0.408000
     18 C4'         7.6980   -2.4410   -0.2360 c3        1 3T2     -0.186000
     19 C3'         6.9000   -1.6930    0.7740 cx        1 3T2     -0.159000
     20 C5'        11.2500   -2.1660    1.4510 c3        1 3T2     -0.274000
     21 C2'         7.6080   -1.0120    1.9110 cx        1 3T2     -0.217000
     22 C7'        10.5250    1.6010    1.7600 c3        1 3T2     -0.205500
     23 C8'         8.6770    3.2590    2.0160 c3        1 3T2     -0.205500
     24 C19         5.5680   -0.7470   -3.7210 c3        1 3T2     -0.199000
     25 H1          2.3540   -0.0850    1.7160 hc        1 3T2      0.068875
     26 H2          3.3480    0.3930   -0.3880 hc        1 3T2      0.142500
     27 H3          2.9270   -0.6300   -3.2560 ha        1 3T2      0.137000
     28 H4          3.8340    0.9220    2.0390 hc        1 3T2      0.068875
     29 H5          3.9960   -0.8670    1.7720 hc        1 3T2      0.068875
     30 H6          3.2310   -0.2430    3.2970 hc        1 3T2      0.068875
     31 H8          5.2240    3.0790    2.0140 ha        1 3T2      0.001000
     32 H9          5.3600    2.5230    1.6530 ha        1 3T2      0.001000
     33 H10         9.6450    3.3170   -0.4690 hc        1 3T2      0.081000
     34 H11        10.2210    1.7490   -1.1480 hc        1 3T2      0.081000
     35 H12         9.1360    2.8120   -2.9750 hc        1 3T2      0.127500
     36 H13         7.7830    3.4560   -1.9640 hc        1 3T2      0.127500
     37 H14         7.5070   -0.4730   -1.9290 hc        1 3T2      0.155000
     38 H15         2.6060    1.5430   -1.5680 hc        1 3T2      0.142500
     39 H16         8.6320   -1.8890   -0.5050 hc        1 3T2      0.073000
     40 H17         7.0990   -2.6010   -1.1670 hc        1 3T2      0.073000
     41 H18         7.9870   -3.4410    0.1730 hc        1 3T2      0.073000
     42 H19         5.9270   -2.1840    0.9900 hc        1 3T2      0.124000
     43 H20        11.8440   -3.0820    1.6590 hc        1 3T2      0.068875
     44 H21        11.0110   -1.6530    2.4080 hc        1 3T2      0.068875
     45 H22        11.8370   -1.4810    0.8010 hc        1 3T2      0.068875
     46 H23         8.7140   -1.0440    1.9310 hc        1 3T2      0.106000
     47 H24        10.3030   -2.4450    0.9360 hc        1 3T2      0.068875
     48 H25         5.9430    0.2960    1.1450 hc        1 3T2      0.156000
     49 H26         7.1730   -1.0580    2.9240 hc        1 3T2      0.106000
     50 H27         8.4960    1.1510    2.3050 hc        1 3T2      0.102000
     51 H28        10.7710    0.5370    1.5170 hc        1 3T2      0.070833
     52 H29        10.8340    1.8070    2.8130 hc        1 3T2      0.070833
     53 H30        11.1150    2.2650    1.0830 hc        1 3T2      0.070833
     54 H31         9.2640    4.0160    1.4440 hc        1 3T2      0.070833
     55 H32         8.8970    3.3980    3.1020 hc        1 3T2      0.070833
     56 H33         7.5890    3.4450    1.8440 hc        1 3T2      0.070833
     57 H34         6.3280   -0.0350   -4.1330 hc        1 3T2      0.077000
     58 H35         6.0950   -1.6840   -3.4120 hc        1 3T2      0.077000
     59 H36         4.8440   -1.0070   -4.5310 hc        1 3T2      0.077000
     60 C1'         6.9150   -0.1800    0.8650 cx        1 3T2     -0.115000
     61 C6'         9.0380    1.8450    1.5970 c3        1 3T2     -0.072000
@<TRIPOS>BOND
     1    1   16 1   
     2    1   17 1   
     3    2   15 1   
     4    2   16 1   
     5    3    4 1   
     6    3   15 1   
     7    3   27 1   
     8    4   14 1   
     9    4   24 1   
    10    5   25 1   
    11    5   28 1   
    12    5   29 1   
    13    5   30 1   
    14    6   17 1   
    15    7   17 1   
    16    8    9 1   
    17    8   13 1   
    18    8   60 1   
    19    9   10 1   
    20    9   61 1   
    21   10   11 1   
    22   10   33 1   
    23   10   34 1   
    24   11   12 1   
    25   11   35 1   
    26   11   36 1   
    27   12   13 1   
    28   13   14 1   
    29   13   37 1   
    30   15   26 1   
    31   15   38 1   
    32   18   19 1   
    33   18   39 1   
    34   18   40 1   
    35   18   41 1   
    36   19   21 1   
    37   19   42 1   
    38   19   60 1   
    39   20   43 1   
    40   20   44 1   
    41   20   45 1   
    42   20   47 1   
    43   21   46 1   
    44   21   49 1   
    45   21   60 1   
    46   22   51 1   
    47   22   52 1   
    48   22   53 1   
    49   22   61 1   
    50   23   54 1   
    51   23   55 1   
    52   23   56 1   
    53   23   61 1   
    54   24   57 1   
    55   24   58 1   
    56   24   59 1   
    57   31   32 1   
    58   48   60 1   
    59   50   61 1   
@<TRIPOS>SUBSTRUCTURE
     1 3T2         1 TEMP              0 ****  ****    0 ROOT
