@<TRIPOS>MOLECULE
3T4
   38    34     1     0     0
SMALL
bcc


@<TRIPOS>ATOM
      1 C1         -4.4810    1.6590    0.9210 c1        1 3T4     -0.104000
      2 CL1         6.5250   -1.9910    0.9010 cl        1 3T4     -0.039000
      3 N2         -5.6340    2.0800    0.1940 n2        1 3T4      0.456400
      4 O3         -5.6280    2.0510   -1.1740 o         1 3T4     -0.302200
      5 O4         -6.6440    2.4200    0.7930 o         1 3T4     -0.302200
      6 C5         -3.2900    1.4430    0.2340 c1        1 3T4     -0.063000
      7 C6         -2.1190    1.1900    0.9360 c1        1 3T4     -0.056000
      8 C7         -0.7800    1.1250    0.1900 c3        1 3T4      0.003000
      9 N8         -0.0940   -0.1020    0.5370 n         1 3T4     -0.340000
     10 C9          0.7480   -0.7640   -0.4380 c2        1 3T4      0.350000
     11 C10         2.2060   -1.0930   -0.0930 c2        1 3T4     -0.151000
     12 C11         2.7160   -0.7640    1.1640 c2        1 3T4     -0.052000
     13 C12         4.0310   -1.0910    1.4900 c1        1 3T4     -0.187000
     14 C13         4.8370   -1.7470    0.5620 c1        1 3T4     -0.013000
     15 C15         4.3270   -2.0760   -0.6940 c1        1 3T4     -0.208000
     16 C16         3.0100   -1.7480   -1.0210 c1        1 3T4      0.142000
     17 O17         2.5090   -2.0410   -2.3070 os        1 3T4     -0.201000
     18 C18         3.3320   -1.5820   -3.3610 c3        1 3T4     -0.112000
     19 C19         2.4700   -1.3200   -4.6090 c2        1 3T4      0.344000
     20 O20         1.8680   -0.2160   -4.7410 o         1 3T4     -0.556500
     21 O21         2.3250   -2.2280   -5.4810 o         1 3T4     -0.556500
     22 O22         0.3000   -1.0510   -1.5380 o         1 3T4     -0.433000
     23 C23        -2.1380    1.1530    2.3280 c1        1 3T4     -0.086000
     24 C24        -3.3260    1.3680    3.0110 c1        1 3T4     -0.114000
     25 C25        -4.4980    1.6210    2.3070 c2        1 3T4      0.032000
     26 C26        -5.7920    1.8540    3.0510 c1        1 3T4     -0.091000
     27 N27        -6.7630    2.0280    3.6090 n1        1 3T4     -0.026000
     28 H5         -3.2730    1.4970   -0.7470 ha        1 3T4      0.189000
     29 H7         -0.2270    1.8910    0.4440 h1        1 3T4      0.120500
     30 H7A        -0.9430    1.1460   -0.7780 h1        1 3T4      0.120500
     31 HN8        -0.1910   -0.4610    1.3780 hn        1 3T4      0.299000
     32 H11         2.1870   -0.2300    1.7740 ha        1 3T4      0.150000
     33 H12         4.3910   -0.8500    2.3650 ha        1 3T4      0.139000
     34 H15         4.9090   -2.4700   -1.3650 ha        1 3T4      0.159000
     35 H18         4.0110   -2.2640   -3.5680 h1        1 3T4      0.078000
     36 H18A        3.7750   -0.7510   -3.0910 h1        1 3T4      0.078000
     37 H23        -1.3140    0.9740    2.8240 ha        1 3T4      0.188000
     38 H24        -3.3390    1.3410    3.9940 ha        1 3T4      0.148000
@<TRIPOS>BOND
     1    1    6 1   
     2    1   25 1   
     3    2   14 1   
     4    3    4 2   
     5    3    5 2   
     6    6   28 1   
     7    7    8 1   
     8    7   23 1   
     9    8    9 1   
    10    8   29 1   
    11    8   30 1   
    12    9   10 1   
    13    9   31 1   
    14   10   11 1   
    15   10   22 1   
    16   11   12 1   
    17   11   16 1   
    18   12   13 1   
    19   12   32 1   
    20   13   33 1   
    21   14   15 1   
    22   15   34 1   
    23   16   17 1   
    24   17   18 1   
    25   18   19 1   
    26   18   35 1   
    27   18   36 1   
    28   19   20 1   
    29   19   21 1   
    30   23   37 1   
    31   24   25 1   
    32   24   38 1   
    33   25   26 1   
    34   26   27 1   
@<TRIPOS>SUBSTRUCTURE
     1 3T4         1 TEMP              0 ****  ****    0 ROOT
