@<TRIPOS>MOLECULE
3T4
   38    39     1     0     0
SMALL
bcc


@<TRIPOS>ATOM
      1 C1          0.4460   -0.2880    0.5210 ca        1 3T4     -0.161200
      2 CL1         8.2240    7.2350    1.5580 cl        1 3T4     -0.118400
      3 N2         -0.8530   -0.3130   -0.1990 no        1 3T4      0.311200
      4 O3         -0.8480   -0.2430   -1.4020 o         1 3T4     -0.215000
      5 O4         -1.8810   -0.4000    0.4170 o         1 3T4     -0.215000
      6 C5          1.6040    0.0430   -0.2010 ca        1 3T4     -0.071000
      7 C6          2.8420    0.0680    0.4440 ca        1 3T4     -0.082300
      8 C7          4.0890    0.3810   -0.3450 c3        1 3T4      0.138300
      9 N8          4.8230    1.5020    0.1640 n         1 3T4     -0.549900
     10 C9          5.1150    2.5910   -0.6180 c         1 3T4      0.682700
     11 C10         5.9360    3.6940   -0.0330 ca        1 3T4     -0.168600
     12 C11         5.6650    4.9890   -0.4900 ca        1 3T4     -0.051000
     13 C12         6.3620    6.0900   -0.0010 ca        1 3T4     -0.187000
     14 C13         7.3630    5.8920    0.9540 ca        1 3T4      0.065400
     15 C15         7.6750    4.6160    1.4150 ca        1 3T4     -0.211000
     16 C16         6.9610    3.5090    0.9190 ca        1 3T4      0.190100
     17 O17         7.2880    2.2260    1.2700 os        1 3T4     -0.319900
     18 C18         7.7170    2.0150    2.6270 c3        1 3T4     -0.004600
     19 C19         6.9930    0.7600    3.1660 c         1 3T4      0.926600
     20 O20         5.8090    0.5330    2.7780 o         1 3T4     -0.832300
     21 O21         7.6230    0.0610    3.9990 o         1 3T4     -0.832300
     22 O22         4.6620    2.7020   -1.7840 o         1 3T4     -0.664100
     23 C23         2.9280   -0.2250    1.8090 ca        1 3T4     -0.067000
     24 C24         1.7770   -0.5480    2.5270 ca        1 3T4     -0.111000
     25 C25         0.5250   -0.5880    1.8990 ca        1 3T4      0.032000
     26 C26        -0.6180   -0.9360    2.6700 cg        1 3T4      0.240800
     27 N27        -1.5360   -1.2250    3.3230 n1        1 3T4     -0.352800
     28 H5          1.5340    0.2860   -1.2760 ha        1 3T4      0.173000
     29 H7          3.8160    0.5660   -1.4250 h1        1 3T4      0.067200
     30 H7A         4.7480   -0.5380   -0.2980 h1        1 3T4      0.067200
     31 HN8         5.2730    1.3840    1.0620 hn        1 3T4      0.387500
     32 H11         4.8810    5.1250   -1.2540 ha        1 3T4      0.156000
     33 H12         6.1260    7.1000   -0.3640 ha        1 3T4      0.140000
     34 H15         8.4760    4.4620    2.1540 ha        1 3T4      0.157000
     35 H18         8.8250    1.8630    2.5940 h1        1 3T4      0.042200
     36 H18A        7.4620    2.8830    3.2840 h1        1 3T4      0.042200
     37 H23         3.9130   -0.1970    2.3260 ha        1 3T4      0.234000
     38 H24         1.8530   -0.7740    3.6030 ha        1 3T4      0.159000
@<TRIPOS>BOND
     1    1    3 1   
     2    1    6 ar  
     3    1   25 ar  
     4    2   14 1   
     5    3    4 1   
     6    3    5 1   
     7    6    7 ar  
     8    6   28 1   
     9    7    8 1   
    10    7   23 ar  
    11    8    9 1   
    12    8   29 1   
    13    8   30 1   
    14    9   10 1   
    15    9   31 1   
    16   10   11 1   
    17   10   22 2   
    18   11   12 ar  
    19   11   16 ar  
    20   12   13 ar  
    21   12   32 1   
    22   13   14 ar  
    23   13   33 1   
    24   14   15 ar  
    25   15   16 ar  
    26   15   34 1   
    27   16   17 1   
    28   17   18 1   
    29   18   19 1   
    30   18   35 1   
    31   18   36 1   
    32   19   20 1   
    33   19   21 1   
    34   23   24 ar  
    35   23   37 1   
    36   24   25 ar  
    37   24   38 1   
    38   25   26 1   
    39   26   27 3   
@<TRIPOS>SUBSTRUCTURE
     1 3T4         1 TEMP              0 ****  ****    0 ROOT
