@<TRIPOS>MOLECULE
3T4
   39    40     1     0     0
SMALL
bcc


@<TRIPOS>ATOM
      1 C1          1.5910   -0.1430   -0.1860 ca        1 3T4     -0.143200
      2 CL1         7.0710    7.1960    0.3320 cl        1 3T4     -0.063400
      3 N2          1.5700   -0.5450   -1.6260 no        1 3T4      0.315200
      4 O3          2.2970   -1.4310   -1.9760 o         1 3T4     -0.180000
      5 O4          0.8260    0.0240   -2.3760 o         1 3T4     -0.180000
      6 C5          2.8010   -0.2300    0.5180 ca        1 3T4     -0.038000
      7 C6          2.8260    0.1200    1.8730 ca        1 3T4     -0.139300
      8 C7          4.0960   -0.0250    2.6530 c3        1 3T4      0.177100
      9 N8          5.0930    1.0270    2.3330 n4        1 3T4     -0.692800
     10 C9          4.8630    2.3540    2.9920 c         1 3T4      0.592700
     11 C10         5.5060    3.5070    2.3700 ca        1 3T4     -0.256600
     12 C11         4.9640    4.7790    2.6610 ca        1 3T4     -0.031000
     13 C12         5.4500    5.9130    2.0400 ca        1 3T4     -0.178000
     14 C13         6.5010    5.8010    1.1080 ca        1 3T4      0.094400
     15 C15         7.0770    4.5690    0.8280 ca        1 3T4     -0.176000
     16 C16         6.6010    3.4180    1.4840 ca        1 3T4      0.200100
     17 O17         7.2470    2.2010    1.3640 os        1 3T4     -0.243200
     18 C18         7.6470    1.8370    0.0900 c2        1 3T4     -0.476900
     19 C19         6.7870    1.0200   -0.6410 c2        1 3T4      0.441100
     20 O20         7.1720    0.5080   -1.8570 oh        1 3T4     -0.575100
     21 O21         5.6220    0.6100   -0.3330 o         1 3T4     -0.553000
     22 O22         4.1230    2.3650    3.9780 o         1 3T4     -0.508100
     23 C23         1.6670    0.5690    2.5110 ca        1 3T4     -0.073000
     24 C24         0.4690    0.6580    1.8070 ca        1 3T4     -0.113000
     25 C25         0.4150    0.3020    0.4520 ca        1 3T4      0.076000
     26 C26        -0.8250    0.3920   -0.2370 cg        1 3T4      0.208800
     27 N27        -1.8450    0.4710   -0.7910 n1        1 3T4     -0.294800
     28 H5          3.7290   -0.5530   -0.0020 ha        1 3T4      0.223000
     29 H7          4.5730   -1.0180    2.3990 hx        1 3T4      0.103700
     30 H7A         3.8800    0.0080    3.7600 hx        1 3T4      0.103700
     31 HN8         5.1420    1.1680    1.2710 hn        1 3T4      0.500300
     32 H11         4.1350    4.8520    3.3850 ha        1 3T4      0.155000
     33 H12         5.0170    6.8990    2.2660 ha        1 3T4      0.160000
     34 H15         7.8980    4.4580    0.1010 ha        1 3T4      0.181000
     35 H18         8.6300    2.1800   -0.2160 h4        1 3T4      0.147000
     36 H18A        8.0550    0.8390   -2.0660 ho        1 3T4      0.413000
     37 H23         1.7000    0.8620    3.5740 ha        1 3T4      0.160000
     38 H24        -0.4450    1.0100    2.3120 ha        1 3T4      0.165000
     39 H82         6.0350    0.7080    2.6000 hn        1 3T4      0.500300
@<TRIPOS>BOND
     1    1    3 1   
     2    1    6 ar  
     3    1   25 ar  
     4    2   14 1   
     5    3    4 1   
     6    3    5 1   
     7    6    7 ar  
     8    6   28 1   
     9    7    8 1   
    10    7   23 ar  
    11    8    9 1   
    12    8   29 1   
    13    8   30 1   
    14    9   10 1   
    15    9   31 1   
    16    9   39 1   
    17   10   11 1   
    18   10   22 2   
    19   11   12 ar  
    20   11   16 ar  
    21   12   13 ar  
    22   12   32 1   
    23   13   14 ar  
    24   13   33 1   
    25   14   15 ar  
    26   15   16 ar  
    27   15   34 1   
    28   16   17 1   
    29   17   18 1   
    30   18   19 2   
    31   18   35 1   
    32   19   20 1   
    33   19   21 1   
    34   20   36 1   
    35   23   24 ar  
    36   23   37 1   
    37   24   25 ar  
    38   24   38 1   
    39   25   26 1   
    40   26   27 3   
@<TRIPOS>SUBSTRUCTURE
     1 3T4         1 TEMP              0 ****  ****    0 ROOT
