@<TRIPOS>MOLECULE
3T4
   39    42     1     0     0
SMALL
bcc


@<TRIPOS>ATOM
      1 C1          0.0000    0.0000    0.0000 ca        1 3T4     -0.377000
      2 Cl1         7.3880    7.2680    1.1650 cl        1 3T4      0.105000
      3 N2         -0.7420    0.0000   -1.2810 no        1 3T4      1.293000
      4 O3         -0.1340   -0.0010   -2.3360 o         1 3T4     -0.578000
      5 O4         -1.9600    0.0010   -1.2790 o         1 3T4     -0.578000
      6 C5          1.3790    0.0000    0.0000 ca        1 3T4      0.015000
      7 C6          2.0740    0.0000    1.1970 ca        1 3T4     -0.140000
      8 C7          3.5810   -0.0010    1.1890 c3        1 3T4     -0.050000
      9 N8          4.0700    1.3800    1.1850 ny        1 3T4      0.005000
     10 C9          5.3960    1.6240    1.1790 c2        1 3T4      0.370000
     11 C10         5.8880    3.0150    1.1740 ca        1 3T4     -0.233000
     12 C11         4.9850    4.0800    1.1780 ca        1 3T4     -0.037000
     13 C12         5.4510    5.3770    1.1750 ca        1 3T4     -0.128000
     14 C13         6.8140    5.6300    1.1680 ca        1 3T4     -0.037000
     15 C15         7.7190    4.5850    1.1640 ca        1 3T4     -0.202000
     16 C16         7.2660    3.2740    1.1730 ca        1 3T4      0.186000
     17 O17         8.1530    2.2480    1.1740 os        1 3T4     -0.012000
     18 C18         9.5410    2.5890    1.1740 c3        1 3T4     -0.295000
     19 C19        10.3680    1.3280    1.1760 c3        1 3T4      0.482000
     20 O20        11.7080    1.4050    1.1740 o         1 3T4     -0.509500
     21 O21         9.8240    0.2500    1.1790 o         1 3T4     -0.509500
     22 O22         6.1860    0.7000    1.1750 oh        1 3T4     -0.313000
     23 C23         1.3920    0.0020    2.4010 ca        1 3T4     -0.014000
     24 C24         0.0120    0.0040    2.4150 ca        1 3T4     -0.087000
     25 C25        -0.6950    0.0080    1.2120 ca        1 3T4      0.168000
     26 C26        -2.1270    0.0150    1.2190 c1        1 3T4     -0.160000
     27 N27        -3.2630    0.0040    1.2140 n1        1 3T4      0.054000
     28 H5          1.9210    0.6050   -0.7170 ha        1 3T4      0.126000
     29 H7          3.9370   -0.6870    0.4300 hx        1 3T4      0.099500
     30 H7A         3.9470   -0.3160    2.1600 hx        1 3T4      0.099500
     31 HN8         5.0670    1.3800    1.2710 DU        1 3T4      0.136000
     32 H11         3.9190    3.8860    1.1840 ha        1 3T4      0.109000
     33 H12         4.7520    6.2040    1.1720 ha        1 3T4      0.128000
     34 H15         8.7820    4.7890    1.1840 ha        1 3T4      0.165000
     35 H18         9.6770    3.5450    0.6840 h1        1 3T4      0.124000
     36 H18A       10.0990    1.8280    0.6410 DU        1 3T4      0.236000
     37 H23         1.9400   -0.0600    3.3330 ha        1 3T4      0.123000
     38 H24        -0.5200    0.0050    3.3580 ha        1 3T4      0.134000
     39 H82         3.8120    1.8220    0.3250 hn        1 3T4      0.101000
@<TRIPOS>BOND
     1    1    3 1   
     2    1    6 1   
     3    1   25 1   
     4    2   14 1   
     5    3    4 1   
     6    3    5 1   
     7    6    7 1   
     8    6   28 1   
     9    7    8 1   
    10    7   23 1   
    11    8    9 1   
    12    8   29 1   
    13    8   30 1   
    14    9   10 1   
    15    9   31 1   
    16    9   39 1   
    17   10   11 1   
    18   10   22 1   
    19   11   12 1   
    20   11   16 1   
    21   12   13 1   
    22   12   32 1   
    23   13   14 1   
    24   13   33 1   
    25   14   15 1   
    26   15   16 1   
    27   15   34 1   
    28   16   17 1   
    29   17   18 1   
    30   18   19 1   
    31   18   35 1   
    32   18   36 1   
    33   19   20 1   
    34   19   21 1   
    35   19   36 1   
    36   22   31 1   
    37   23   24 1   
    38   23   37 1   
    39   24   25 1   
    40   24   38 1   
    41   25   26 1   
    42   26   27 1   
@<TRIPOS>SUBSTRUCTURE
     1 3T4         1 TEMP              0 ****  ****    0 ROOT
