@<TRIPOS>MOLECULE
3T4
   38    39     1     0     0
SMALL
bcc


@<TRIPOS>ATOM
      1 C1         -4.2980    1.3050    0.5090 ca        1 3T4     -0.149200
      2 CL1         5.3830   -3.8150   -0.1720 cl        1 3T4     -0.117400
      3 N2         -5.1300    1.9590    1.5540 no        1 3T4      0.310200
      4 O3         -4.7770    3.0220    1.9910 o         1 3T4     -0.206500
      5 O4         -6.1330    1.4200    1.9410 o         1 3T4     -0.206500
      6 C5         -2.9610    1.7060    0.3660 ca        1 3T4     -0.063000
      7 C6         -2.1620    1.1130   -0.6170 ca        1 3T4     -0.063300
      8 C7         -0.7380    1.5710   -0.8090 c3        1 3T4      0.126300
      9 N8          0.2430    0.5610   -0.5260 n         1 3T4     -0.530900
     10 C9          0.7370   -0.2700   -1.5040 c         1 3T4      0.676700
     11 C10         1.9300   -1.1030   -1.1690 ca        1 3T4     -0.171600
     12 C11         1.9720   -2.4140   -1.6530 ca        1 3T4     -0.052000
     13 C12         3.0350   -3.2600   -1.3490 ca        1 3T4     -0.187000
     14 C13         4.0820   -2.7810   -0.5560 ca        1 3T4      0.065400
     15 C15         4.0870   -1.4720   -0.0800 ca        1 3T4     -0.208000
     16 C16         3.0110   -0.6230   -0.3980 ca        1 3T4      0.187100
     17 O17         3.0020    0.7020   -0.0560 os        1 3T4     -0.317900
     18 C18         3.5450    1.0420    1.2310 c3        1 3T4     -0.011600
     19 C19         2.6480    2.1530    1.8360 c         1 3T4      0.924600
     20 O20         1.4080    2.1330    1.5900 o         1 3T4     -0.821800
     21 O21         3.2310    2.9880    2.5730 o         1 3T4     -0.821800
     22 O22         0.1640   -0.4000   -2.6140 o         1 3T4     -0.672100
     23 C23        -2.6940    0.1170   -1.4400 ca        1 3T4     -0.086000
     24 C24        -4.0200   -0.2850   -1.2950 ca        1 3T4     -0.114000
     25 C25        -4.8410    0.3020   -0.3240 ca        1 3T4      0.028000
     26 C26        -6.1930   -0.1240   -0.2210 cg        1 3T4      0.238800
     27 N27        -7.2960   -0.4880   -0.1570 n1        1 3T4     -0.351800
     28 H5         -2.5370    2.4830    1.0300 ha        1 3T4      0.189000
     29 H7         -0.6440    1.9160   -1.8820 h1        1 3T4      0.081200
     30 H7A        -0.5250    2.4450   -0.1220 h1        1 3T4      0.081200
     31 HN8         0.8210    0.7560    0.2850 hn        1 3T4      0.385500
     32 H11         1.1410   -2.7720   -2.2840 ha        1 3T4      0.150000
     33 H12         3.0480   -4.2910   -1.7290 ha        1 3T4      0.139000
     34 H15         4.9170   -1.0900    0.5330 ha        1 3T4      0.159000
     35 H18         3.5500    0.1610    1.9180 h1        1 3T4      0.038700
     36 H18A        4.5880    1.4100    1.0640 h1        1 3T4      0.038700
     37 H23        -2.0470   -0.3480   -2.2080 ha        1 3T4      0.188000
     38 H24        -4.4320   -1.0700   -1.9480 ha        1 3T4      0.148000
@<TRIPOS>BOND
     1    1    3 1   
     2    1    6 ar  
     3    1   25 ar  
     4    2   14 1   
     5    3    4 1   
     6    3    5 1   
     7    6    7 ar  
     8    6   28 1   
     9    7    8 1   
    10    7   23 ar  
    11    8    9 1   
    12    8   29 1   
    13    8   30 1   
    14    9   10 1   
    15    9   31 1   
    16   10   11 1   
    17   10   22 2   
    18   11   12 ar  
    19   11   16 ar  
    20   12   13 ar  
    21   12   32 1   
    22   13   14 ar  
    23   13   33 1   
    24   14   15 ar  
    25   15   16 ar  
    26   15   34 1   
    27   16   17 1   
    28   17   18 1   
    29   18   19 1   
    30   18   35 1   
    31   18   36 1   
    32   19   20 1   
    33   19   21 1   
    34   23   24 ar  
    35   23   37 1   
    36   24   25 ar  
    37   24   38 1   
    38   25   26 1   
    39   26   27 3   
@<TRIPOS>SUBSTRUCTURE
     1 3T4         1 TEMP              0 ****  ****    0 ROOT
