@<TRIPOS>MOLECULE
3T5
   60    63     1     0     0
SMALL
bcc


@<TRIPOS>ATOM
      1 F          -2.7250    0.2070    1.5090 f         1 3T5     -0.257300
      2 P           3.4970   -1.8540    0.4020 p5        1 3T5      1.341900
      3 C1          0.8450    0.1880   -1.3850 c3        1 3T5     -0.137100
      4 O1         -0.6850   -2.1060   -0.2440 oh        1 3T5     -0.681800
      5 C2          0.5760    0.8330   -0.0370 c3        1 3T5     -0.034000
      6 C3          0.3230   -0.2480    1.0040 c3        1 3T5     -0.144400
      7 O3          2.1610    1.7330    1.6360 oh        1 3T5     -0.653800
      8 C4         -0.9150   -1.0850    0.6940 c3        1 3T5      0.182100
      9 C5         -2.1840   -0.2290    0.2890 c3        1 3T5      0.187300
     10 O5          3.8280   -0.6130   -0.7530 os        1 3T5     -0.557200
     11 O6          2.2200   -2.4080   -0.1840 o         1 3T5     -0.921167
     12 C7         -3.3110   -1.0410   -0.4640 c3        1 3T5     -0.020600
     13 O7          4.7270   -2.6980    0.4020 o         1 3T5     -0.921167
     14 C8         -2.9080   -1.4740   -1.8780 c3        1 3T5     -0.085100
     15 O8          3.2150   -1.0140    1.6290 o         1 3T5     -0.921167
     16 C9         -3.6070   -2.2940    0.3010 c2        1 3T5     -0.045200
     17 C10        -4.8330   -2.6500    0.7100 ce        1 3T5     -0.293200
     18 C11        -6.0090   -1.8080    0.4680 c         1 3T5      0.579500
     19 C12        -5.7450   -0.5150   -0.1750 ce        1 3T5     -0.284200
     20 C13        -4.5190   -0.1440   -0.5890 c2        1 3T5     -0.010400
     21 C14        -4.2970    1.1850   -1.2310 c3        1 3T5     -0.050200
     22 C15        -3.0950    1.9150   -0.6620 c3        1 3T5     -0.075400
     23 C16        -1.8690    1.0200   -0.5900 c3        1 3T5     -0.067700
     24 C17        -0.6800    1.7340    0.0080 c3        1 3T5     -0.078700
     25 C18        -0.2270    3.0620   -0.5650 c3        1 3T5     -0.064400
     26 C19         1.1620    3.2590    0.0580 c3        1 3T5     -0.067700
     27 C20         1.0810    4.0660    1.3320 c3        1 3T5     -0.067100
     28 C21         1.7490    1.8220    0.2890 c3        1 3T5      0.097800
     29 C22         2.9630    1.6240   -0.6450 c         1 3T5      0.542100
     30 C23         4.0830    0.6440   -0.2780 c3        1 3T5      0.138400
     31 H1         -0.0130   -0.4440   -1.7200 hc        1 3T5      0.062700
     32 H1A         1.0480    0.9580   -2.1650 hc        1 3T5      0.062700
     33 H1B         1.7340   -0.5080   -1.2750 hc        1 3T5      0.062700
     34 HO1         0.2910   -2.2340   -0.3450 ho        1 3T5      0.521000
     35 H3          1.2300   -0.9400    1.0610 hc        1 3T5      0.114200
     36 H3A         0.1960    0.2240    2.0120 hc        1 3T5      0.114200
     37 HO3         2.4570    0.8070    1.8000 ho        1 3T5      0.496000
     38 H4         -1.2230   -1.6000    1.6590 h1        1 3T5      0.019700
     39 H8         -1.9150   -1.9870   -1.8700 hc        1 3T5      0.053700
     40 H8A        -3.6780   -2.1790   -2.2780 hc        1 3T5      0.053700
     41 H8B        -2.8470   -0.5990   -2.5660 hc        1 3T5      0.053700
     42 H9         -2.7190   -2.9300    0.4800 ha        1 3T5      0.178000
     43 H10        -5.0130   -3.5890    1.2550 ha        1 3T5      0.136000
     44 H12        -6.6170    0.1480   -0.2860 ha        1 3T5      0.128000
     45 H14        -4.1510    1.0250   -2.3340 hc        1 3T5      0.040200
     46 H14A       -5.2090    1.8290   -1.1110 hc        1 3T5      0.040200
     47 H15        -2.8640    2.8040   -1.3050 hc        1 3T5      0.044700
     48 H15A       -3.3390    2.2930    0.3660 hc        1 3T5      0.044700
     49 H16        -1.6120    0.6760   -1.6270 hc        1 3T5      0.075700
     50 H17        -0.9270    1.9250    1.0970 hc        1 3T5      0.052700
     51 H18        -0.1500    3.0130   -1.6790 hc        1 3T5      0.024700
     52 H18A       -0.9220    3.8940   -0.2960 hc        1 3T5      0.024700
     53 H19         1.8130    3.8120   -0.6700 hc        1 3T5      0.061700
     54 H20         0.4290    3.5540    2.0790 hc        1 3T5      0.023367
     55 H20A        2.0980    4.1730    1.7800 hc        1 3T5      0.023367
     56 H20B        0.6660    5.0820    1.1240 hc        1 3T5      0.023367
     57 H23         4.2350    0.6510    0.8390 h1        1 3T5      0.024700
     58 H23A        5.0150    1.0470   -0.7800 h1        1 3T5      0.024700
     59 O2         -7.1600   -2.1590    0.7870 o         1 3T5     -0.599100
     60 O4          3.0690    2.3250   -1.6650 o         1 3T5     -0.616100
@<TRIPOS>BOND
     1    1    9 1   
     2    2   10 1   
     3    2   11 1   
     4    2   13 1   
     5    2   15 1   
     6    3    5 1   
     7    3   31 1   
     8    3   32 1   
     9    3   33 1   
    10    4    8 1   
    11    4   34 1   
    12    5    6 1   
    13    5   24 1   
    14    5   28 1   
    15    6    8 1   
    16    6   35 1   
    17    6   36 1   
    18    7   28 1   
    19    7   37 1   
    20    8    9 1   
    21    8   38 1   
    22    9   12 1   
    23    9   23 1   
    24   10   30 1   
    25   12   14 1   
    26   12   16 1   
    27   12   20 1   
    28   14   39 1   
    29   14   40 1   
    30   14   41 1   
    31   16   17 2   
    32   16   42 1   
    33   17   18 1   
    34   17   43 1   
    35   18   19 1   
    36   18   59 2   
    37   19   20 2   
    38   19   44 1   
    39   20   21 1   
    40   21   22 1   
    41   21   45 1   
    42   21   46 1   
    43   22   23 1   
    44   22   47 1   
    45   22   48 1   
    46   23   24 1   
    47   23   49 1   
    48   24   25 1   
    49   24   50 1   
    50   25   26 1   
    51   25   51 1   
    52   25   52 1   
    53   26   27 1   
    54   26   28 1   
    55   26   53 1   
    56   27   54 1   
    57   27   55 1   
    58   27   56 1   
    59   28   29 1   
    60   29   30 1   
    61   29   60 2   
    62   30   57 1   
    63   30   58 1   
@<TRIPOS>SUBSTRUCTURE
     1 3T5         1 TEMP              0 ****  ****    0 ROOT
