@<TRIPOS>MOLECULE
3T5
   60    61     1     0     0
SMALL
bcc


@<TRIPOS>ATOM
      1 F           3.0210   -0.8950   -0.1400 f         1 3T5     -0.175000
      2 P          -5.0460    0.3630    2.4830 p3        1 3T5      2.508000
      3 C1          2.1770    2.5720    1.3540 c3        1 3T5     -0.190000
      4 O1          2.0020   -2.2970    1.5120 oh        1 3T5     -0.352000
      5 C2          1.4060    1.4500    0.6200 c3        1 3T5     -0.012000
      6 O2         -1.2330   -5.3640   -0.4940 o         1 3T5     -0.336000
      7 C3          1.7110    0.1900    1.3430 c3        1 3T5     -0.167000
      8 O3         -0.5800    2.9050    1.6060 oh        1 3T5     -0.359000
      9 C4          1.3480   -0.8500    0.6860 c3        1 3T5      0.009000
     10 O4         -1.2320   -0.3770    0.8100 o         1 3T5     -0.354000
     11 C5          1.6800   -0.8380   -0.2150 c3        1 3T5      0.137000
     12 O5         -3.5220    0.1960    2.0480 os        1 3T5     -0.690000
     13 O6         -5.2350    1.7030    3.1510 o         1 3T5     -1.252500
     14 C7          1.3250   -1.8230   -0.7640 c3        1 3T5     -0.034000
     15 O7         -5.4190   -0.7380    3.4500 os        1 3T5     -1.221000
     16 C8          2.1040   -1.9080   -2.0720 c3        1 3T5     -0.200000
     17 O8         -5.9280    0.2820    1.2630 o         1 3T5     -1.252500
     18 C9          1.8130   -3.0670    0.1520 c2        1 3T5     -0.042000
     19 C10         0.9200   -4.3390    0.2380 c1        1 3T5     -0.257000
     20 C11        -0.5280   -4.3730   -0.5560 c1        1 3T5      0.296000
     21 C12        -1.0720   -3.0390   -1.2920 c2        1 3T5     -0.244000
     22 C13        -0.2920   -1.7660   -1.1750 c2        1 3T5     -0.008000
     23 C14        -0.6550   -0.6210   -1.9180 c3        1 3T5     -0.134000
     24 C15        -0.2190    0.4420   -1.2780 c3        1 3T5     -0.182000
     25 C16         1.3650    0.3440   -0.8960 c3        1 3T5     -0.095000
     26 C17         1.7030    1.4470   -0.2300 c3        1 3T5     -0.086000
     27 C18         1.0440    2.4190   -0.8990 c3        1 3T5     -0.149000
     28 C19        -0.3840    2.3560   -0.4530 c3        1 3T5     -0.109000
     29 C20        -1.3080    1.2630   -1.4880 c3        1 3T5     -0.272000
     30 C21        -0.3240    1.9540    0.5780 c3        1 3T5      0.032000
     31 C22        -1.5070    0.8030    0.8700 c2        1 3T5      0.206000
     32 C23        -2.9090    1.2450    1.3340 c3        1 3T5      0.072000
     33 H1          1.9350    3.4450    0.9660 hc        1 3T5      0.069667
     34 H1A         3.1460    2.4250    1.2540 hc        1 3T5      0.069667
     35 H1B         1.9400    2.5610    2.3140 hc        1 3T5      0.069667
     36 HO1         2.1250   -2.1180    2.3590 ho        1 3T5      0.208000
     37 H3          1.2440    0.1990    2.2050 hc        1 3T5      0.095000
     38 H3A         2.6730    0.1430    1.5050 hc        1 3T5      0.095000
     39 HO3        -0.8750    3.6650    1.2410 ho        1 3T5      0.231000
     40 H4          0.3670   -0.9000    0.6710 h1        1 3T5      0.145000
     41 H8          2.8700   -1.3110   -2.0340 hc        1 3T5      0.081333
     42 H8A         2.4170   -2.8380   -2.2100 hc        1 3T5      0.081333
     43 H8B         1.5270   -1.6480   -2.8110 hc        1 3T5      0.081333
     44 H9          2.7150   -3.0810    0.5130 ha        1 3T5      0.147000
     45 H10         1.1670   -5.0680    0.8290 ha        1 3T5      0.137000
     46 H12        -1.9600   -3.0300   -1.6880 ha        1 3T5      0.150000
     47 H14        -0.3790   -0.7910   -2.8550 hc        1 3T5      0.089000
     48 H14A       -1.6230   -0.5020   -2.0270 hc        1 3T5      0.089000
     49 H15        -0.7340    0.5460   -0.4560 hc        1 3T5      0.134500
     50 H15A       -0.3580    1.2200   -1.8340 hc        1 3T5      0.134500
     51 H16         1.8700    0.3410   -1.7370 hc        1 3T5      0.068000
     52 H17         2.6770    1.5950   -0.2650 hc        1 3T5      0.070000
     53 H18         1.1020    2.2610   -1.8640 hc        1 3T5      0.065000
     54 H18A        1.4280    3.3020   -0.6780 hc        1 3T5      0.065000
     55 H19        -0.7830    3.2490   -0.4500 hc        1 3T5      0.086000
     56 H20        -0.9030    1.2440   -2.3940 hc        1 3T5      0.113333
     57 H20A       -1.2950    0.3620   -1.1060 hc        1 3T5      0.113333
     58 H20B       -2.2390    1.5810   -1.5510 hc        1 3T5      0.113333
     59 H23        -2.8270    2.0400    1.9200 h1        1 3T5      0.055500
     60 H23A       -3.4550    1.4700    0.5550 h1        1 3T5      0.055500
@<TRIPOS>BOND
     1    1   11 1   
     2    2   12 1   
     3    2   13 1   
     4    2   17 1   
     5    3    5 1   
     6    3   33 1   
     7    3   34 1   
     8    3   35 1   
     9    4    9 1   
    10    4   36 1   
    11    5    7 1   
    12    5   26 1   
    13    5   30 1   
    14    6   20 1   
    15    7    9 1   
    16    7   37 1   
    17    7   38 1   
    18    8   30 1   
    19    8   39 1   
    20    9   11 1   
    21    9   40 1   
    22   10   31 1   
    23   11   14 1   
    24   11   25 1   
    25   12   32 1   
    26   14   16 1   
    27   14   18 1   
    28   14   22 1   
    29   16   41 1   
    30   16   42 1   
    31   16   43 1   
    32   18   19 1   
    33   18   44 1   
    34   19   45 1   
    35   20   21 1   
    36   21   22 1   
    37   21   46 1   
    38   22   23 1   
    39   23   24 1   
    40   23   47 1   
    41   23   48 1   
    42   24   25 1   
    43   24   49 1   
    44   24   50 1   
    45   25   26 1   
    46   25   51 1   
    47   26   27 1   
    48   26   52 1   
    49   27   28 1   
    50   27   53 1   
    51   27   54 1   
    52   28   29 1   
    53   28   30 1   
    54   28   55 1   
    55   29   56 1   
    56   29   57 1   
    57   29   58 1   
    58   30   31 1   
    59   31   32 1   
    60   32   59 1   
    61   32   60 1   
@<TRIPOS>SUBSTRUCTURE
     1 3T5         1 TEMP              0 ****  ****    0 ROOT
