@<TRIPOS>MOLECULE
3T5
   60    82     1     0     0
SMALL
bcc


@<TRIPOS>ATOM
      1 F           1.4000    0.0000    0.0000 f         1 3T5     -0.130000
      2 P          -3.2200   -4.3350    6.3900 p5        1 3T5      1.121500
      3 C1         -2.2370   -2.2080    1.1700 c3        1 3T5     -0.796000
      4 O1         -1.9220    0.1540    1.4380 oh        1 3T5     -0.466000
      5 C2         -0.7380   -2.4450    1.3690 DU        1 3T5     -0.333000
      6 C3         -0.1400   -1.3040    2.1690 DU        1 3T5     -0.430000
      7 O3          0.7090   -3.8980    2.6650 oh        1 3T5     -0.287000
      8 C4         -0.5020    0.0000    1.4400 DU        1 3T5     -0.357000
      9 C5          0.0000    0.0000    0.0000 c3        1 3T5      0.131000
     10 O5         -2.8740   -4.4880    4.8260 os        1 3T5     -0.592000
     11 O6         -3.1660   -2.9060    6.7690 o         1 3T5     -0.377833
     12 C7         -0.5030    1.2600   -0.7120 DU        1 3T5     -0.448000
     13 O7         -4.6970   -4.9100    6.6730 o         1 3T5     -0.377833
     14 C8         -2.0330    1.2340   -0.6770 c3        1 3T5     -0.423000
     15 O8         -2.1470   -5.1620    7.2600 o         1 3T5     -0.377833
     16 C9         -0.0520    2.4860    0.0040 c3        1 3T5     -0.244000
     17 C10         0.5960    3.4860   -0.5740 c2        1 3T5     -0.348000
     18 C11         0.9160    3.4190   -2.0100 c3        1 3T5      0.331000
     19 C12         0.5470    2.2060   -2.7560 c2        1 3T5     -0.602000
     20 C13        -0.0960    1.2140   -2.1550 DU        1 3T5      0.469000
     21 C14        -0.4270   -0.0340   -2.9510 DU        1 3T5     -0.431000
     22 C15         0.0840   -1.2490   -2.1700 DU        1 3T5     -0.370000
     23 C16        -0.5050   -1.2250   -0.7790 DU        1 3T5     -0.689000
     24 C17        -0.0210   -2.4640   -0.0080 DU        1 3T5     -0.287000
     25 C18        -0.4780   -3.8110   -0.5780 DU        1 3T5     -0.656000
     26 C19        -0.3910   -4.7560    0.6520 DU        1 3T5     -0.276000
     27 C20         0.9510   -5.4920    0.6540 c3        1 3T5     -0.418000
     28 C21        -0.5030   -3.8510    1.9100 c3        1 3T5      0.008000
     29 C22        -1.6660   -4.2880    2.7650 DU        1 3T5      0.036000
     30 C23        -1.6770   -3.9760    4.2380 c3        1 3T5      0.018000
     31 H1         -1.8070   -1.3440    0.6780 hc        1 3T5      0.300333
     32 H1A        -2.4670   -3.1840    1.5810 hc        1 3T5      0.300333
     33 H1B        -1.8470   -1.3310    0.6690 hc        1 3T5      0.300333
     34 HO1        -2.4160   -0.6470    1.5060 ho        1 3T5      0.265000
     35 H3         -1.0800   -1.8410    2.1910 DU        1 3T5      0.416000
     36 H3A        -0.9230   -0.5550    2.1820 DU        1 3T5      0.270000
     37 HO3         0.3020   -3.0640    2.8290 ho        1 3T5      0.246000
     38 H4          0.2220   -0.7060    1.8280 DU        1 3T5      0.270000
     39 H8         -1.6470    0.3970   -0.1070 hc        1 3T5      0.220000
     40 H8A        -1.3880    1.1050    0.1840 DU        1 3T5      0.244000
     41 H8B        -2.3780    0.2080   -0.7220 hc        1 3T5      0.220000
     42 H9         -0.9350    2.2260   -0.5670 DU        1 3T5      0.482000
     43 H10        -0.3080    2.9420   -0.3250 DU        1 3T5      0.127000
     44 H12         0.3210    2.3060   -1.7010 DU        1 3T5      0.217000
     45 H14        -0.0550    0.7520   -2.3050 ha        1 3T5     -0.427000
     46 H14A        0.0790    0.8560   -3.3060 DU        1 3T5      0.305000
     47 H15         0.0740   -0.6170   -3.0500 DU        1 3T5      0.194500
     48 H15A       -0.7140   -0.6770   -2.6280 DU        1 3T5      0.194500
     49 H16         0.3440   -1.2170   -1.4510 DU        1 3T5      0.043000
     50 H17        -0.1020   -2.3430   -1.0810 DU        1 3T5      0.380000
     51 H18        -0.9040   -2.8200   -0.6740 DU        1 3T5      0.279500
     52 H18A        0.2900   -3.1300   -0.2290 DU        1 3T5      0.279500
     53 H19        -0.9410   -4.2570   -0.1360 DU        1 3T5      0.239000
     54 H20         0.6300   -4.9170   -0.2060 hc        1 3T5      0.088500
     55 H20A       -0.1320   -5.4810    0.6430 DU        1 3T5      0.278000
     56 H20B        1.7580   -4.7710    0.7020 hc        1 3T5      0.088500
     57 H23        -1.0170   -4.5120    3.5680 DU        1 3T5      0.205000
     58 H23A       -1.1570   -4.3790    3.3780 DU        1 3T5      0.205000
     59 O2          1.4720    4.3470   -2.5670 o         1 3T5     -0.285000
     60 O4         -2.5890   -4.8880    2.2670 o         1 3T5     -0.345000
@<TRIPOS>BOND
     1    1    9 1   
     2    2   10 1   
     3    2   11 1   
     4    2   13 1   
     5    2   15 1   
     6    3    5 1   
     7    3   31 1   
     8    3   32 1   
     9    3   33 1   
    10    4    8 1   
    11    4   34 1   
    12    5    6 1   
    13    5   24 1   
    14    5   28 1   
    15    5   35 1   
    16    6    8 1   
    17    6   35 1   
    18    6   36 1   
    19    6   38 1   
    20    7   28 1   
    21    7   37 1   
    22    8    9 1   
    23    8   36 1   
    24    8   38 1   
    25    9   12 1   
    26    9   23 1   
    27   10   30 1   
    28   12   14 1   
    29   12   16 1   
    30   12   20 1   
    31   12   40 1   
    32   12   42 1   
    33   14   39 1   
    34   14   40 1   
    35   14   41 1   
    36   16   17 1   
    37   16   42 1   
    38   16   43 1   
    39   17   18 1   
    40   17   43 1   
    41   18   19 1   
    42   18   44 1   
    43   18   59 1   
    44   19   20 1   
    45   19   44 1   
    46   20   21 1   
    47   20   44 1   
    48   20   46 1   
    49   21   22 1   
    50   21   45 1   
    51   21   46 1   
    52   21   47 1   
    53   21   48 1   
    54   22   23 1   
    55   22   47 1   
    56   22   48 1   
    57   22   49 1   
    58   23   24 1   
    59   23   49 1   
    60   23   50 1   
    61   24   25 1   
    62   24   50 1   
    63   24   51 1   
    64   24   52 1   
    65   25   26 1   
    66   25   51 1   
    67   25   52 1   
    68   25   53 1   
    69   26   27 1   
    70   26   28 1   
    71   26   53 1   
    72   26   55 1   
    73   27   54 1   
    74   27   55 1   
    75   27   56 1   
    76   28   29 1   
    77   29   30 1   
    78   29   57 1   
    79   29   58 1   
    80   29   60 1   
    81   30   57 1   
    82   30   58 1   
@<TRIPOS>SUBSTRUCTURE
     1 3T5         1 TEMP              0 ****  ****    0 ROOT
