@<TRIPOS>MOLECULE
3T7
   64    68     1     0     0
SMALL
bcc


@<TRIPOS>ATOM
      1 O01         0.0680   -2.2290    0.8250 o         1 3T7     -0.583800
      2 S02         1.2280   -1.4960    0.7620 sy        1 3T7      1.490800
      3 C03         1.7690   -0.8500    2.0840 cc        1 3T7     -0.341700
      4 N04         1.7140   -1.6000    3.2900 nd        1 3T7     -0.156000
      5 N05         2.1020   -1.0220    4.3070 nd        1 3T7     -0.285000
      6 C06         2.5430    0.3430    4.0550 cc        1 3T7      0.675300
      7 N07         2.9730    1.1730    5.0160 nh        1 3T7     -0.649300
      8 C08         3.2280    2.5810    4.7160 c3        1 3T7      0.189500
      9 C09         4.6550    2.9620    4.6510 cc        1 3T7      0.172600
     10 C10         5.3750    3.5440    3.5880 cd        1 3T7     -0.172600
     11 N11         6.6520    3.7530    4.1210 na        1 3T7      0.151300
     12 C12         7.7480    4.3440    3.4210 ca        1 3T7     -0.025200
     13 C13         9.0660    3.9150    3.6700 ca        1 3T7     -0.117000
     14 C14        10.1160    4.5070    2.9690 ca        1 3T7     -0.116000
     15 C15         9.8740    5.5090    2.0320 ca        1 3T7     -0.110000
     16 C16         8.5670    5.9340    1.7910 ca        1 3T7     -0.116000
     17 C17         7.5000    5.3650    2.4800 ca        1 3T7     -0.117000
     18 N18         6.6870    3.3190    5.4090 nd        1 3T7     -0.125800
     19 N19         5.5530    2.8600    5.7420 nc        1 3T7     -0.356000
     20 C20         3.3620    0.6600    6.3330 c3        1 3T7      0.201500
     21 C21         4.6220   -0.1190    6.3010 cc        1 3T7      0.188600
     22 C22         5.7840    0.0550    7.0750 cd        1 3T7     -0.126600
     23 N23         6.6210   -0.9900    6.6610 na        1 3T7      0.049400
     24 C24         8.0130   -1.1450    7.0690 c3        1 3T7      0.234800
     25 C25         8.4670   -2.6250    7.1850 c3        1 3T7      0.084100
     26 C26         9.9450   -2.6310    7.6160 c3        1 3T7      0.107100
     27 C27        10.7820   -1.8170    6.6140 c3        1 3T7      0.119100
     28 C28        10.1920   -0.4050    6.4600 c3        1 3T7      0.109100
     29 C29        10.8960    0.3560    5.3290 c3        1 3T7      0.136400
     30 O30        10.7700    1.7520    5.4830 oh        1 3T7     -0.600800
     31 O31         8.8160   -0.4870    6.0770 os        1 3T7     -0.414600
     32 O32        12.1030   -1.6550    7.0960 oh        1 3T7     -0.595800
     33 O33        10.4620   -3.9470    7.5880 oh        1 3T7     -0.596800
     34 O34         7.7530   -3.2840    8.2110 oh        1 3T7     -0.591800
     35 N35         6.0160   -1.6970    5.6700 nd        1 3T7     -0.157800
     36 N36         4.8590   -1.2320    5.4500 nc        1 3T7     -0.357000
     37 S37         2.3940    0.7060    2.3810 ss        1 3T7      0.015200
     38 N38         2.4940   -2.9430    0.6360 n4        1 3T7     -0.776500
     39 O39         1.5380   -0.7910   -0.3840 o         1 3T7     -0.583800
     40 H1          2.7330    2.8420    3.7330 h1        1 3T7      0.087700
     41 H2          2.7200    3.1740    5.5370 h1        1 3T7      0.087700
     42 H3          5.1020    3.8130    2.5690 h4        1 3T7      0.201000
     43 H4          9.2860    3.1240    4.4100 ha        1 3T7      0.161000
     44 H5         11.1460    4.1700    3.1670 ha        1 3T7      0.151000
     45 H6         10.7120    5.9700    1.4860 ha        1 3T7      0.150000
     46 H7          8.3730    6.7320    1.0570 ha        1 3T7      0.151000
     47 H8          6.4780    5.7250    2.2910 ha        1 3T7      0.161000
     48 H9          3.4890    1.5450    7.0230 h1        1 3T7      0.102700
     49 H10         2.5210    0.0130    6.7240 h1        1 3T7      0.102700
     50 H11         6.0590    0.7890    7.8330 h4        1 3T7      0.216000
     51 H12         8.1260   -0.6250    8.0680 h2        1 3T7      0.082700
     52 H13         8.3550   -3.1540    6.2000 h1        1 3T7      0.087700
     53 H14        10.0440   -2.2020    8.6520 h1        1 3T7      0.068700
     54 H15        10.7960   -2.3460    5.6210 h1        1 3T7      0.068700
     55 H16        10.2830    0.1570    7.4300 h1        1 3T7      0.064700
     56 H17        11.9770    0.0490    5.3140 h1        1 3T7      0.075200
     57 H18        10.4070    0.1310    4.3430 h1        1 3T7      0.075200
     58 H19        11.2610    2.0040    6.2760 ho        1 3T7      0.409000
     59 H20        12.4480   -2.5450    7.2600 ho        1 3T7      0.435000
     60 H21         9.9480   -4.4620    8.2270 ho        1 3T7      0.431000
     61 H22         6.9120   -3.5770    7.8380 ho        1 3T7      0.424000
     62 H23         2.0120   -3.8340    0.7390 hn        1 3T7      0.451800
     63 H24         3.2100   -2.8910    1.3540 hn        1 3T7      0.451800
     64 H383        2.9560   -2.9370   -0.2690 hn        1 3T7      0.451800
@<TRIPOS>BOND
     1    1    2 2   
     2    2    3 1   
     3    2   38 1   
     4    2   39 2   
     5    3    4 2   
     6    3   37 1   
     7    4    5 1   
     8    5    6 2   
     9    6    7 1   
    10    6   37 1   
    11    7    8 1   
    12    7   20 1   
    13    8    9 1   
    14    8   40 1   
    15    8   41 1   
    16    9   10 2   
    17    9   19 1   
    18   10   11 1   
    19   10   42 1   
    20   11   12 1   
    21   11   18 1   
    22   12   13 ar  
    23   12   17 ar  
    24   13   14 ar  
    25   13   43 1   
    26   14   15 ar  
    27   14   44 1   
    28   15   16 ar  
    29   15   45 1   
    30   16   17 ar  
    31   16   46 1   
    32   17   47 1   
    33   18   19 2   
    34   20   21 1   
    35   20   48 1   
    36   20   49 1   
    37   21   22 2   
    38   21   36 1   
    39   22   23 1   
    40   22   50 1   
    41   23   24 1   
    42   23   35 1   
    43   24   25 1   
    44   24   31 1   
    45   24   51 1   
    46   25   26 1   
    47   25   34 1   
    48   25   52 1   
    49   26   27 1   
    50   26   33 1   
    51   26   53 1   
    52   27   28 1   
    53   27   32 1   
    54   27   54 1   
    55   28   29 1   
    56   28   31 1   
    57   28   55 1   
    58   29   30 1   
    59   29   56 1   
    60   29   57 1   
    61   30   58 1   
    62   32   59 1   
    63   33   60 1   
    64   34   61 1   
    65   35   36 2   
    66   38   62 1   
    67   38   63 1   
    68   38   64 1   
@<TRIPOS>SUBSTRUCTURE
     1 3T7         1 TEMP              0 ****  ****    0 ROOT
