@<TRIPOS>MOLECULE
3T7
   64    68     1     0     0
SMALL
bcc


@<TRIPOS>ATOM
      1 O01         0.0490   -2.2100    0.8450 o         1 3T7     -0.583800
      2 S02         1.2110   -1.4810    0.7790 sy        1 3T7      1.490800
      3 C03         1.7570   -0.8370    2.0990 cc        1 3T7     -0.341700
      4 N04         1.7020   -1.5870    3.3060 nd        1 3T7     -0.156000
      5 N05         2.0940   -1.0100    4.3220 nd        1 3T7     -0.285000
      6 C06         2.5400    0.3540    4.0680 cc        1 3T7      0.675300
      7 N07         2.9750    1.1830    5.0290 nh        1 3T7     -0.649300
      8 C08         3.2350    2.5890    4.7270 c3        1 3T7      0.189500
      9 C09         4.6620    2.9660    4.6590 cc        1 3T7      0.172600
     10 C10         5.3830    3.5440    3.5940 cd        1 3T7     -0.172600
     11 N11         6.6610    3.7490    4.1250 na        1 3T7      0.152300
     12 C12         7.7580    4.3350    3.4220 ca        1 3T7     -0.025200
     13 C13         9.0750    3.9010    3.6680 ca        1 3T7     -0.117000
     14 C14        10.1260    4.4890    2.9660 ca        1 3T7     -0.116000
     15 C15         9.8860    5.4920    2.0300 ca        1 3T7     -0.110000
     16 C16         8.5800    5.9230    1.7910 ca        1 3T7     -0.116000
     17 C17         7.5130    5.3570    2.4820 ca        1 3T7     -0.117000
     18 N18         6.6970    3.3150    5.4130 nd        1 3T7     -0.125800
     19 N19         5.5630    2.8610    5.7490 nc        1 3T7     -0.356000
     20 C20         3.3640    0.6690    6.3440 c3        1 3T7      0.201500
     21 C21         4.6210   -0.1150    6.3110 cc        1 3T7      0.188600
     22 C22         5.7850    0.0560    7.0820 cd        1 3T7     -0.126600
     23 N23         6.6180   -0.9930    6.6670 na        1 3T7      0.049400
     24 C24         8.0100   -1.1520    7.0730 c3        1 3T7      0.234800
     25 C25         8.4590   -2.6340    7.1900 c3        1 3T7      0.084100
     26 C26         9.9370   -2.6450    7.6180 c3        1 3T7      0.107100
     27 C27        10.7750   -1.8350    6.6130 c3        1 3T7      0.119100
     28 C28        10.1910   -0.4220    6.4570 c3        1 3T7      0.109100
     29 C29        10.8950    0.3350    5.3230 c3        1 3T7      0.136400
     30 O30        10.7760    1.7320    5.4770 oh        1 3T7     -0.600800
     31 O31         8.8130   -0.4990    6.0780 os        1 3T7     -0.414600
     32 O32        12.0980   -1.6780    7.0910 oh        1 3T7     -0.595800
     33 O33        10.4490   -3.9630    7.5910 oh        1 3T7     -0.596800
     34 O34         7.7450   -3.2880    8.2190 oh        1 3T7     -0.591800
     35 N35         6.0080   -1.6980    5.6780 nd        1 3T7     -0.157800
     36 N36         4.8530   -1.2290    5.4610 nc        1 3T7     -0.357000
     37 S37         2.3880    0.7170    2.3940 ss        1 3T7      0.015200
     38 N38         2.4710   -2.9330    0.6500 nz        1 3T7     -0.776500
     39 O39         1.5210   -0.7770   -0.3680 o         1 3T7     -0.583800
     40 H1          2.7300    3.1850    5.5490 h1        1 3T7      0.087700
     41 H2          2.7390    2.8520    3.7450 h1        1 3T7      0.087700
     42 H3          5.1090    3.8140    2.5760 h4        1 3T7      0.201000
     43 H4          9.2930    3.1090    4.4080 ha        1 3T7      0.160500
     44 H5         11.1550    4.1490    3.1620 ha        1 3T7      0.151000
     45 H6         10.7240    5.9490    1.4810 ha        1 3T7      0.150000
     46 H7          8.3880    6.7210    1.0580 ha        1 3T7      0.151000
     47 H8          6.4910    5.7220    2.2950 ha        1 3T7      0.160500
     48 H9          3.4960    1.5530    7.0340 h1        1 3T7      0.102700
     49 H10         2.5210    0.0250    6.7380 h1        1 3T7      0.102700
     50 H11         6.0640    0.7890    7.8390 h4        1 3T7      0.216000
     51 H12         8.1270   -0.6300    8.0700 h2        1 3T7      0.082700
     52 H13         8.3420   -3.1640    6.2060 h1        1 3T7      0.087700
     53 H14        10.0400   -2.2140    8.6530 h1        1 3T7      0.068700
     54 H15        10.7840   -2.3670    5.6210 h1        1 3T7      0.068700
     55 H16        10.2860    0.1410    7.4260 h1        1 3T7      0.064700
     56 H17        10.4020    0.1110    4.3390 h1        1 3T7      0.075200
     57 H18        11.9740    0.0230    5.3050 h1        1 3T7      0.075200
     58 H19        11.2700    1.9820    6.2680 ho        1 3T7      0.409000
     59 H20        12.4400   -2.5680    7.2550 ho        1 3T7      0.435000
     60 H21         9.9360   -4.4740    8.2320 ho        1 3T7      0.431000
     61 H22         6.9020   -3.5790    7.8480 ho        1 3T7      0.424000
     62 H23         1.9860   -3.8220    0.7540 hn        1 3T7      0.451800
     63 H24         2.9310   -2.9280   -0.2560 hn        1 3T7      0.451800
     64 H383        3.1880   -2.8840    1.3670 hn        1 3T7      0.451800
@<TRIPOS>BOND
     1    1    2 2   
     2    2    3 1   
     3    2   38 1   
     4    2   39 2   
     5    3    4 2   
     6    3   37 1   
     7    4    5 1   
     8    5    6 2   
     9    6    7 1   
    10    6   37 1   
    11    7    8 1   
    12    7   20 1   
    13    8    9 1   
    14    8   40 1   
    15    8   41 1   
    16    9   10 2   
    17    9   19 1   
    18   10   11 1   
    19   10   42 1   
    20   11   12 1   
    21   11   18 1   
    22   12   13 ar  
    23   12   17 ar  
    24   13   14 ar  
    25   13   43 1   
    26   14   15 ar  
    27   14   44 1   
    28   15   16 ar  
    29   15   45 1   
    30   16   17 ar  
    31   16   46 1   
    32   17   47 1   
    33   18   19 2   
    34   20   21 1   
    35   20   48 1   
    36   20   49 1   
    37   21   22 2   
    38   21   36 1   
    39   22   23 1   
    40   22   50 1   
    41   23   24 1   
    42   23   35 1   
    43   24   25 1   
    44   24   31 1   
    45   24   51 1   
    46   25   26 1   
    47   25   34 1   
    48   25   52 1   
    49   26   27 1   
    50   26   33 1   
    51   26   53 1   
    52   27   28 1   
    53   27   32 1   
    54   27   54 1   
    55   28   29 1   
    56   28   31 1   
    57   28   55 1   
    58   29   30 1   
    59   29   56 1   
    60   29   57 1   
    61   30   58 1   
    62   32   59 1   
    63   33   60 1   
    64   34   61 1   
    65   35   36 2   
    66   38   62 1   
    67   38   63 1   
    68   38   64 1   
@<TRIPOS>SUBSTRUCTURE
     1 3T7         1 TEMP              0 ****  ****    0 ROOT
