@<TRIPOS>MOLECULE
3T8
   67    71     1     0     0
SMALL
bcc


@<TRIPOS>ATOM
      1 C1          6.1230   -5.3960   -0.9760 c3        1 3T8      0.079300
      2 N2          5.3600   -4.1970   -0.8490 n         1 3T8     -0.574900
      3 C3          5.4350   -3.3740    0.2570 c         1 3T8      0.669700
      4 O4          6.1800   -3.6490    1.2190 o         1 3T8     -0.601100
      5 C5          4.5990   -2.1370    0.2450 ca        1 3T8     -0.125600
      6 C6          3.3000   -2.1280   -0.2740 ca        1 3T8     -0.114000
      7 C7          2.5500   -0.9560   -0.2620 ca        1 3T8     -0.119000
      8 C8          3.0810    0.2290    0.2680 ca        1 3T8     -0.015000
      9 C9          4.3840    0.2030    0.8090 ca        1 3T8      0.111100
     10 C10         5.1430   -0.9750    0.7980 ca        1 3T8     -0.091000
     11 O11         4.8890    1.2800    1.5180 os        1 3T8     -0.333900
     12 C12         5.2950    2.4220    0.7620 c3        1 3T8      0.141400
     13 C13         4.3420    2.8860   -0.3270 c3        1 3T8     -0.046100
     14 C14         2.9170    2.7060    0.0030 cc        1 3T8     -0.113300
     15 C15         2.3320    1.4630    0.2480 cd        1 3T8     -0.066100
     16 S16         0.6940    1.6010    0.5250 ss        1 3T8      0.116200
     17 C17         0.6830    3.2670    0.3340 cd        1 3T8     -0.206700
     18 C18         1.9550    3.7530    0.0560 cc        1 3T8     -0.067000
     19 C19        -0.4740    4.1610    0.4580 c         1 3T8      0.723700
     20 O20        -0.3420    5.3990    0.5110 o         1 3T8     -0.584100
     21 N21        -1.7580    3.6080    0.5570 n         1 3T8     -0.411000
     22 C22        -2.9040    4.4720    0.6920 c3        1 3T8      0.085300
     23 C23        -2.0060    2.2330    0.3270 ca        1 3T8      0.051600
     24 C24        -1.8140    1.2990    1.3720 ca        1 3T8     -0.133000
     25 C25        -2.1180   -0.0480    1.1900 ca        1 3T8     -0.099000
     26 C26        -2.6000   -0.4990   -0.0400 ca        1 3T8     -0.121600
     27 C27        -2.7770    0.3980   -1.0950 ca        1 3T8     -0.085000
     28 C28        -2.4880    1.7540   -0.9170 ca        1 3T8      0.006400
     29 CL29       -2.7120    2.8040   -2.2300 cl        1 3T8     -0.062400
     30 C30        -2.8560   -1.9520   -0.2810 c         1 3T8      0.662700
     31 O31        -2.2180   -2.5600   -1.1640 o         1 3T8     -0.591100
     32 N32        -3.7480   -2.6240    0.5500 n         1 3T8     -0.449800
     33 C33        -4.0630   -4.0140    0.2860 c3        1 3T8      0.078500
     34 C34        -5.4970   -4.2380   -0.2380 c3        1 3T8      0.143800
     35 N35        -6.5060   -3.5590    0.5610 n3        1 3T8     -0.732600
     36 C36        -6.1960   -2.1540    0.7830 c3        1 3T8      0.143800
     37 C37        -4.7620   -1.9350    1.3140 c3        1 3T8      0.078500
     38 C38        -7.8430   -3.7550    0.0490 c3        1 3T8      0.156100
     39 H1          6.6980   -5.5920   -0.0310 h1        1 3T8      0.044367
     40 H1A         5.4390   -6.2650   -1.1760 h1        1 3T8      0.044367
     41 H1B         6.8480   -5.3080   -1.8310 h1        1 3T8      0.044367
     42 HN2         4.7950   -3.9250   -1.6160 hn        1 3T8      0.312500
     43 H6          2.8510   -3.0470   -0.6810 ha        1 3T8      0.142000
     44 H7          1.5300   -0.9560   -0.6770 ha        1 3T8      0.147000
     45 H10         6.1490   -0.9900    1.2480 ha        1 3T8      0.170000
     46 H12         5.4000    3.2070    1.5620 h1        1 3T8      0.054700
     47 H12A        6.3010    2.2060    0.3110 h1        1 3T8      0.054700
     48 H13         4.5560    3.9690   -0.5370 hc        1 3T8      0.061200
     49 H13A        4.5610    2.3120   -1.2700 hc        1 3T8      0.061200
     50 H18         2.1850    4.8110   -0.1000 ha        1 3T8      0.175000
     51 H22        -3.3710    4.6810   -0.3080 h1        1 3T8      0.052033
     52 H22A       -3.6630    3.9810    1.3560 h1        1 3T8      0.052033
     53 H22B       -2.5810    5.4450    1.1500 h1        1 3T8      0.052033
     54 H24        -1.4530    1.6430    2.3560 ha        1 3T8      0.162000
     55 H25        -1.9710   -0.7580    2.0200 ha        1 3T8      0.156000
     56 H27        -3.1290    0.0300   -2.0730 ha        1 3T8      0.167000
     57 H33        -3.3410   -4.4350   -0.4690 h1        1 3T8      0.068450
     58 H33A       -3.9350   -4.5720    1.2580 h1        1 3T8      0.068450
     59 H34        -5.5400   -3.9240   -1.3220 h1        1 3T8      0.041200
     60 H34A       -5.7090   -5.3420   -0.1900 h1        1 3T8      0.041200
     61 H36        -6.3350   -1.5400   -0.1540 h1        1 3T8      0.041200
     62 H36A       -6.9110   -1.7640    1.5600 h1        1 3T8      0.041200
     63 H37        -4.7040   -2.3220    2.3730 h1        1 3T8      0.068450
     64 H37A       -4.5650   -0.8280    1.3320 h1        1 3T8      0.068450
     65 H38        -8.0470   -4.8560   -0.0100 h1        1 3T8      0.034700
     66 H38A       -8.5740   -3.2890    0.7600 h1        1 3T8      0.034700
     67 H38B       -8.0000   -3.3070   -0.9710 h1        1 3T8      0.034700
@<TRIPOS>BOND
     1    1    2 1   
     2    1   39 1   
     3    1   40 1   
     4    1   41 1   
     5    2    3 1   
     6    2   42 1   
     7    3    4 2   
     8    3    5 1   
     9    5    6 ar  
    10    5   10 ar  
    11    6    7 ar  
    12    6   43 1   
    13    7    8 ar  
    14    7   44 1   
    15    8    9 ar  
    16    8   15 1   
    17    9   10 ar  
    18    9   11 1   
    19   10   45 1   
    20   11   12 1   
    21   12   13 1   
    22   12   46 1   
    23   12   47 1   
    24   13   14 1   
    25   13   48 1   
    26   13   49 1   
    27   14   15 2   
    28   14   18 1   
    29   15   16 1   
    30   16   17 1   
    31   17   18 2   
    32   17   19 1   
    33   18   50 1   
    34   19   20 2   
    35   19   21 1   
    36   21   22 1   
    37   21   23 1   
    38   22   51 1   
    39   22   52 1   
    40   22   53 1   
    41   23   24 ar  
    42   23   28 ar  
    43   24   25 ar  
    44   24   54 1   
    45   25   26 ar  
    46   25   55 1   
    47   26   27 ar  
    48   26   30 1   
    49   27   28 ar  
    50   27   56 1   
    51   28   29 1   
    52   30   31 2   
    53   30   32 1   
    54   32   33 1   
    55   32   37 1   
    56   33   34 1   
    57   33   57 1   
    58   33   58 1   
    59   34   35 1   
    60   34   59 1   
    61   34   60 1   
    62   35   36 1   
    63   35   38 1   
    64   36   37 1   
    65   36   61 1   
    66   36   62 1   
    67   37   63 1   
    68   37   64 1   
    69   38   65 1   
    70   38   66 1   
    71   38   67 1   
@<TRIPOS>SUBSTRUCTURE
     1 3T8         1 TEMP              0 ****  ****    0 ROOT
