@<TRIPOS>MOLECULE
3T8
   68    72     1     0     0
SMALL
bcc


@<TRIPOS>ATOM
      1 C1          0.5120    1.9300    0.2490 c3        1 3T8      0.083100
      2 N2          1.9570    1.6850    0.0620 ny        1 3T8     -0.676800
      3 C3          2.4480    0.4040    0.7430 c         1 3T8      0.576700
      4 O4          1.5670   -0.3540    1.1210 o         1 3T8     -0.428100
      5 C5          3.8930    0.2760    0.8650 ca        1 3T8     -0.216600
      6 C6          4.8040    1.0330    0.1080 ca        1 3T8     -0.098000
      7 C7          6.1680    0.8480    0.2740 ca        1 3T8     -0.115000
      8 C8          6.6670   -0.0910    1.1980 ca        1 3T8      0.073000
      9 C9          5.7460   -0.8340    1.9720 ca        1 3T8      0.114100
     10 C10         4.3660   -0.6670    1.7940 ca        1 3T8     -0.053000
     11 O11         6.1420   -1.5890    3.0540 os        1 3T8     -0.329900
     12 C12         6.8570   -2.8070    2.8190 c3        1 3T8      0.140400
     13 C13         7.9030   -2.7960    1.7210 c3        1 3T8     -0.057100
     14 C14         8.6650   -1.5410    1.6070 cc        1 3T8     -0.075300
     15 C15         8.0810   -0.3000    1.3360 cd        1 3T8     -0.143100
     16 S16         9.2330    0.8880    1.1510 ss        1 3T8      0.149200
     17 C17        10.5180   -0.1500    1.3970 cd        1 3T8     -0.175700
     18 C18        10.0860   -1.4470    1.6480 cc        1 3T8     -0.077000
     19 C19        11.9420    0.2290    1.3530 c         1 3T8      0.714700
     20 O20        12.8250   -0.4850    1.8580 o         1 3T8     -0.555100
     21 N21        12.2800    1.4410    0.7360 n         1 3T8     -0.411000
     22 C22        13.6530    1.8640    0.6390 c3        1 3T8      0.082300
     23 C23        11.3010    2.1960    0.0440 ca        1 3T8      0.047600
     24 C24        10.4870    3.1100    0.7540 ca        1 3T8     -0.132000
     25 C25         9.4660    3.8060    0.1100 ca        1 3T8     -0.098000
     26 C26         9.2290    3.6000   -1.2500 ca        1 3T8     -0.124600
     27 C27        10.0660    2.7610   -1.9900 ca        1 3T8     -0.099000
     28 C28        11.0990    2.0660   -1.3550 ca        1 3T8      0.011400
     29 Cl29       12.0730    1.0390   -2.2840 cl        1 3T8     -0.043400
     30 C30         8.0030    4.1830   -1.8780 c         1 3T8      0.681700
     31 O31         6.8900    3.6480   -1.6550 o         1 3T8     -0.655100
     32 N32         8.1110    5.3110   -2.6560 n         1 3T8     -0.449800
     33 C33         6.9570    5.8680   -3.3300 c3        1 3T8      0.086500
     34 C34         7.1900    6.1080   -4.8370 c3        1 3T8      0.151300
     35 N35         8.4290    6.8200   -5.1080 n3        1 3T8     -0.731600
     36 C36         9.5780    6.1940   -4.4730 c3        1 3T8      0.151300
     37 C37         9.3680    5.9560   -2.9610 c3        1 3T8      0.086500
     38 C38         8.6360    7.0670   -6.5170 c3        1 3T8      0.155100
     39 H1          0.2230    2.8710   -0.2890 hx        1 3T8      0.111033
     40 H1A         0.2910    2.0300    1.3460 hx        1 3T8      0.111033
     41 H1B        -0.0720    1.0590   -0.1570 hx        1 3T8      0.111033
     42 HN2         2.4980    2.4710    0.4410 hn        1 3T8      0.459300
     43 H6          4.4810    1.7690   -0.6440 ha        1 3T8      0.135000
     44 H7          6.8680    1.4550   -0.3310 ha        1 3T8      0.185000
     45 H10         3.6630   -1.2610    2.4030 ha        1 3T8      0.178000
     46 H12         6.1000   -3.6100    2.6070 h1        1 3T8      0.069200
     47 H12A        7.3320   -2.9870    3.8250 h1        1 3T8      0.069200
     48 H13         7.4000   -2.9930    0.7330 hc        1 3T8      0.072700
     49 H13A        8.6040   -3.6560    1.9110 hc        1 3T8      0.072700
     50 H18        10.7550   -2.2900    1.8470 ha        1 3T8      0.186000
     51 H22        13.7320    2.9420    0.9410 h1        1 3T8      0.059033
     52 H22A       14.2850    1.2370    1.3250 h1        1 3T8      0.059033
     53 H22B       14.0310    1.7490   -0.4130 h1        1 3T8      0.059033
     54 H24        10.6750    3.2940    1.8270 ha        1 3T8      0.168000
     55 H25         8.8350    4.5060    0.6820 ha        1 3T8      0.156000
     56 H27         9.9010    2.6310   -3.0720 ha        1 3T8      0.164000
     57 H33         6.7060    6.8500   -2.8360 h1        1 3T8      0.065200
     58 H33A        6.0790    5.1730   -3.2150 h1        1 3T8      0.065200
     59 H34         7.1490    5.1150   -5.3740 h1        1 3T8      0.044450
     60 H34A        6.3390    6.7400   -5.2150 h1        1 3T8      0.044450
     61 H36         9.8460    5.2120   -4.9620 h1        1 3T8      0.044450
     62 H36A       10.4570    6.8880   -4.5870 h1        1 3T8      0.044450
     63 H37         9.3850    6.9520   -2.4310 h1        1 3T8      0.065200
     64 H37A       10.2300    5.3380   -2.5860 h1        1 3T8      0.065200
     65 H38         7.7540    7.6350   -6.9150 h1        1 3T8      0.040700
     66 H38A        9.5560    7.6960   -6.6410 h1        1 3T8      0.040700
     67 H38B        8.7590    6.1260   -7.1200 h1        1 3T8      0.040700
     68 H221        2.1680    1.6090   -0.9400 hn        1 3T8      0.459300
@<TRIPOS>BOND
     1    1    2 1   
     2    1   39 1   
     3    1   40 1   
     4    1   41 1   
     5    2    3 1   
     6    2   42 1   
     7    2   68 1   
     8    3    4 2   
     9    3    5 1   
    10    5    6 ar  
    11    5   10 ar  
    12    6    7 ar  
    13    6   43 1   
    14    7    8 ar  
    15    7   44 1   
    16    8    9 ar  
    17    8   15 1   
    18    9   10 ar  
    19    9   11 1   
    20   10   45 1   
    21   11   12 1   
    22   12   13 1   
    23   12   46 1   
    24   12   47 1   
    25   13   14 1   
    26   13   48 1   
    27   13   49 1   
    28   14   15 2   
    29   14   18 1   
    30   15   16 1   
    31   16   17 1   
    32   17   18 2   
    33   17   19 1   
    34   18   50 1   
    35   19   20 2   
    36   19   21 1   
    37   21   22 1   
    38   21   23 1   
    39   22   51 1   
    40   22   52 1   
    41   22   53 1   
    42   23   24 ar  
    43   23   28 ar  
    44   24   25 ar  
    45   24   54 1   
    46   25   26 ar  
    47   25   55 1   
    48   26   27 ar  
    49   26   30 1   
    50   27   28 ar  
    51   27   56 1   
    52   28   29 1   
    53   30   31 2   
    54   30   32 1   
    55   32   33 1   
    56   32   37 1   
    57   33   34 1   
    58   33   57 1   
    59   33   58 1   
    60   34   35 1   
    61   34   59 1   
    62   34   60 1   
    63   35   36 1   
    64   35   38 1   
    65   36   37 1   
    66   36   61 1   
    67   36   62 1   
    68   37   63 1   
    69   37   64 1   
    70   38   65 1   
    71   38   66 1   
    72   38   67 1   
@<TRIPOS>SUBSTRUCTURE
     1 3T8         1 TEMP              0 ****  ****    0 ROOT
