@<TRIPOS>MOLECULE
3T8
   68    72     1     0     0
SMALL
bcc


@<TRIPOS>ATOM
      1 C1          0.5140    1.8880    0.2500 c3        1 3T8      0.083100
      2 N2          1.9600    1.6500    0.0610 n4        1 3T8     -0.676800
      3 C3          2.4590    0.3750    0.7470 c         1 3T8      0.576700
      4 O4          1.5830   -0.3880    1.1260 o         1 3T8     -0.428100
      5 C5          3.9050    0.2580    0.8710 ca        1 3T8     -0.216600
      6 C6          4.8120    1.0170    0.1100 ca        1 3T8     -0.098000
      7 C7          6.1760    0.8420    0.2790 ca        1 3T8     -0.115000
      8 C8          6.6810   -0.0890    1.2080 ca        1 3T8      0.073000
      9 C9          5.7640   -0.8340    1.9840 ca        1 3T8      0.114100
     10 C10         4.3830   -0.6780    1.8040 ca        1 3T8     -0.053000
     11 O11         6.1640   -1.5810    3.0710 os        1 3T8     -0.329900
     12 C12         6.8880   -2.7960    2.8420 c3        1 3T8      0.140400
     13 C13         7.9360   -2.7830    1.7460 c3        1 3T8     -0.057100
     14 C14         8.6880   -1.5230    1.6270 cc        1 3T8     -0.075300
     15 C15         8.0960   -0.2870    1.3480 cd        1 3T8     -0.143100
     16 S16         9.2400    0.9080    1.1590 ss        1 3T8      0.148200
     17 C17        10.5320   -0.1200    1.4110 cd        1 3T8     -0.175700
     18 C18        10.1090   -1.4180    1.6680 cc        1 3T8     -0.077000
     19 C19        11.9530    0.2690    1.3670 c         1 3T8      0.714700
     20 O20        12.8410   -0.4360    1.8770 o         1 3T8     -0.555100
     21 N21        12.2840    1.4800    0.7450 n         1 3T8     -0.411000
     22 C22        13.6540    1.9120    0.6470 c3        1 3T8      0.082300
     23 C23        11.3000    2.2250    0.0480 ca        1 3T8      0.047600
     24 C24        10.4790    3.1370    0.7520 ca        1 3T8     -0.132000
     25 C25         9.4530    3.8220    0.1030 ca        1 3T8     -0.098000
     26 C26         9.2200    3.6070   -1.2560 ca        1 3T8     -0.124600
     27 C27        10.0630    2.7710   -1.9900 ca        1 3T8     -0.099000
     28 C28        11.1010    2.0870   -1.3500 ca        1 3T8      0.011400
     29 CL29       12.0830    1.0620   -2.2730 cl        1 3T8     -0.043400
     30 C30         7.9900    4.1790   -1.8880 c         1 3T8      0.681700
     31 O31         6.8810    3.6370   -1.6630 o         1 3T8     -0.655100
     32 N32         8.0910    5.3030   -2.6720 n         1 3T8     -0.449800
     33 C33         6.9340    5.8480   -3.3500 c3        1 3T8      0.086500
     34 C34         7.1670    6.0810   -4.8580 c3        1 3T8      0.151300
     35 N35         8.4010    6.8010   -5.1320 n3        1 3T8     -0.731600
     36 C36         9.5540    6.1860   -4.4930 c3        1 3T8      0.151300
     37 C37         9.3440    5.9550   -2.9800 c3        1 3T8      0.086500
     38 C38         8.6070    7.0410   -6.5430 c3        1 3T8      0.155100
     39 H1          0.2190    2.8250   -0.2920 hx        1 3T8      0.111033
     40 H1A         0.2940    1.9920    1.3470 hx        1 3T8      0.111033
     41 H1B        -0.0660    1.0120   -0.1510 hx        1 3T8      0.111033
     42 HN2         2.4970    2.4410    0.4360 hn        1 3T8      0.459300
     43 H6          4.4840    1.7460   -0.6460 ha        1 3T8      0.135000
     44 H7          6.8730    1.4510   -0.3290 ha        1 3T8      0.185000
     45 H10         3.6840   -1.2730    2.4160 ha        1 3T8      0.178000
     46 H12         6.1360   -3.6050    2.6340 h1        1 3T8      0.069200
     47 H12A        7.3630   -2.9680    3.8500 h1        1 3T8      0.069200
     48 H13         7.4350   -2.9880    0.7580 hc        1 3T8      0.072700
     49 H13A        8.6420   -3.6360    1.9410 hc        1 3T8      0.072700
     50 H18        10.7840   -2.2560    1.8720 ha        1 3T8      0.186000
     51 H22        14.2890    1.2940    1.3380 h1        1 3T8      0.059033
     52 H22A       13.7240    2.9930    0.9440 h1        1 3T8      0.059033
     53 H22B       14.0340    1.7940   -0.4030 h1        1 3T8      0.059033
     54 H24        10.6640    3.3270    1.8240 ha        1 3T8      0.168000
     55 H25         8.8170    4.5200    0.6710 ha        1 3T8      0.156000
     56 H27         9.9010    2.6350   -3.0720 ha        1 3T8      0.164000
     57 H33         6.6760    6.8320   -2.8620 h1        1 3T8      0.065200
     58 H33A        6.0600    5.1480   -3.2320 h1        1 3T8      0.065200
     59 H34         6.3120    6.7050   -5.2410 h1        1 3T8      0.044450
     60 H34A        7.1330    5.0850   -5.3900 h1        1 3T8      0.044450
     61 H36        10.4280    6.8860   -4.6100 h1        1 3T8      0.044450
     62 H36A        9.8290    5.2030   -4.9760 h1        1 3T8      0.044450
     63 H37        10.2100    5.3460   -2.6000 h1        1 3T8      0.065200
     64 H37A        9.3540    6.9550   -2.4550 h1        1 3T8      0.065200
     65 H38         9.5230    7.6750   -6.6700 h1        1 3T8      0.040700
     66 H38A        8.7380    6.0970   -7.1400 h1        1 3T8      0.040700
     67 H38B        7.7220    7.6000   -6.9450 h1        1 3T8      0.040700
     68 H221        2.1690    1.5710   -0.9400 hn        1 3T8      0.459300
@<TRIPOS>BOND
     1    1    2 1   
     2    1   39 1   
     3    1   40 1   
     4    1   41 1   
     5    2    3 1   
     6    2   42 1   
     7    2   68 1   
     8    3    4 2   
     9    3    5 1   
    10    5    6 ar  
    11    5   10 ar  
    12    6    7 ar  
    13    6   43 1   
    14    7    8 ar  
    15    7   44 1   
    16    8    9 ar  
    17    8   15 1   
    18    9   10 ar  
    19    9   11 1   
    20   10   45 1   
    21   11   12 1   
    22   12   13 1   
    23   12   46 1   
    24   12   47 1   
    25   13   14 1   
    26   13   48 1   
    27   13   49 1   
    28   14   15 2   
    29   14   18 1   
    30   15   16 1   
    31   16   17 1   
    32   17   18 2   
    33   17   19 1   
    34   18   50 1   
    35   19   20 2   
    36   19   21 1   
    37   21   22 1   
    38   21   23 1   
    39   22   51 1   
    40   22   52 1   
    41   22   53 1   
    42   23   24 ar  
    43   23   28 ar  
    44   24   25 ar  
    45   24   54 1   
    46   25   26 ar  
    47   25   55 1   
    48   26   27 ar  
    49   26   30 1   
    50   27   28 ar  
    51   27   56 1   
    52   28   29 1   
    53   30   31 2   
    54   30   32 1   
    55   32   33 1   
    56   32   37 1   
    57   33   34 1   
    58   33   57 1   
    59   33   58 1   
    60   34   35 1   
    61   34   59 1   
    62   34   60 1   
    63   35   36 1   
    64   35   38 1   
    65   36   37 1   
    66   36   61 1   
    67   36   62 1   
    68   37   63 1   
    69   37   64 1   
    70   38   65 1   
    71   38   66 1   
    72   38   67 1   
@<TRIPOS>SUBSTRUCTURE
     1 3T8         1 TEMP              0 ****  ****    0 ROOT
