@<TRIPOS>MOLECULE
3T8
   69    73     1     0     0
SMALL
bcc


@<TRIPOS>ATOM
      1 C1         -0.5180   -2.0240    0.6530 c3        1 3T8      0.079100
      2 N2          0.9280   -2.2320    0.4060 n4        1 3T8     -0.672800
      3 C3          1.7530   -2.2330    1.6870 c         1 3T8      0.563700
      4 O4          1.1570   -2.5440    2.7060 o         1 3T8     -0.388100
      5 C5          3.1600   -1.8400    1.5460 ca        1 3T8     -0.175600
      6 C6          3.9100   -2.0750    0.3840 ca        1 3T8     -0.105000
      7 C7          5.2540   -1.7200    0.3410 ca        1 3T8     -0.099000
      8 C8          5.8790   -1.1190    1.4470 ca        1 3T8      0.010000
      9 C9          5.1130   -0.8780    2.6090 ca        1 3T8      0.143100
     10 C10         3.7590   -1.2470    2.6650 ca        1 3T8     -0.056000
     11 O11         5.6060   -0.1320    3.6560 os        1 3T8     -0.325900
     12 C12         6.5580   -0.7650    4.5230 c3        1 3T8      0.135400
     13 C13         7.6700   -1.5300    3.8260 c3        1 3T8     -0.065100
     14 C14         8.1080   -0.9210    2.5560 cc        1 3T8     -0.085300
     15 C15         7.2810   -0.7690    1.4340 cd        1 3T8     -0.040100
     16 S16         8.1000   -0.0910    0.1550 ss        1 3T8      0.168200
     17 C17         9.5500    0.0290    0.9870 cd        1 3T8     -0.278700
     18 C18         9.4210   -0.4560    2.2980 cc        1 3T8     -0.018000
     19 C19        10.8090    0.5920    0.5630 c         1 3T8      0.615700
     20 O20        11.7480    0.9310    1.2720 o         1 3T8     -0.420100
     21 N21        11.0180    0.7610   -0.9460 n4        1 3T8     -0.463600
     22 C22        12.4580    0.6220   -1.3030 c3        1 3T8      0.095100
     23 C23        10.4890    2.0570   -1.3940 ca        1 3T8     -0.051400
     24 C24        10.8390    3.2350   -0.7120 ca        1 3T8     -0.091000
     25 C25        10.3180    4.4580   -1.1310 ca        1 3T8     -0.080000
     26 C26         9.4540    4.5170   -2.2270 ca        1 3T8     -0.062600
     27 C27         9.1200    3.3530   -2.9270 ca        1 3T8     -0.065000
     28 C28         9.6370    2.1230   -2.5210 ca        1 3T8      0.009400
     29 CL29        9.2290    0.7180   -3.3830 cl        1 3T8     -0.051400
     30 C30         8.7580    5.7950   -2.6090 c         1 3T8      0.649700
     31 O31         7.5100    5.7920   -2.6220 o         1 3T8     -0.579100
     32 N32         9.5040    6.9330   -2.8310 n         1 3T8     -0.436800
     33 C33         8.8360    8.1710   -3.1990 c3        1 3T8      0.076000
     34 C34         9.1670    8.6530   -4.6260 c3        1 3T8      0.147800
     35 N35        10.5970    8.6590   -4.8980 n3        1 3T8     -0.732600
     36 C36        11.2230    7.3830   -4.5980 c3        1 3T8      0.147800
     37 C37        10.9130    6.8990   -3.1630 c3        1 3T8      0.076000
     38 C38        10.9170    9.1460   -6.2210 c3        1 3T8      0.154100
     39 H1         -0.6750   -1.0150    1.1210 hx        1 3T8      0.119033
     40 H1A        -1.0710   -2.0840   -0.3230 hx        1 3T8      0.119033
     41 H1B        -0.8980   -2.8160    1.3560 hx        1 3T8      0.119033
     42 HN2         1.2840   -1.4950   -0.2120 hn        1 3T8      0.461300
     43 H6          3.4700   -2.5690   -0.4960 ha        1 3T8      0.139000
     44 H7          5.8380   -1.9260   -0.5710 ha        1 3T8      0.161000
     45 H10         3.1840   -1.0570    3.5890 ha        1 3T8      0.192000
     46 H12         6.9620    0.1160    5.0980 h1        1 3T8      0.085200
     47 H12A        6.0020   -1.4500    5.2180 h1        1 3T8      0.085200
     48 H13         8.5360   -1.6060    4.5400 hc        1 3T8      0.085700
     49 H13A        7.3220   -2.5800    3.6160 hc        1 3T8      0.085700
     50 H18        10.2340   -0.4680    3.0340 ha        1 3T8      0.199000
     51 H22        12.8140   -0.3920   -0.9780 hx        1 3T8      0.111700
     52 H22A       13.0530    1.4150   -0.7750 hx        1 3T8      0.111700
     53 H22B       12.5720    0.7390   -2.4140 hx        1 3T8      0.111700
     54 H24        11.5180    3.2030    0.1590 ha        1 3T8      0.176000
     55 H25        10.5870    5.3810   -0.5860 ha        1 3T8      0.188000
     56 H27         8.4310    3.4120   -3.7900 ha        1 3T8      0.196000
     57 H33         9.1680    8.9530   -2.4570 h1        1 3T8      0.070200
     58 H33A        7.7200    8.0450   -3.1170 h1        1 3T8      0.070200
     59 H34         8.6000    8.0180   -5.3680 h1        1 3T8      0.047950
     60 H34A        8.7940    9.7110   -4.7210 h1        1 3T8      0.047950
     61 H36        12.3380    7.5160   -4.6780 h1        1 3T8      0.047950
     62 H36A       10.9160    6.5770   -5.3280 h1        1 3T8      0.047950
     63 H37        11.4440    7.5720   -2.4300 h1        1 3T8      0.070200
     64 H37A       11.3230    5.8580   -3.0530 h1        1 3T8      0.070200
     65 H38        10.5240    8.4870   -7.0430 h1        1 3T8      0.043700
     66 H38A       12.0320    9.2170   -6.3180 h1        1 3T8      0.043700
     67 H38B       10.4790   10.1710   -6.3410 h1        1 3T8      0.043700
     68 H221        1.0650   -3.1380   -0.0600 hn        1 3T8      0.461300
     69 H211       10.4930    0.0130   -1.4270 hn        1 3T8      0.456800
@<TRIPOS>BOND
     1    1    2 1   
     2    1   39 1   
     3    1   40 1   
     4    1   41 1   
     5    2    3 1   
     6    2   42 1   
     7    2   68 1   
     8    3    4 2   
     9    3    5 1   
    10    5    6 ar  
    11    5   10 ar  
    12    6    7 ar  
    13    6   43 1   
    14    7    8 ar  
    15    7   44 1   
    16    8    9 ar  
    17    8   15 1   
    18    9   10 ar  
    19    9   11 1   
    20   10   45 1   
    21   11   12 1   
    22   12   13 1   
    23   12   46 1   
    24   12   47 1   
    25   13   14 1   
    26   13   48 1   
    27   13   49 1   
    28   14   15 2   
    29   14   18 1   
    30   15   16 1   
    31   16   17 1   
    32   17   18 2   
    33   17   19 1   
    34   18   50 1   
    35   19   20 2   
    36   19   21 1   
    37   21   22 1   
    38   21   23 1   
    39   21   69 1   
    40   22   51 1   
    41   22   52 1   
    42   22   53 1   
    43   23   24 ar  
    44   23   28 ar  
    45   24   25 ar  
    46   24   54 1   
    47   25   26 ar  
    48   25   55 1   
    49   26   27 ar  
    50   26   30 1   
    51   27   28 ar  
    52   27   56 1   
    53   28   29 1   
    54   30   31 2   
    55   30   32 1   
    56   32   33 1   
    57   32   37 1   
    58   33   34 1   
    59   33   57 1   
    60   33   58 1   
    61   34   35 1   
    62   34   59 1   
    63   34   60 1   
    64   35   36 1   
    65   35   38 1   
    66   36   37 1   
    67   36   61 1   
    68   36   62 1   
    69   37   63 1   
    70   37   64 1   
    71   38   65 1   
    72   38   66 1   
    73   38   67 1   
@<TRIPOS>SUBSTRUCTURE
     1 3T8         1 TEMP              0 ****  ****    0 ROOT
