@<TRIPOS>MOLECULE
3T8
   67    65     1     0     0
SMALL
bcc


@<TRIPOS>ATOM
      1 C1         -7.8420   -2.6880    4.7970 c3        1 3T8     -0.076000
      2 N2         -6.5280   -2.2900    5.2150 n         1 3T8     -0.383000
      3 C3         -5.4910   -2.1090    4.2430 c2        1 3T8      0.344000
      4 O4         -5.6820   -2.4270    3.0820 o         1 3T8     -0.362000
      5 C5         -4.1300   -1.5520    4.6700 c2        1 3T8     -0.094000
      6 C6         -3.9080   -0.7180    3.5670 c1        1 3T8     -0.095000
      7 C7         -2.7050   -0.7990    2.8620 c1        1 3T8     -0.124000
      8 C8         -1.7130   -1.7200    3.2610 c1        1 3T8     -0.031000
      9 C9         -1.9330   -2.5450    4.3520 c1        1 3T8      0.082000
     10 C10        -3.1510   -2.4630    5.0650 c2        1 3T8     -0.123000
     11 O11        -1.7260   -3.9250    4.0050 os        1 3T8     -0.214000
     12 C12        -0.4820   -4.3770    4.4620 c3        1 3T8     -0.018000
     13 C13         0.6390   -3.5810    3.8420 c3        1 3T8     -0.136000
     14 C14         0.4770   -2.0860    4.1400 c2        1 3T8     -0.095000
     15 C15        -0.3100   -1.4300    3.1060 c2        1 3T8     -0.324000
     16 S16         0.5620   -0.2810    2.4950 ss        1 3T8      0.668000
     17 C17         1.9380   -0.2880    3.2350 c1        1 3T8     -0.437000
     18 C18         1.9090   -1.3590    4.2240 c1        1 3T8     -0.125000
     19 C19         1.8770   -0.0770    1.7210 c1        1 3T8      0.385000
     20 O20         0.8010   -0.0730    1.1500 o         1 3T8     -0.337000
     21 N21         3.0900    0.1050    0.9700 n3        1 3T8     -0.296000
     22 C22         4.3660    0.0420    1.6360 c3        1 3T8     -0.068000
     23 C23         3.0320    0.2920   -0.4560 c2        1 3T8      0.081000
     24 C24         3.1030   -0.8110   -1.3030 c2        1 3T8     -0.118000
     25 C25         2.8950   -0.6540   -2.6710 c1        1 3T8     -0.094000
     26 C26         2.6160    0.6060   -3.1930 c1        1 3T8     -0.106000
     27 C27         2.5450    1.7100   -2.3460 c1        1 3T8     -0.081000
     28 C28         2.7530    1.5520   -0.9780 c1        1 3T8     -0.075000
     29 CL29        2.6530    2.9350    0.0850 cl        1 3T8     -0.002000
     30 C30         2.4790    0.7960   -4.7260 c2        1 3T8      0.337000
     31 O31         2.6160   -0.1590   -5.4720 o         1 3T8     -0.353000
     32 N32         2.2780    2.1280   -5.2810 n         1 3T8     -0.309000
     33 C33         2.2570    2.2320   -6.5650 c3        1 3T8     -0.038500
     34 C34         1.1990    3.2240   -7.0290 c3        1 3T8     -0.094000
     35 N35         0.1160    3.4970   -5.9610 n3        1 3T8     -0.258000
     36 C36         1.0810    4.0890   -4.9110 c3        1 3T8     -0.094000
     37 C37         2.1400    3.0960   -4.4460 c3        1 3T8     -0.038500
     38 C38        -0.7740    4.5290   -6.4320 c3        1 3T8     -0.119000
     39 H1         -8.2430   -1.9740    4.2530 h1        1 3T8      0.085000
     40 H1A        -8.4030   -2.8510    5.5880 h1        1 3T8      0.085000
     41 H1B        -7.7810   -3.5110    4.2640 h1        1 3T8      0.085000
     42 HN2        -6.3450   -2.1810    6.1070 hn        1 3T8      0.226000
     43 H6         -4.5810   -0.0490    3.3140 ha        1 3T8      0.162000
     44 H7         -2.5490   -0.2150    2.0890 ha        1 3T8      0.139000
     45 H10        -3.3000   -3.0330    5.8510 ha        1 3T8      0.153000
     46 H12        -0.4430   -4.2830    5.4400 h1        1 3T8      0.102000
     47 H12A       -0.3750   -5.3260    4.2240 h1        1 3T8      0.102000
     48 H13         1.4970   -3.8920    4.2080 hc        1 3T8      0.110000
     49 H13A        0.6340   -3.7190    2.8700 hc        1 3T8      0.110000
     50 H18         2.6390   -1.5960    4.8360 DU        1 3T8      0.159000
     51 H22         4.4470   -0.8170    2.1070 h1        1 3T8      0.087000
     52 H22A        4.4340    0.7790    2.2840 h1        1 3T8      0.087000
     53 H22B        5.0870    0.1220    0.9730 h1        1 3T8      0.087000
     54 H24         3.3000   -1.7000   -0.9360 ha        1 3T8      0.155000
     55 H25         2.9450   -1.4320   -3.2680 ha        1 3T8      0.152000
     56 H27         2.3500    2.5890   -2.7090 ha        1 3T8      0.164000
     57 H33         2.0620    1.3500   -6.9560 h1        1 3T8      0.108000
     58 H33A        3.1410    2.5340   -6.8780 h1        1 3T8      0.108000
     59 H34         1.6410    4.0740   -7.2560 h1        1 3T8      0.080000
     60 H34A        0.7640    2.8680   -7.8370 h1        1 3T8      0.080000
     61 H36         0.5570    4.3810   -4.1310 h1        1 3T8      0.080000
     62 H36A        1.5310    4.8720   -5.3010 h1        1 3T8      0.080000
     63 H37         1.8780    2.7340   -3.5820 h1        1 3T8      0.108000
     64 H37A        3.0010    3.5650   -4.3510 h1        1 3T8      0.108000
     65 H38        -1.3860    4.1520   -7.1050 h1        1 3T8      0.073333
     66 H38A       -1.2950    4.8820   -5.6770 h1        1 3T8      0.073333
     67 H38B       -0.2490    5.2550   -6.8380 h1        1 3T8      0.073333
@<TRIPOS>BOND
     1    1    2 1   
     2    1   39 1   
     3    1   40 1   
     4    1   41 1   
     5    2    3 1   
     6    2   42 1   
     7    3    4 1   
     8    3    5 1   
     9    5    6 1   
    10    5   10 1   
    11    6   43 1   
    12    7    8 1   
    13    7   44 1   
    14    8   15 1   
    15    9   10 1   
    16    9   11 1   
    17   10   45 1   
    18   11   12 1   
    19   12   13 1   
    20   12   46 1   
    21   12   47 1   
    22   13   14 1   
    23   13   48 1   
    24   13   49 1   
    25   14   15 1   
    26   14   18 1   
    27   15   16 1   
    28   16   17 1   
    29   17   18 1   
    30   19   20 1   
    31   19   21 1   
    32   21   22 1   
    33   21   23 1   
    34   22   51 1   
    35   22   52 1   
    36   22   53 1   
    37   23   24 1   
    38   23   28 1   
    39   24   25 1   
    40   24   54 1   
    41   25   55 1   
    42   26   27 1   
    43   26   30 1   
    44   27   56 1   
    45   28   29 1   
    46   30   31 1   
    47   30   32 1   
    48   32   33 1   
    49   32   37 1   
    50   33   34 1   
    51   33   57 1   
    52   33   58 1   
    53   34   35 1   
    54   34   59 1   
    55   34   60 1   
    56   35   36 1   
    57   35   38 1   
    58   36   37 1   
    59   36   61 1   
    60   36   62 1   
    61   37   63 1   
    62   37   64 1   
    63   38   65 1   
    64   38   66 1   
    65   38   67 1   
@<TRIPOS>SUBSTRUCTURE
     1 3T8         1 TEMP              0 ****  ****    0 ROOT
