@<TRIPOS>MOLECULE
3T9
   39    42     1     0     0
SMALL
bcc


@<TRIPOS>ATOM
      1 N1          0.2250    0.7970   -0.0020 na        1 3T9      0.060800
      2 C2          1.9310    0.1980    1.3130 ca        1 3T9     -0.225300
      3 C3          0.7460    0.6140    2.0900 ca        1 3T9      0.280300
      4 C4          1.5430    0.3340   -0.0420 cc        1 3T9     -0.039300
      5 N5         -0.2710    0.9680    1.2130 nc        1 3T9     -0.243400
      6 N6          0.7210    0.6290    3.4740 nb        1 3T9     -0.620000
      7 C7          1.8430    0.2480    4.0780 cp        1 3T9      0.490800
      8 C8          3.0890   -0.1930    2.0180 ca        1 3T9     -0.041000
      9 C9          1.8920    0.2380    5.5540 cp        1 3T9     -0.159500
     10 C10         0.7990   -0.2390    6.2910 ca        1 3T9     -0.116000
     11 C11         0.8650   -0.2520    7.6840 ca        1 3T9      0.031100
     12 C12         2.0200    0.2180    8.3510 ca        1 3T9      0.123100
     13 C13         2.2770    0.0720   -1.2630 ca        1 3T9     -0.037800
     14 C14         3.0460   -0.1700    3.3850 ca        1 3T9     -0.255300
     15 C15         3.0330    0.7080    6.2150 ca        1 3T9     -0.106000
     16 C16         3.1040    0.6990    7.6050 ca        1 3T9     -0.146000
     17 O17        -0.1370   -0.7300    8.5150 os        1 3T9     -0.350900
     18 O18         2.1430    0.2190    9.7180 oh        1 3T9     -0.494100
     19 C19         2.0930    0.8700   -2.4020 ca        1 3T9     -0.114500
     20 C20         3.1910   -0.9920   -1.3080 ca        1 3T9     -0.114500
     21 C21        -1.4250   -0.8520    7.9200 c3        1 3T9      0.119700
     22 C22         3.9070   -1.2500   -2.4740 ca        1 3T9     -0.126500
     23 C23         2.8120    0.6050   -3.5650 ca        1 3T9     -0.126500
     24 C24         3.7190   -0.4540   -3.6040 ca        1 3T9     -0.119000
     25 H8          3.9910   -0.5030    1.4690 ha        1 3T9      0.139000
     26 H10        -0.1030   -0.5940    5.7710 ha        1 3T9      0.157000
     27 H14         3.9130   -0.4750    3.9880 ha        1 3T9      0.147000
     28 H15         3.8820    1.1010    5.6350 ha        1 3T9      0.139000
     29 H16         3.9950    1.0680    8.1310 ha        1 3T9      0.154000
     30 HO18        1.3050   -0.0900   10.0960 ho        1 3T9      0.438000
     31 H19         1.3940    1.7190   -2.3790 ha        1 3T9      0.137000
     32 H20         3.3340   -1.6240   -0.4180 ha        1 3T9      0.137000
     33 H21        -1.7240    0.0980    7.4150 h1        1 3T9      0.047700
     34 H21A       -1.4330   -1.7010    7.1940 h1        1 3T9      0.047700
     35 H21B       -2.0950   -1.0710    8.7890 h1        1 3T9      0.047700
     36 H22         4.6220   -2.0860   -2.5020 ha        1 3T9      0.137500
     37 H23         2.6650    1.2360   -4.4540 ha        1 3T9      0.137500
     38 H24         4.2850   -0.6610   -4.5240 ha        1 3T9      0.137000
     39 HN1        -0.3440    0.9890   -0.7980 hn        1 3T9      0.327700
@<TRIPOS>BOND
     1    1    4 1   
     2    1    5 1   
     3    1   39 1   
     4    2    3 ar  
     5    2    4 2   
     6    2    8 ar  
     7    3    5 2   
     8    3    6 ar  
     9    4   13 1   
    10    6    7 ar  
    11    7    9 1   
    12    7   14 ar  
    13    8   14 ar  
    14    8   25 1   
    15    9   10 ar  
    16    9   15 ar  
    17   10   11 ar  
    18   10   26 1   
    19   11   12 ar  
    20   11   17 1   
    21   12   16 ar  
    22   12   18 1   
    23   13   19 ar  
    24   13   20 ar  
    25   14   27 1   
    26   15   16 ar  
    27   15   28 1   
    28   16   29 1   
    29   17   21 1   
    30   18   30 1   
    31   19   23 ar  
    32   19   31 1   
    33   20   22 ar  
    34   20   32 1   
    35   21   33 1   
    36   21   34 1   
    37   21   35 1   
    38   22   24 ar  
    39   22   36 1   
    40   23   24 ar  
    41   23   37 1   
    42   24   38 1   
@<TRIPOS>SUBSTRUCTURE
     1 3T9         1 TEMP              0 ****  ****    0 ROOT
