@<TRIPOS>MOLECULE
3T9
   39    42     1     0     0
SMALL
bcc


@<TRIPOS>ATOM
      1 N1          2.8380    1.9450    0.7170 na        1 3T9      0.060800
      2 C2          1.7870    0.0460    0.1780 ca        1 3T9     -0.225300
      3 C3          0.8440    1.1180    0.5560 ca        1 3T9      0.280300
      4 C4          3.0710    0.6330    0.2980 cc        1 3T9     -0.039300
      5 N5          1.5630    2.2640    0.8750 nc        1 3T9     -0.243400
      6 N6         -0.5280    0.9420    0.5730 nb        1 3T9     -0.620000
      7 C7         -0.9610   -0.2680    0.2300 cp        1 3T9      0.490800
      8 C8          1.2600   -1.2130   -0.1740 ca        1 3T9     -0.041000
      9 C9         -2.4140   -0.5320    0.2240 cp        1 3T9     -0.159500
     10 C10        -3.3010    0.4250   -0.2870 ca        1 3T9     -0.116000
     11 C11        -4.6700    0.1570   -0.2940 ca        1 3T9      0.031100
     12 C12        -5.1620   -1.0670    0.2140 ca        1 3T9      0.123100
     13 C13         4.3870    0.0770    0.0570 ca        1 3T9     -0.037800
     14 C14        -0.0990   -1.3700   -0.1500 ca        1 3T9     -0.255300
     15 C15        -2.9030   -1.7410    0.7320 ca        1 3T9     -0.106000
     16 C16        -4.2680   -2.0140    0.7280 ca        1 3T9     -0.146000
     17 O17        -5.6370    1.0100   -0.8040 os        1 3T9     -0.350900
     18 O18        -6.4970   -1.3890    0.2210 oh        1 3T9     -0.494100
     19 C19         5.4840    0.4510    0.8470 ca        1 3T9     -0.114500
     20 C20         4.5670   -0.8550   -0.9760 ca        1 3T9     -0.114500
     21 C21        -5.2350    2.3670   -0.9690 c3        1 3T9      0.119700
     22 C22         5.8260   -1.4010   -1.2130 ca        1 3T9     -0.126500
     23 C23         6.7410   -0.0990    0.6030 ca        1 3T9     -0.126500
     24 C24         6.9150   -1.0240   -0.4260 ca        1 3T9     -0.119000
     25 H8          1.9350   -2.0350   -0.4560 ha        1 3T9      0.139000
     26 H10        -2.9180    1.3820   -0.6720 ha        1 3T9      0.157000
     27 H14        -0.5680   -2.3250   -0.4260 ha        1 3T9      0.147000
     28 H15        -2.2070   -2.4830    1.1520 ha        1 3T9      0.139000
     29 H16        -4.6590   -2.9610    1.1270 ha        1 3T9      0.154000
     30 HO18       -6.9920   -0.6250   -0.1140 ho        1 3T9      0.438000
     31 H19         5.3570    1.1670    1.6730 ha        1 3T9      0.137000
     32 H20         3.7090   -1.1470   -1.6010 ha        1 3T9      0.137000
     33 H21        -4.5160    2.4530   -1.8190 h1        1 3T9      0.047700
     34 H21A       -6.1920    2.8960   -1.2080 h1        1 3T9      0.047700
     35 H21B       -4.7820    2.7670   -0.0300 h1        1 3T9      0.047700
     36 H22         5.9610   -2.1310   -2.0250 ha        1 3T9      0.137500
     37 H23         7.5970    0.1970    1.2270 ha        1 3T9      0.137500
     38 H24         7.9080   -1.4570   -0.6160 ha        1 3T9      0.137000
     39 HN1         3.5410    2.6300    0.8890 hn        1 3T9      0.327700
@<TRIPOS>BOND
     1    1    4 1   
     2    1    5 1   
     3    1   39 1   
     4    2    3 ar  
     5    2    4 2   
     6    2    8 ar  
     7    3    5 2   
     8    3    6 ar  
     9    4   13 1   
    10    6    7 ar  
    11    7    9 1   
    12    7   14 ar  
    13    8   14 ar  
    14    8   25 1   
    15    9   10 ar  
    16    9   15 ar  
    17   10   11 ar  
    18   10   26 1   
    19   11   12 ar  
    20   11   17 1   
    21   12   16 ar  
    22   12   18 1   
    23   13   19 ar  
    24   13   20 ar  
    25   14   27 1   
    26   15   16 ar  
    27   15   28 1   
    28   16   29 1   
    29   17   21 1   
    30   18   30 1   
    31   19   23 ar  
    32   19   31 1   
    33   20   22 ar  
    34   20   32 1   
    35   21   33 1   
    36   21   34 1   
    37   21   35 1   
    38   22   24 ar  
    39   22   36 1   
    40   23   24 ar  
    41   23   37 1   
    42   24   38 1   
@<TRIPOS>SUBSTRUCTURE
     1 3T9         1 TEMP              0 ****  ****    0 ROOT
