@<TRIPOS>MOLECULE
3T9
   39    42     1     0     0
SMALL
bcc


@<TRIPOS>ATOM
      1 N1          0.2250    0.7740   -0.0080 na        1 3T9      0.060800
      2 C2          1.9330    0.1950    1.3130 ca        1 3T9     -0.225300
      3 C3          0.7430    0.6030    2.0860 ca        1 3T9      0.280300
      4 C4          1.5460    0.3230   -0.0440 cc        1 3T9     -0.039300
      5 N5         -0.2750    0.9460    1.2050 nc        1 3T9     -0.243400
      6 N6          0.7150    0.6220    3.4700 nb        1 3T9     -0.620000
      7 C7          1.8390    0.2520    4.0770 cp        1 3T9      0.490800
      8 C8          3.0920   -0.1850    2.0210 ca        1 3T9     -0.041000
      9 C9          1.8840    0.2470    5.5540 cp        1 3T9     -0.159500
     10 C10         0.7940   -0.2370    6.2900 ca        1 3T9     -0.116000
     11 C11         0.8560   -0.2450    7.6830 ca        1 3T9      0.031100
     12 C12         2.0060    0.2360    8.3510 ca        1 3T9      0.123100
     13 C13         2.2850    0.0630   -1.2620 ca        1 3T9     -0.037800
     14 C14         3.0470   -0.1580    3.3880 ca        1 3T9     -0.255300
     15 C15         3.0200    0.7280    6.2160 ca        1 3T9     -0.106000
     16 C16         3.0880    0.7240    7.6060 ca        1 3T9     -0.146000
     17 O17        -0.1430   -0.7300    8.5130 os        1 3T9     -0.350900
     18 O18         2.1270    0.2420    9.7180 oh        1 3T9     -0.494100
     19 C19         2.0970    0.8560   -2.4040 ca        1 3T9     -0.114500
     20 C20         3.2080   -0.9940   -1.3010 ca        1 3T9     -0.114500
     21 C21        -1.4280   -0.8630    7.9150 c3        1 3T9      0.119700
     22 C22         3.9290   -1.2490   -2.4660 ca        1 3T9     -0.126500
     23 C23         2.8210    0.5930   -3.5650 ca        1 3T9     -0.126500
     24 C24         3.7360   -0.4590   -3.5990 ca        1 3T9     -0.119000
     25 H8          3.9980   -0.4890    1.4750 ha        1 3T9      0.139000
     26 H10        -0.1040   -0.6010    5.7690 ha        1 3T9      0.157000
     27 H14         3.9150   -0.4540    3.9940 ha        1 3T9      0.147000
     28 H15         3.8670    1.1260    5.6360 ha        1 3T9      0.139000
     29 H16         3.9750    1.1020    8.1330 ha        1 3T9      0.154000
     30 HO18        1.2900   -0.0720   10.0950 ho        1 3T9      0.438000
     31 H19         1.3910    1.6990   -2.3850 ha        1 3T9      0.137000
     32 H20         3.3550   -1.6210   -0.4090 ha        1 3T9      0.137000
     33 H21        -1.7340    0.0830    7.4070 h1        1 3T9      0.047700
     34 H21A       -1.4280   -1.7140    7.1920 h1        1 3T9      0.047700
     35 H21B       -2.0990   -1.0850    8.7840 h1        1 3T9      0.047700
     36 H22         4.6510   -2.0790   -2.4900 ha        1 3T9      0.137500
     37 H23         2.6700    1.2200   -4.4560 ha        1 3T9      0.137500
     38 H24         4.3060   -0.6640   -4.5170 ha        1 3T9      0.137000
     39 HN1        -0.3440    0.9590   -0.8050 hn        1 3T9      0.327700
@<TRIPOS>BOND
     1    1    4 1   
     2    1    5 1   
     3    1   39 1   
     4    2    3 ar  
     5    2    4 2   
     6    2    8 ar  
     7    3    5 2   
     8    3    6 ar  
     9    4   13 1   
    10    6    7 ar  
    11    7    9 1   
    12    7   14 ar  
    13    8   14 ar  
    14    8   25 1   
    15    9   10 ar  
    16    9   15 ar  
    17   10   11 ar  
    18   10   26 1   
    19   11   12 ar  
    20   11   17 1   
    21   12   16 ar  
    22   12   18 1   
    23   13   19 ar  
    24   13   20 ar  
    25   14   27 1   
    26   15   16 ar  
    27   15   28 1   
    28   16   29 1   
    29   17   21 1   
    30   18   30 1   
    31   19   23 ar  
    32   19   31 1   
    33   20   22 ar  
    34   20   32 1   
    35   21   33 1   
    36   21   34 1   
    37   21   35 1   
    38   22   24 ar  
    39   22   36 1   
    40   23   24 ar  
    41   23   37 1   
    42   24   38 1   
@<TRIPOS>SUBSTRUCTURE
     1 3T9         1 TEMP              0 ****  ****    0 ROOT
