@<TRIPOS>MOLECULE
3T9
   39    31     1     0     0
SMALL
bcc


@<TRIPOS>ATOM
      1 N1         -2.4090    1.2860   -2.8230 n2        1 3T9     -0.095000
      2 C2         -0.5410    1.2330   -1.6410 c1        1 3T9     -0.104000
      3 C3         -1.5730    1.3750   -0.7730 c1        1 3T9     -0.104000
      4 C4         -1.0630    1.1780   -2.9170 c1        1 3T9     -0.025000
      5 N5         -2.7320    1.4080   -1.5000 n1        1 3T9     -0.060000
      6 N6         -1.3340    1.3470    0.6110 n1        1 3T9     -0.085000
      7 C7         -0.0730    1.1780    1.0770 c1        1 3T9      0.053000
      8 C8          0.7520    1.0610   -1.1640 c1        1 3T9     -0.041000
      9 C9          0.1360    0.2820    2.2690 c1        1 3T9     -0.064000
     10 C10         0.1610    0.8300    3.5700 c1        1 3T9     -0.070000
     11 C11         0.3230   -0.0050    4.6770 c1        1 3T9      0.023000
     12 C12         0.4590   -1.3690    4.5010 c1        1 3T9      0.060000
     13 C13        -0.6820    0.5090   -4.2300 c1        1 3T9     -0.025000
     14 C14         0.9860    1.0330    0.1830 c2        1 3T9     -0.192000
     15 C15         0.2710   -1.0750    2.0920 c2        1 3T9     -0.088000
     16 C16         0.4340   -1.9160    3.2030 c2        1 3T9     -0.206000
     17 O17         0.3110    0.5420    5.9770 os        1 3T9     -0.209000
     18 O18        -0.0480   -2.3250    5.4700 o         1 3T9     -0.246000
     19 C19        -1.0090   -0.8050   -4.0140 c2        1 3T9     -0.107000
     20 C20        -0.0180    0.8790   -5.3900 c1        1 3T9     -0.124000
     21 C21         1.6020    0.6260    6.5990 c3        1 3T9     -0.076000
     22 C22         0.3170   -0.0810   -6.3350 c1        1 3T9     -0.122500
     23 C23        -0.6750   -1.7680   -4.9570 c1        1 3T9     -0.127000
     24 C24        -0.0090   -1.4000   -6.1210 c1        1 3T9     -0.122500
     25 H8          1.4960    0.9610   -1.7950 ha        1 3T9      0.139000
     26 H10         0.0580    1.8350    3.7020 ha        1 3T9      0.169000
     27 H14         1.9230    0.9070    0.5290 ha        1 3T9      0.145000
     28 H15         0.2550   -1.4560    1.1860 ha        1 3T9      0.138000
     29 H16         0.5280   -2.8720    3.0790 ha        1 3T9      0.136000
     30 HO18        0.6350   -2.9120    5.7180 ho        1 3T9      0.219000
     31 H19        -1.4930   -1.0720   -3.1690 ha        1 3T9      0.142000
     32 H20         0.2080    1.7950   -5.5390 ha        1 3T9      0.131000
     33 H21         2.2150   -0.0320    6.1850 h1        1 3T9      0.083333
     34 H21A        1.9610    1.5220    6.4810 h1        1 3T9      0.083333
     35 H21B        1.5100    0.4300    7.5740 h1        1 3T9      0.083333
     36 H22         0.8100    0.1940   -7.1930 ha        1 3T9      0.137000
     37 H23        -0.8950   -2.6540   -4.8100 ha        1 3T9      0.138000
     38 H24         0.2170   -2.0470   -6.7580 ha        1 3T9      0.137000
     39 HN1        -3.0130    1.3770   -3.5530 DU        1 3T9      0.278000
@<TRIPOS>BOND
     1    1    4 1   
     2    1    5 1   
     3    2    3 1   
     4    6    7 1   
     5    7   14 1   
     6    8   14 1   
     7    8   25 1   
     8    9   10 1   
     9    9   15 1   
    10   10   26 1   
    11   11   12 1   
    12   11   17 1   
    13   12   16 1   
    14   13   19 1   
    15   13   20 1   
    16   14   27 1   
    17   15   16 1   
    18   15   28 1   
    19   16   29 1   
    20   17   21 1   
    21   18   30 1   
    22   19   23 1   
    23   19   31 1   
    24   20   32 1   
    25   21   33 1   
    26   21   34 1   
    27   21   35 1   
    28   22   24 1   
    29   22   36 1   
    30   23   37 1   
    31   24   38 1   
@<TRIPOS>SUBSTRUCTURE
     1 3T9         1 TEMP              0 ****  ****    0 ROOT
