@<TRIPOS>MOLECULE
3TA
   56    59     1     0     0
SMALL
bcc


@<TRIPOS>ATOM
      1 C1          1.8410    0.6710    1.3390 ca        1 3TA     -0.363900
      2 CL1         7.8450   -1.1550   -1.4020 cl        1 3TA     -0.076400
      3 C2          0.4750    0.7400    1.6890 ca        1 3TA      0.480200
      4 N3         -0.4700   -0.0340    1.1470 nb        1 3TA     -0.725000
      5 C4         -0.0400   -0.9360    0.1770 ca        1 3TA      0.876900
      6 N5          1.2820   -1.0990   -0.2150 nb        1 3TA     -0.748000
      7 C6          2.2000   -0.2890    0.3640 cp        1 3TA      0.541800
      8 C7          4.4630    0.6490   -0.2770 ca        1 3TA      0.070600
      9 C8          3.6120   -0.4560   -0.0350 cp        1 3TA     -0.167500
     10 N9          4.0530    1.9910   -0.1500 n         1 3TA     -0.400100
     11 C10         3.3780    2.5330    0.9150 c         1 3TA      0.414400
     12 C11         2.8370    1.5750    1.9520 c3        1 3TA     -0.070100
     13 C12         5.4170   -1.9850   -0.6180 ca        1 3TA     -0.143000
     14 C13         6.2500   -0.8930   -0.8800 ca        1 3TA      0.049400
     15 C14         5.7900    0.4100   -0.7130 ca        1 3TA     -0.165000
     16 C15         4.1110   -1.7560   -0.2040 ca        1 3TA     -0.063000
     17 S16         3.1470    4.0900    1.0650 s         1 3TA     -0.443400
     18 N18        -0.9900   -1.7100   -0.5180 nh        1 3TA     -0.701300
     19 C19        -2.2870   -1.9320   -0.0040 ca        1 3TA      0.009300
     20 C20        -3.1810   -0.8610    0.1920 ca        1 3TA     -0.066000
     21 C21        -4.4800   -1.1220    0.6360 ca        1 3TA     -0.185600
     22 C22        -4.8440   -2.4640    0.8650 ca        1 3TA      0.394200
     23 N23        -4.0190   -3.5040    0.6750 nb        1 3TA     -0.656000
     24 C24        -2.7570   -3.2620    0.2510 ca        1 3TA      0.383600
     25 C25        -5.4450   -0.0170    0.8680 c3        1 3TA     -0.034100
     26 C26        -5.9430    0.5740   -0.4380 c3        1 3TA     -0.080400
     27 C27        -6.9450    1.6900   -0.1490 c3        1 3TA      0.170800
     28 N28        -7.3150    2.4750   -1.3190 n3        1 3TA     -0.737600
     29 C29        -7.9340    1.6950   -2.3660 c3        1 3TA      0.156600
     30 C30        -8.0830    3.6480   -0.9650 c3        1 3TA      0.156600
     31 C31        -1.8430   -4.4260    0.0350 c3        1 3TA     -0.155400
     32 H2          0.1230    1.4600    2.4530 h4        1 3TA      0.038100
     33 HN9         4.4640    2.6380   -0.7960 hn        1 3TA      0.341500
     34 H11         2.3730    2.1750    2.7810 hc        1 3TA      0.086700
     35 H11A        3.6820    0.9770    2.3970 hc        1 3TA      0.086700
     36 H12         5.7870   -3.0140   -0.7430 ha        1 3TA      0.157000
     37 H14         6.4650    1.2560   -0.9220 ha        1 3TA      0.157000
     38 H15         3.4510   -2.6190   -0.0120 ha        1 3TA      0.158000
     39 HN18       -0.6110   -2.4770   -1.0380 hn        1 3TA      0.444800
     40 H20        -2.8710    0.1790    0.0010 ha        1 3TA      0.162000
     41 H22        -5.8580   -2.7220    1.2210 h4        1 3TA      0.024100
     42 H25        -6.3190   -0.3930    1.4660 hc        1 3TA      0.052700
     43 H25A       -4.9470    0.7860    1.4760 hc        1 3TA      0.052700
     44 H26        -5.0750    0.9720   -1.0260 hc        1 3TA      0.053200
     45 H26A       -6.4280   -0.2290   -1.0520 hc        1 3TA      0.053200
     46 H27        -7.8530    1.2330    0.3460 h1        1 3TA      0.028700
     47 H27A       -6.4800    2.4000    0.5950 h1        1 3TA      0.028700
     48 H29        -8.8690    1.1650   -2.0330 h1        1 3TA      0.031033
     49 H29A       -8.1940    2.3700   -3.2230 h1        1 3TA      0.031033
     50 H29B       -7.1990    0.9280   -2.7280 h1        1 3TA      0.031033
     51 H30        -7.4910    4.2680   -0.2410 h1        1 3TA      0.031033
     52 H30A       -8.2640    4.2550   -1.8900 h1        1 3TA      0.031033
     53 H30B       -9.0760    3.4050   -0.4970 h1        1 3TA      0.031033
     54 H31        -1.5950   -4.5160   -1.0520 hc        1 3TA      0.054700
     55 H31A       -0.8990   -4.2830    0.6160 hc        1 3TA      0.054700
     56 H31B       -2.3100   -5.3890    0.3630 hc        1 3TA      0.054700
@<TRIPOS>BOND
     1    1    3 ar  
     2    1    7 ar  
     3    1   12 1   
     4    2   14 1   
     5    3    4 ar  
     6    3   32 1   
     7    4    5 ar  
     8    5    6 ar  
     9    5   18 1   
    10    6    7 ar  
    11    7    9 1   
    12    8    9 ar  
    13    8   10 1   
    14    8   15 ar  
    15    9   16 ar  
    16   10   11 1   
    17   10   33 1   
    18   11   12 1   
    19   11   17 2   
    20   12   34 1   
    21   12   35 1   
    22   13   14 ar  
    23   13   16 ar  
    24   13   36 1   
    25   14   15 ar  
    26   15   37 1   
    27   16   38 1   
    28   18   19 1   
    29   18   39 1   
    30   19   20 ar  
    31   19   24 ar  
    32   20   21 ar  
    33   20   40 1   
    34   21   22 ar  
    35   21   25 1   
    36   22   23 ar  
    37   22   41 1   
    38   23   24 ar  
    39   24   31 1   
    40   25   26 1   
    41   25   42 1   
    42   25   43 1   
    43   26   27 1   
    44   26   44 1   
    45   26   45 1   
    46   27   28 1   
    47   27   46 1   
    48   27   47 1   
    49   28   29 1   
    50   28   30 1   
    51   29   48 1   
    52   29   49 1   
    53   29   50 1   
    54   30   51 1   
    55   30   52 1   
    56   30   53 1   
    57   31   54 1   
    58   31   55 1   
    59   31   56 1   
@<TRIPOS>SUBSTRUCTURE
     1 3TA         1 TEMP              0 ****  ****    0 ROOT
