@<TRIPOS>MOLECULE
3TA
   57    60     1     0     0
SMALL
bcc


@<TRIPOS>ATOM
      1 C1         -0.2090    0.0260   -0.0970 ca        1 3TA     -0.346900
      2 CL1        -6.6680   -0.5200    2.0860 cl        1 3TA     -0.059400
      3 C2          1.1950    0.1200   -0.1670 ca        1 3TA      0.474200
      4 N3          1.9850    0.2450    0.9070 nb        1 3TA     -0.743000
      5 C4          1.3400    0.2800    2.1360 ca        1 3TA      0.866900
      6 N5         -0.0300    0.1580    2.3140 nb        1 3TA     -0.734000
      7 C6         -0.7880    0.0430    1.1970 cp        1 3TA      0.548800
      8 C7         -3.1660    0.6090    0.5390 ca        1 3TA      0.068600
      9 C8         -2.2480   -0.0910    1.3600 cp        1 3TA     -0.178500
     10 N9         -2.7730    1.4890   -0.4890 n         1 3TA     -0.399100
     11 C10        -1.8420    1.2270   -1.4610 c         1 3TA      0.411400
     12 C11        -1.0380   -0.0480   -1.3190 c3        1 3TA     -0.075100
     13 C12        -4.0960   -1.0710    2.6070 ca        1 3TA     -0.139000
     14 C13        -5.0030   -0.3630    1.8100 ca        1 3TA      0.054400
     15 C14        -4.5530    0.4660    0.7870 ca        1 3TA     -0.162000
     16 C15        -2.7340   -0.9250    2.3780 ca        1 3TA     -0.061000
     17 S16        -1.5730    2.2080   -2.6710 s         1 3TA     -0.443400
     18 N18         2.0910    0.5140    3.3130 nh        1 3TA     -0.707300
     19 C19         3.4870    0.3440    3.3560 ca        1 3TA      0.028300
     20 C20         4.3360    1.0640    2.4910 ca        1 3TA     -0.077000
     21 C21         5.7220    0.9310    2.6140 ca        1 3TA     -0.225600
     22 C22         6.2230    0.0790    3.6170 ca        1 3TA      0.403200
     23 N23         5.4400   -0.6060    4.4640 nb        1 3TA     -0.642000
     24 C24         4.0980   -0.4950    4.3500 ca        1 3TA      0.404600
     25 C25         6.6380    1.6460    1.6910 c3        1 3TA     -0.017100
     26 C26         6.5780    3.1480    1.9220 c3        1 3TA     -0.108400
     27 C27         7.4680    3.8480    0.9030 c3        1 3TA      0.103800
     28 N28         7.3860    5.3470    0.9760 n4        1 3TA     -0.680400
     29 C29         8.1270    5.8750    2.1510 c3        1 3TA      0.081600
     30 C30         7.8920    5.9610   -0.2800 c3        1 3TA      0.081600
     31 C31         3.2380   -1.2660    5.3000 c3        1 3TA     -0.164400
     32 H2          1.7160    0.0920   -1.1440 h4        1 3TA      0.037100
     33 HN9        -3.3680    2.2830   -0.6390 hn        1 3TA      0.344500
     34 H11        -1.7280   -0.9360   -1.2700 hc        1 3TA      0.092200
     35 H11A       -0.3950   -0.1680   -2.2330 hc        1 3TA      0.092200
     36 H12        -4.4560   -1.7330    3.4100 ha        1 3TA      0.162000
     37 H14        -5.2850    1.0120    0.1680 ha        1 3TA      0.161000
     38 H15        -2.0230   -1.4760    3.0160 ha        1 3TA      0.157000
     39 HN18        1.6140    0.2790    4.1630 hn        1 3TA      0.450800
     40 H20         3.9210    1.7240    1.7140 ha        1 3TA      0.151000
     41 H22         7.3100   -0.0730    3.7490 h4        1 3TA      0.026100
     42 H25         6.3460    1.4160    0.6300 hc        1 3TA      0.062700
     43 H25A        7.6920    1.2860    1.8370 hc        1 3TA      0.062700
     44 H26         5.5140    3.4930    1.8230 hc        1 3TA      0.070200
     45 H26A        6.9160    3.3760    2.9670 hc        1 3TA      0.070200
     46 H27         7.1560    3.5410   -0.1380 hx        1 3TA      0.104700
     47 H27A        8.5440    3.5520    1.0560 hx        1 3TA      0.104700
     48 H29         7.7280    5.3980    3.0870 hx        1 3TA      0.106367
     49 H29A        9.2190    5.6360    2.0460 hx        1 3TA      0.106367
     50 H29B        7.9910    6.9880    2.2080 hx        1 3TA      0.106367
     51 H30         8.9550    5.6430   -0.4500 hx        1 3TA      0.106367
     52 H30A        7.8440    7.0800   -0.1930 hx        1 3TA      0.106367
     53 H30B        7.2560    5.6250   -1.1430 hx        1 3TA      0.106367
     54 H31         3.8410   -1.9470    5.9510 hc        1 3TA      0.065033
     55 H31A        2.5070   -1.8910    4.7290 hc        1 3TA      0.065033
     56 H31B        2.6790   -0.5590    5.9640 hc        1 3TA      0.065033
     57 H281        6.3940    5.6020    1.0840 hn        1 3TA      0.452800
@<TRIPOS>BOND
     1    1    3 ar  
     2    1    7 ar  
     3    1   12 1   
     4    2   14 1   
     5    3    4 ar  
     6    3   32 1   
     7    4    5 ar  
     8    5    6 ar  
     9    5   18 1   
    10    6    7 ar  
    11    7    9 1   
    12    8    9 ar  
    13    8   10 1   
    14    8   15 ar  
    15    9   16 ar  
    16   10   11 1   
    17   10   33 1   
    18   11   12 1   
    19   11   17 2   
    20   12   34 1   
    21   12   35 1   
    22   13   14 ar  
    23   13   16 ar  
    24   13   36 1   
    25   14   15 ar  
    26   15   37 1   
    27   16   38 1   
    28   18   19 1   
    29   18   39 1   
    30   19   20 ar  
    31   19   24 ar  
    32   20   21 ar  
    33   20   40 1   
    34   21   22 ar  
    35   21   25 1   
    36   22   23 ar  
    37   22   41 1   
    38   23   24 ar  
    39   24   31 1   
    40   25   26 1   
    41   25   42 1   
    42   25   43 1   
    43   26   27 1   
    44   26   44 1   
    45   26   45 1   
    46   27   28 1   
    47   27   46 1   
    48   27   47 1   
    49   28   29 1   
    50   28   30 1   
    51   28   57 1   
    52   29   48 1   
    53   29   49 1   
    54   29   50 1   
    55   30   51 1   
    56   30   52 1   
    57   30   53 1   
    58   31   54 1   
    59   31   55 1   
    60   31   56 1   
@<TRIPOS>SUBSTRUCTURE
     1 3TA         1 TEMP              0 ****  ****    0 ROOT
