@<TRIPOS>MOLECULE
3TA
   57    60     1     0     0
SMALL
bcc


@<TRIPOS>ATOM
      1 C1         -0.2070    0.0180   -0.0950 ca        1 3TA     -0.346900
      2 Cl1        -6.6690   -0.5220    2.0820 cl        1 3TA     -0.059400
      3 C2          1.1980    0.1120   -0.1630 ca        1 3TA      0.474200
      4 N3          1.9860    0.2420    0.9120 nb        1 3TA     -0.743000
      5 C4          1.3390    0.2820    2.1400 ca        1 3TA      0.866900
      6 N5         -0.0310    0.1600    2.3160 nb        1 3TA     -0.734000
      7 C6         -0.7870    0.0400    1.1990 cp        1 3TA      0.548800
      8 C7         -3.1650    0.6020    0.5360 ca        1 3TA      0.068600
      9 C8         -2.2470   -0.0940    1.3600 cp        1 3TA     -0.178500
     10 N9         -2.7710    1.4780   -0.4960 ns        1 3TA     -0.399100
     11 C10        -1.8380    1.2130   -1.4660 c         1 3TA      0.411400
     12 C11        -1.0340   -0.0610   -1.3170 c3        1 3TA     -0.075100
     13 C12        -4.0970   -1.0700    2.6090 ca        1 3TA     -0.139000
     14 C13        -5.0030   -0.3660    1.8080 ca        1 3TA      0.054400
     15 C14        -4.5510    0.4600    0.7820 ca        1 3TA     -0.162000
     16 C15        -2.7350   -0.9240    2.3810 ca        1 3TA     -0.061000
     17 S16        -1.5680    2.1900   -2.6790 s         1 3TA     -0.443400
     18 N18         2.0890    0.5210    3.3160 nu        1 3TA     -0.707300
     19 C19         3.4850    0.3520    3.3620 ca        1 3TA      0.028300
     20 C20         4.3350    1.0680    2.4950 ca        1 3TA     -0.077000
     21 C21         5.7200    0.9360    2.6210 ca        1 3TA     -0.225600
     22 C22         6.2210    0.0900    3.6280 ca        1 3TA      0.403200
     23 N23         5.4370   -0.5920    4.4770 nb        1 3TA     -0.642000
     24 C24         4.0950   -0.4820    4.3610 ca        1 3TA      0.404600
     25 C25         6.6370    1.6480    1.6950 c3        1 3TA     -0.017100
     26 C26         6.5770    3.1510    1.9200 c3        1 3TA     -0.108400
     27 C27         7.4670    3.8460    0.8980 c3        1 3TA      0.103800
     28 N28         7.3870    5.3460    0.9660 nx        1 3TA     -0.680400
     29 C29         8.1280    5.8780    2.1390 c3        1 3TA      0.081600
     30 C30         7.8930    5.9550   -0.2920 c3        1 3TA      0.081600
     31 C31         3.2340   -1.2490    5.3140 c3        1 3TA     -0.164400
     32 H2          1.7200    0.0810   -1.1390 h4        1 3TA      0.037100
     33 HN9        -3.3660    2.2720   -0.6490 hn        1 3TA      0.344500
     34 H11        -1.7240   -0.9500   -1.2650 hc        1 3TA      0.092200
     35 H11A       -0.3900   -0.1840   -2.2300 hc        1 3TA      0.092200
     36 H12        -4.4580   -1.7290    3.4140 ha        1 3TA      0.162000
     37 H14        -5.2830    1.0030    0.1600 ha        1 3TA      0.161000
     38 H15        -2.0240   -1.4720    3.0220 ha        1 3TA      0.157000
     39 HN18        1.6110    0.2890    4.1670 hn        1 3TA      0.450800
     40 H20         3.9200    1.7240    1.7140 ha        1 3TA      0.152000
     41 H22         7.3070   -0.0610    3.7630 h4        1 3TA      0.026100
     42 H25         7.6910    1.2880    1.8430 hc        1 3TA      0.062700
     43 H25A        6.3460    1.4130    0.6350 hc        1 3TA      0.062700
     44 H26         5.5130    3.4950    1.8180 hc        1 3TA      0.070200
     45 H26A        6.9140    3.3830    2.9650 hc        1 3TA      0.070200
     46 H27         8.5440    3.5510    1.0530 hx        1 3TA      0.104700
     47 H27A        7.1560    3.5360   -0.1420 hx        1 3TA      0.104700
     48 H29         9.2200    5.6390    2.0350 hx        1 3TA      0.106367
     49 H29A        7.9920    6.9910    2.1920 hx        1 3TA      0.106367
     50 H29B        7.7290    5.4050    3.0770 hx        1 3TA      0.106367
     51 H30         7.2570    5.6160   -1.1540 hx        1 3TA      0.106367
     52 H30A        7.8460    7.0740   -0.2090 hx        1 3TA      0.106367
     53 H30B        8.9560    5.6360   -0.4620 hx        1 3TA      0.106367
     54 H31         2.6740   -0.5400    5.9730 hc        1 3TA      0.065033
     55 H31A        3.8370   -1.9270    5.9690 hc        1 3TA      0.065033
     56 H31B        2.5050   -1.8770    4.7440 hc        1 3TA      0.065033
     57 H281        6.3940    5.6020    1.0730 hn        1 3TA      0.452800
@<TRIPOS>BOND
     1    1    3 ar  
     2    1    7 ar  
     3    1   12 1   
     4    2   14 1   
     5    3    4 ar  
     6    3   32 1   
     7    4    5 ar  
     8    5    6 ar  
     9    5   18 1   
    10    6    7 ar  
    11    7    9 1   
    12    8    9 ar  
    13    8   10 1   
    14    8   15 ar  
    15    9   16 ar  
    16   10   11 1   
    17   10   33 1   
    18   11   12 1   
    19   11   17 2   
    20   12   34 1   
    21   12   35 1   
    22   13   14 ar  
    23   13   16 ar  
    24   13   36 1   
    25   14   15 ar  
    26   15   37 1   
    27   16   38 1   
    28   18   19 1   
    29   18   39 1   
    30   19   20 ar  
    31   19   24 ar  
    32   20   21 ar  
    33   20   40 1   
    34   21   22 ar  
    35   21   25 1   
    36   22   23 ar  
    37   22   41 1   
    38   23   24 ar  
    39   24   31 1   
    40   25   26 1   
    41   25   42 1   
    42   25   43 1   
    43   26   27 1   
    44   26   44 1   
    45   26   45 1   
    46   27   28 1   
    47   27   46 1   
    48   27   47 1   
    49   28   29 1   
    50   28   30 1   
    51   28   57 1   
    52   29   48 1   
    53   29   49 1   
    54   29   50 1   
    55   30   51 1   
    56   30   52 1   
    57   30   53 1   
    58   31   54 1   
    59   31   55 1   
    60   31   56 1   
@<TRIPOS>SUBSTRUCTURE
     1 3TA         1 TEMP              0 ****  ****    0 ROOT
