@<TRIPOS>MOLECULE
3TA
   56    52     1     0     0
SMALL
bcc


@<TRIPOS>ATOM
      1 C1         -3.2440   -2.6230   -1.3420 c1        1 3TA     -0.226000
      2 CL1        -8.8640   -4.1380    2.0700 cl        1 3TA      0.003000
      3 C2         -2.0410   -2.3710   -1.9180 c1        1 3TA     -0.028000
      4 N3         -1.2290   -1.3870   -1.4090 n1        1 3TA     -0.165000
      5 C4         -1.6510   -0.6210   -0.2630 c1        1 3TA      0.158000
      6 N5         -2.8940   -0.8750    0.3390 n1        1 3TA     -0.222000
      7 C6         -3.6820   -1.8200   -0.1440 c1        1 3TA      0.107000
      8 C7         -5.8550   -3.0520   -0.5490 c1        1 3TA      0.078000
      9 C8         -5.2840   -2.1340    0.2790 c2        1 3TA     -0.060000
     10 N9         -5.9870   -2.5630   -1.7980 n2        1 3TA     -0.254000
     11 C10        -5.1830   -2.9590   -2.4560 c2        1 3TA      0.014000
     12 C11        -4.2190   -3.6220   -1.6960 c3        1 3TA     -0.106000
     13 C12        -6.8360   -2.7480    2.0420 c1        1 3TA     -0.143000
     14 C13        -7.4180   -3.6810    1.2000 c1        1 3TA     -0.029000
     15 C14        -6.9410   -3.8430   -0.0900 c2        1 3TA     -0.165000
     16 C15        -5.7680   -1.9700    1.5890 c2        1 3TA     -0.063000
     17 S16        -5.2370   -2.9560   -4.1310 s         1 3TA     -0.161000
     18 N18        -1.0640    0.5060    0.4100 n3        1 3TA     -0.222000
     19 C19         0.3490    0.4940    0.7480 c2        1 3TA     -0.007000
     20 C20         1.2570    1.0980   -0.0820 c2        1 3TA     -0.066000
     21 C21         2.5770    1.1510    0.2710 c1        1 3TA     -0.113000
     22 C22         2.9960    0.5930    1.4690 c1        1 3TA     -0.028000
     23 N23         2.0880   -0.0110    2.3000 n1        1 3TA     -0.165000
     24 C24         0.7710   -0.0640    1.9490 c1        1 3TA     -0.039000
     25 C25         3.5940    1.7170   -0.6960 c3        1 3TA     -0.120000
     26 C26         4.5230    2.7420    0.0570 c3        1 3TA     -0.159000
     27 C27         5.7760    3.0640   -0.8340 c3        1 3TA     -0.066000
     28 N28         6.5900    4.0610   -0.1850 n3        1 3TA     -0.263000
     29 C29         7.8010    3.4350    0.3330 c3        1 3TA     -0.119500
     30 C30         6.9480    5.0840   -1.1380 c3        1 3TA     -0.119500
     31 C31        -0.2450   -0.6110    2.9210 c3        1 3TA     -0.179000
     32 H2         -1.7510   -2.8910   -2.6980 ha        1 3TA      0.168000
     33 HN9        -6.5780   -1.9060   -2.0390 hn        1 3TA      0.255000
     34 H11        -3.9830   -4.4700   -2.1270 hc        1 3TA      0.126000
     35 H11A       -4.5690   -3.9430   -0.8440 hc        1 3TA      0.126000
     36 H12        -7.2320   -2.5710    2.9250 ha        1 3TA      0.157000
     37 H14        -7.2960   -4.5600   -0.6540 ha        1 3TA      0.157000
     38 H15        -5.3560   -1.3090    2.1850 ha        1 3TA      0.158000
     39 HN18       -1.5600    1.2480    0.5680 hn        1 3TA      0.240000
     40 H20         0.9590    1.4940   -0.9320 ha        1 3TA      0.161000
     41 H22         3.9410    0.6310    1.7210 ha        1 3TA      0.168000
     42 H25         4.1420    0.9860   -1.0620 hc        1 3TA      0.092500
     43 H25A        3.1320    2.1710   -1.4240 hc        1 3TA      0.092500
     44 H26         4.8180    2.3520    0.9090 hc        1 3TA      0.092000
     45 H26A        4.0250    3.5670    0.2310 hc        1 3TA      0.092000
     46 H27         6.3010    2.2480   -0.9640 h1        1 3TA      0.068500
     47 H27A        5.4790    3.4020   -1.7050 h1        1 3TA      0.068500
     48 H29         7.5980    2.9750    1.1730 h1        1 3TA      0.070500
     49 H29A        8.1400    2.7870   -0.3220 h1        1 3TA      0.070500
     50 H29B        8.4860    4.1270    0.4940 h1        1 3TA      0.070500
     51 H30         7.4320    4.6760   -1.8910 h1        1 3TA      0.070500
     52 H30A        6.1280    5.5230   -1.4730 h1        1 3TA      0.070500
     53 H30B        7.5170    5.7450   -0.7070 h1        1 3TA      0.070500
     54 H31         0.1930   -0.8180    3.7690 hc        1 3TA      0.094000
     55 H31A       -0.9490    0.0600    3.0710 hc        1 3TA      0.094000
     56 H31B       -0.6430   -1.4220    2.5530 hc        1 3TA      0.094000
@<TRIPOS>BOND
     1    1    7 1   
     2    1   12 1   
     3    2   14 1   
     4    3    4 1   
     5    3   32 1   
     6    5    6 1   
     7    5   18 1   
     8    7    9 1   
     9    8    9 1   
    10    8   15 1   
    11    9   16 1   
    12   10   11 1   
    13   10   33 1   
    14   11   12 1   
    15   11   17 1   
    16   12   34 1   
    17   12   35 1   
    18   13   16 1   
    19   13   36 1   
    20   14   15 1   
    21   15   37 1   
    22   16   38 1   
    23   18   19 1   
    24   18   39 1   
    25   19   20 1   
    26   19   24 1   
    27   20   21 1   
    28   20   40 1   
    29   21   25 1   
    30   22   23 1   
    31   22   41 1   
    32   24   31 1   
    33   25   26 1   
    34   25   42 1   
    35   25   43 1   
    36   26   27 1   
    37   26   44 1   
    38   26   45 1   
    39   27   28 1   
    40   27   46 1   
    41   27   47 1   
    42   28   29 1   
    43   28   30 1   
    44   29   48 1   
    45   29   49 1   
    46   29   50 1   
    47   30   51 1   
    48   30   52 1   
    49   30   53 1   
    50   31   54 1   
    51   31   55 1   
    52   31   56 1   
@<TRIPOS>SUBSTRUCTURE
     1 3TA         1 TEMP              0 ****  ****    0 ROOT
