@<TRIPOS>MOLECULE
3TA
   58    61     1     0     0
SMALL
bcc


@<TRIPOS>ATOM
      1 C1         -0.5640   -1.7350    1.0130 ca        1 3TA     -0.237900
      2 CL1        -4.8090    3.5480    0.1230 cl        1 3TA     -0.022400
      3 C2          0.4290   -2.6210    1.4850 ca        1 3TA      0.467200
      4 N3          1.3180   -2.2800    2.4380 nb        1 3TA     -0.665000
      5 C4          1.1900   -1.0000    2.9130 ca        1 3TA      0.695900
      6 N5          0.2790   -0.0530    2.5410 nb        1 3TA     -0.685000
      7 C6         -0.6200   -0.4330    1.5870 cp        1 3TA      0.552800
      8 C7         -2.0250    0.7060   -0.1740 ca        1 3TA      0.088600
      9 C8         -1.6580    0.5220    1.1840 cp        1 3TA     -0.223500
     10 N9         -1.4030    0.0270   -1.2370 n         1 3TA     -0.412100
     11 C10        -1.2170   -1.3400   -1.3180 c         1 3TA      0.359400
     12 C11        -1.4980   -2.1390   -0.0610 c3        1 3TA     -0.102100
     13 C12        -3.2790    2.2070    1.8650 ca        1 3TA     -0.140000
     14 C13        -3.6280    2.4090    0.5220 ca        1 3TA      0.072400
     15 C14        -3.0130    1.6710   -0.4870 ca        1 3TA     -0.167000
     16 C15        -2.3010    1.2770    2.1800 ca        1 3TA     -0.058000
     17 S16        -0.7080   -2.0590   -2.6100 s         1 3TA     -0.307400
     18 N18         2.1760   -0.5850    3.9690 n4        1 3TA     -0.600100
     19 C19         3.4440   -0.1540    3.3820 ca        1 3TA     -0.179700
     20 C20         3.5290    1.1160    2.7720 ca        1 3TA     -0.045000
     21 C21         4.7430    1.5130    2.2120 ca        1 3TA     -0.205600
     22 C22         5.8240    0.5990    2.2750 ca        1 3TA      0.460200
     23 N23         5.7580   -0.6010    2.8600 nb        1 3TA     -0.627000
     24 C24         4.5890   -1.0040    3.4180 ca        1 3TA      0.501600
     25 C25         4.8860    2.8160    1.5130 c3        1 3TA     -0.031100
     26 C26         6.0000    3.6700    2.1020 c3        1 3TA     -0.105400
     27 C27         6.1680    4.9260    1.2520 c3        1 3TA      0.101800
     28 N28         7.2240    5.8630    1.7620 n4        1 3TA     -0.679400
     29 C29         8.5920    5.3710    1.4460 c3        1 3TA      0.080600
     30 C30         7.0230    7.2290    1.2020 c3        1 3TA      0.080600
     31 C31         4.5330   -2.3480    4.0680 c3        1 3TA     -0.198400
     32 H2          0.5220   -3.6550    1.0890 h4        1 3TA      0.081100
     33 HN9        -1.3910    0.5170   -2.1150 hn        1 3TA      0.347500
     34 H11        -1.3870   -3.2330   -0.3010 hc        1 3TA      0.113200
     35 H11A       -2.5630   -1.9740    0.2730 hc        1 3TA      0.113200
     36 H12        -3.7820    2.7790    2.6620 ha        1 3TA      0.173000
     37 H14        -3.3110    1.8370   -1.5370 ha        1 3TA      0.173000
     38 H15        -2.0360    1.1220    3.2390 ha        1 3TA      0.149000
     39 HN18        2.3400   -1.3900    4.5940 hn        1 3TA      0.480300
     40 H20         2.6490    1.7820    2.7240 ha        1 3TA      0.171000
     41 H22         6.8040    0.8440    1.8170 h4        1 3TA      0.047100
     42 H25         3.9180    3.3860    1.5570 hc        1 3TA      0.075700
     43 H25A        5.1030    2.6150    0.4260 hc        1 3TA      0.075700
     44 H26         5.7430    3.9430    3.1600 hc        1 3TA      0.071200
     45 H26A        6.9550    3.0800    2.1240 hc        1 3TA      0.071200
     46 H27         6.4390    4.6450    0.1940 hx        1 3TA      0.109200
     47 H27A        5.1910    5.4920    1.2290 hx        1 3TA      0.109200
     48 H29         8.7340    5.3370    0.3330 hx        1 3TA      0.110867
     49 H29A        9.3500    6.0690    1.8960 hx        1 3TA      0.110867
     50 H29B        8.7290    4.3430    1.8760 hx        1 3TA      0.110867
     51 H30         7.0610    7.1840    0.0810 hx        1 3TA      0.110867
     52 H30A        6.0260    7.6270    1.5320 hx        1 3TA      0.110867
     53 H30B        7.8390    7.9050    1.5770 hx        1 3TA      0.110867
     54 H31         4.2830   -2.2400    5.1540 hc        1 3TA      0.091367
     55 H31A        3.7680   -2.9900    3.5620 hc        1 3TA      0.091367
     56 H31B        5.5180   -2.8820    4.0020 hc        1 3TA      0.091367
     57 H182        1.7730    0.1920    4.5140 hn        1 3TA      0.480300
     58 H281        7.1330    5.9190    2.7860 hn        1 3TA      0.451800
@<TRIPOS>BOND
     1    1    3 ar  
     2    1    7 ar  
     3    1   12 1   
     4    2   14 1   
     5    3    4 ar  
     6    3   32 1   
     7    4    5 ar  
     8    5    6 ar  
     9    5   18 1   
    10    6    7 ar  
    11    7    9 1   
    12    8    9 ar  
    13    8   10 1   
    14    8   15 ar  
    15    9   16 ar  
    16   10   11 1   
    17   10   33 1   
    18   11   12 1   
    19   11   17 2   
    20   12   34 1   
    21   12   35 1   
    22   13   14 ar  
    23   13   16 ar  
    24   13   36 1   
    25   14   15 ar  
    26   15   37 1   
    27   16   38 1   
    28   18   19 1   
    29   18   39 1   
    30   18   57 1   
    31   19   20 ar  
    32   19   24 ar  
    33   20   21 ar  
    34   20   40 1   
    35   21   22 ar  
    36   21   25 1   
    37   22   23 ar  
    38   22   41 1   
    39   23   24 ar  
    40   24   31 1   
    41   25   26 1   
    42   25   42 1   
    43   25   43 1   
    44   26   27 1   
    45   26   44 1   
    46   26   45 1   
    47   27   28 1   
    48   27   46 1   
    49   27   47 1   
    50   28   29 1   
    51   28   30 1   
    52   28   58 1   
    53   29   48 1   
    54   29   49 1   
    55   29   50 1   
    56   30   51 1   
    57   30   52 1   
    58   30   53 1   
    59   31   54 1   
    60   31   55 1   
    61   31   56 1   
@<TRIPOS>SUBSTRUCTURE
     1 3TA         1 TEMP              0 ****  ****    0 ROOT
