@<TRIPOS>MOLECULE
3TB
   75    70     1     0     0
SMALL
bcc


@<TRIPOS>ATOM
      1 N          -5.1670    0.0000    2.7490 n3        1 3TB     -0.334000
      2 P          -2.0150    3.2900   -0.6390 p3        1 3TB      2.533000
      3 N0         -4.4530   -0.2860    0.0790 n         1 3TB     -0.338000
      4 O0         -4.8930    2.0250   -0.1320 o         1 3TB     -0.445000
      5 C1         -2.2520   -1.0740   -0.5290 c1        1 3TB     -0.105000
      6 N1          2.4380   -0.9670   -1.0260 n         1 3TB     -0.349000
      7 C2         -1.2690   -1.4890   -1.4690 c1        1 3TB     -0.170000
      8 N2          4.2680   -1.8800    1.9520 n         1 3TB     -0.386000
      9 O2          1.0260   -1.1130    0.8060 o         1 3TB     -0.445000
     10 C3          0.1350   -2.2700   -1.1330 c3        1 3TB     -0.075000
     11 N3          7.9590   -1.8840   -2.9640 n3        1 3TB     -0.323000
     12 O3          3.4740    0.1890    1.3430 o         1 3TB     -0.473000
     13 C4          0.5440   -2.6670   -2.3610 c3        1 3TB     -0.142000
     14 N4         10.3000   -1.3410   -2.7640 n1        1 3TB     -0.364000
     15 C5         -0.0610   -1.5940   -3.4550 c3        1 3TB     -0.155000
     16 N5          9.2980   -1.0490   -4.8700 n3        1 3TB     -0.343000
     17 C6         -1.3250   -1.2820   -3.0710 c2        1 3TB     -0.120000
     18 C7          1.2040   -1.3900   -0.3520 c2        1 3TB      0.304000
     19 C9          3.7140   -1.3400   -0.4860 c3        1 3TB      0.027000
     20 C10         3.7720   -0.9550    0.9950 c2        1 3TB      0.273000
     21 C11         4.7990   -0.6230   -1.2280 c3        1 3TB     -0.199000
     22 C12         5.8030   -1.6610   -1.8180 c3        1 3TB     -0.182000
     23 C13         6.9690   -0.9200   -2.5110 c3        1 3TB     -0.082000
     24 C14         9.2260   -1.4160   -3.5270 c2        1 3TB      0.154000
     25 O1P        -0.5370    3.2290   -0.9130 o         1 3TB     -1.239333
     26 C20        -3.5010   -0.3600   -1.0030 c2        1 3TB     -0.009000
     27 C21        -3.1380    1.0450   -1.4640 c3        1 3TB      0.050000
     28 C22        -4.8890    1.0450    0.6060 c2        1 3TB      0.305000
     29 C23        -5.4710    1.1540    2.0420 c3        1 3TB     -0.041000
     30 O2P        -2.7250    3.8750   -1.8350 o         1 3TB     -1.239333
     31 C31        -4.8640    2.3580    2.7490 c3        1 3TB     -0.204000
     32 C32        -5.4850    2.5010    4.1380 c2        1 3TB     -0.041000
     33 C33        -5.0690    1.6670    5.1690 c2        1 3TB     -0.116000
     34 C34        -5.5090    1.8930    6.4650 c1        1 3TB     -0.141000
     35 C35        -6.3620    2.9490    6.7330 c1        1 3TB     -0.152500
     36 C36        -6.7780    3.7860    5.7010 c1        1 3TB     -0.152500
     37 C37        -6.3400    3.5610    4.4060 c1        1 3TB     -0.138000
     38 O3P        -2.2670    4.1580    0.5670 o         1 3TB     -1.239333
     39 O4P        -2.5790    1.7870   -0.3580 o         1 3TB     -0.730000
     40 HN         -4.5800    0.1990    3.4140 hn        1 3TB      0.147500
     41 HNA        -5.9390   -0.3510    3.1140 hn        1 3TB      0.147500
     42 HN0        -4.7990   -1.0800    0.4580 hn        1 3TB      0.300000
     43 H1         -2.1230   -1.2480    0.4160 ha        1 3TB      0.140000
     44 HN1         2.3930   -0.4070   -1.7650 hn        1 3TB      0.302000
     45 HN2         4.4220   -1.6060    2.8190 hn        1 3TB      0.255000
     46 HN2A        4.4800   -2.7290    1.6990 hn        1 3TB      0.255000
     47 H3          0.0070   -3.0150   -0.5280 hc        1 3TB      0.106000
     48 HN3         7.7550   -2.7810   -2.9760 hn        1 3TB      0.156000
     49 H4          0.1990   -3.5790   -2.5540 hc        1 3TB      0.079500
     50 H4A         1.5340   -2.6660   -2.4020 hc        1 3TB      0.079500
     51 HN4        10.2530   -1.5780   -1.8960 DU        1 3TB      0.121000
     52 H5          0.4950   -0.7780   -3.4680 hc        1 3TB      0.065000
     53 H5A        -0.0740   -1.9980   -4.3450 hc        1 3TB      0.065000
     54 HN5         8.5400   -0.9450   -5.3520 hn        1 3TB      0.237500
     55 HN5A       10.1020   -0.8830   -5.2500 hn        1 3TB      0.237500
     56 H6         -2.0380   -1.8480   -3.4440 ha        1 3TB      0.093000
     57 H6A        -1.5860   -0.3890   -3.3730 ha        1 3TB      0.093000
     58 H9          3.8380   -2.3040   -0.5800 h1        1 3TB      0.123000
     59 H11         5.2730   -0.0260   -0.6140 hc        1 3TB      0.128500
     60 H11A        4.4100   -0.1040   -1.9480 hc        1 3TB      0.128500
     61 H12         6.1530   -2.2180   -1.0980 hc        1 3TB      0.075500
     62 H12A        5.3310   -2.2380   -2.4870 hc        1 3TB      0.075500
     63 H13         6.6270   -0.4190   -3.2800 h1        1 3TB      0.094500
     64 H13A        7.3840   -0.2990   -1.8760 h1        1 3TB      0.094500
     65 H20        -3.8990   -0.8600   -1.7540 h4        1 3TB      0.097000
     66 H21        -2.4760    0.9910   -2.1890 h1        1 3TB      0.052000
     67 H21A       -3.9450    1.5020   -1.7910 h1        1 3TB      0.052000
     68 H23        -6.4400    1.2600    1.9940 h1        1 3TB      0.096000
     69 H31        -5.0460    3.1770    2.2210 hc        1 3TB      0.148500
     70 H31A       -3.9090    2.2330    2.8340 hc        1 3TB      0.148500
     71 H33        -4.4700    0.9250    4.9820 ha        1 3TB      0.173000
     72 H34        -5.2100    1.2900    7.2080 ha        1 3TB      0.118000
     73 H35        -6.6560    3.1120    7.6310 ha        1 3TB      0.107000
     74 H36        -7.3890    4.5420    5.8930 ha        1 3TB      0.107000
     75 H37        -6.5970    4.1680    3.6960 ha        1 3TB      0.130000
@<TRIPOS>BOND
     1    1   29 1   
     2    1   40 1   
     3    1   41 1   
     4    2   25 1   
     5    2   30 1   
     6    2   38 1   
     7    3   26 1   
     8    3   28 1   
     9    3   42 1   
    10    4   28 1   
    11    5    7 1   
    12    5   43 1   
    13    6   18 1   
    14    6   19 1   
    15    6   44 1   
    16    7   10 1   
    17    8   20 1   
    18    8   45 1   
    19    8   46 1   
    20    9   18 1   
    21   10   13 1   
    22   10   18 1   
    23   10   47 1   
    24   11   23 1   
    25   11   24 1   
    26   11   48 1   
    27   12   20 1   
    28   13   15 1   
    29   13   49 1   
    30   13   50 1   
    31   14   24 1   
    32   15   17 1   
    33   15   52 1   
    34   15   53 1   
    35   16   24 1   
    36   16   54 1   
    37   16   55 1   
    38   17   56 1   
    39   17   57 1   
    40   19   20 1   
    41   19   21 1   
    42   19   58 1   
    43   21   22 1   
    44   21   59 1   
    45   21   60 1   
    46   22   23 1   
    47   22   61 1   
    48   22   62 1   
    49   23   63 1   
    50   23   64 1   
    51   26   27 1   
    52   26   65 1   
    53   27   39 1   
    54   27   66 1   
    55   27   67 1   
    56   28   29 1   
    57   29   31 1   
    58   29   68 1   
    59   31   32 1   
    60   31   69 1   
    61   31   70 1   
    62   32   33 1   
    63   32   37 1   
    64   33   34 1   
    65   33   71 1   
    66   34   72 1   
    67   35   36 1   
    68   35   73 1   
    69   36   74 1   
    70   37   75 1   
@<TRIPOS>SUBSTRUCTURE
     1 3TB         1 TEMP              0 ****  ****    0 ROOT
