@<TRIPOS>MOLECULE
3TB
   75    76     1     0     0
SMALL
bcc


@<TRIPOS>ATOM
      1 N           5.5510   -0.0210    0.3510 n3        1 3TB     -0.890800
      2 P          -1.0180    0.5400   -3.1740 p5        1 3TB      1.457800
      3 N0          2.0090    0.6500   -0.3130 n2        1 3TB     -0.584200
      4 O0          3.5250    1.6110    1.2320 o         1 3TB     -0.871300
      5 C1         -0.0060    1.3360    0.9200 c2        1 3TB     -0.073200
      6 N1         -3.1300    0.5870    2.1310 n         1 3TB     -0.552900
      7 C2         -0.0690    1.8840    2.1360 c2        1 3TB     -0.199400
      8 C3         -1.0910    1.5320    3.1800 c3        1 3TB     -0.076500
      9 N3         -3.3840   -2.7810   -2.1430 nh        1 3TB     -0.814200
     10 C4         -0.8160    2.4440    4.3810 c3        1 3TB     -0.070400
     11 N4         -4.3270   -3.9660   -4.0110 n2        1 3TB     -0.849100
     12 C5          0.5710    3.0410    4.1660 c3        1 3TB     -0.071400
     13 N5         -3.6690   -5.1960   -2.0260 nh        1 3TB     -0.927800
     14 C6          0.8950    2.8840    2.6850 c3        1 3TB     -0.045200
     15 C7         -2.5120    1.7120    2.6560 c         1 3TB      0.680100
     16 C9         -4.3780    0.6390    1.4040 c3        1 3TB      0.047700
     17 C10        -5.5580    0.9400    2.3670 c         1 3TB      0.640100
     18 C11        -4.7240   -0.6770    0.6910 c3        1 3TB     -0.080400
     19 C12        -3.7810   -1.0250   -0.4370 c3        1 3TB     -0.105400
     20 C13        -4.2380   -2.3490   -1.0580 c3        1 3TB      0.208800
     21 C14        -3.8250   -3.9800   -2.8020 c2        1 3TB      0.737100
     22 O1P         0.1760   -0.5640   -3.1310 oh        1 3TB     -0.803400
     23 C20         1.0240    1.6850   -0.1260 c3        1 3TB      0.182700
     24 C21         0.2560    2.0150   -1.4400 c3        1 3TB      0.199400
     25 C22         3.1440    0.7310    0.3780 c2        1 3TB      0.492300
     26 C23         4.1720   -0.4170    0.0960 c3        1 3TB      0.099500
     27 O2P        -0.6700    1.5910   -4.1520 o         1 3TB     -0.856000
     28 C31         3.7400   -1.6240    0.9420 c3        1 3TB     -0.036100
     29 C32         4.4890   -2.8650    0.6060 ca        1 3TB     -0.024300
     30 C33         4.2630   -3.5100   -0.6190 ca        1 3TB     -0.129000
     31 C34         4.9420   -4.6850   -0.9330 ca        1 3TB     -0.141000
     32 C35         5.8540   -5.2330   -0.0300 ca        1 3TB     -0.165000
     33 C36         6.0870   -4.5960    1.1870 ca        1 3TB     -0.141000
     34 C37         5.4090   -3.4190    1.5040 ca        1 3TB     -0.129000
     35 O3P        -2.3250   -0.1610   -3.1260 o         1 3TB     -0.856000
     36 O4P        -0.8080    1.1390   -1.6540 os        1 3TB     -0.602200
     37 HN          5.7490    0.7760   -0.2280 hn        1 3TB      0.331800
     38 HNA         5.6120    0.3020    1.3030 hn        1 3TB      0.331800
     39 HN0         0.7730   -0.4750   -2.3940 ho        1 3TB      0.457000
     40 H1         -0.7410    0.5810    0.5890 ha        1 3TB      0.129000
     41 HN1        -2.5430   -0.1850    1.8970 hn        1 3TB      0.323500
     42 HN2        -6.5510    2.4670    3.2760 hn        1 3TB      0.304500
     43 HN2A       -5.2260    2.9530    2.3430 hn        1 3TB      0.304500
     44 H3         -0.9390    0.4610    3.4940 hc        1 3TB      0.054700
     45 HN3        -3.1520   -2.0210   -2.7800 hn        1 3TB      0.491800
     46 H4         -1.5830    3.2580    4.4350 hc        1 3TB      0.036200
     47 H4A        -0.8630    1.8620    5.3330 hc        1 3TB      0.036200
     48 HN4        -4.4880   -4.8650   -4.4130 hn        1 3TB      0.361400
     49 H5          0.5920    4.1150    4.4740 hc        1 3TB      0.022200
     50 H5A         1.3270    2.4970    4.7860 hc        1 3TB      0.022200
     51 HN5        -3.1330   -5.8740   -2.5280 hn        1 3TB      0.367300
     52 HN5A       -3.2570   -5.0350   -1.1290 hn        1 3TB      0.367300
     53 H6          1.9530    2.5340    2.5160 hc        1 3TB      0.076700
     54 H6A         0.7760    3.8630    2.1530 hc        1 3TB      0.076700
     55 H9         -4.3220    1.4640    0.6280 h1        1 3TB      0.080700
     56 H11        -4.7560   -1.5080    1.4460 hc        1 3TB      0.049200
     57 H11A       -5.7660   -0.5630    0.2870 hc        1 3TB      0.049200
     58 H12        -3.7660   -0.2210   -1.2260 hc        1 3TB      0.092700
     59 H12A       -2.7260   -1.1240   -0.0710 hc        1 3TB      0.092700
     60 H13        -5.3110   -2.2280   -1.3950 h1        1 3TB      0.006200
     61 H13A       -4.2350   -3.1440   -0.2580 h1        1 3TB      0.006200
     62 H20         1.5150    2.6630    0.1860 h1        1 3TB      0.016700
     63 H21        -0.1590    3.0580   -1.3180 h1        1 3TB      0.014200
     64 H21A        0.9470    2.0020   -2.3260 h1        1 3TB      0.014200
     65 H23         4.1130   -0.7120   -0.9920 h1        1 3TB      0.059700
     66 H31         3.8580   -1.3790    2.0300 hc        1 3TB      0.060700
     67 H31A        2.6460   -1.7950    0.7480 hc        1 3TB      0.060700
     68 H33         3.5460   -3.0720   -1.3320 ha        1 3TB      0.139500
     69 H34         4.7580   -5.1810   -1.8970 ha        1 3TB      0.109500
     70 H35         6.3870   -6.1600   -0.2790 ha        1 3TB      0.104000
     71 H36         6.8090   -5.0200    1.8990 ha        1 3TB      0.109500
     72 H37         5.6040   -2.9130    2.4600 ha        1 3TB      0.139500
     73 N2         -5.9100    2.2580    2.5500 n         1 3TB     -0.646000
     74 O2         -3.1270    2.7970    2.7500 o         1 3TB     -0.659100
     75 O3         -6.2220    0.0300    2.9080 o         1 3TB     -0.644100
@<TRIPOS>BOND
     1    1   26 1   
     2    1   37 1   
     3    1   38 1   
     4    2   22 1   
     5    2   27 1   
     6    2   35 1   
     7    2   36 1   
     8    3   23 1   
     9    3   25 2   
    10    4   25 1   
    11    5    7 2   
    12    5   23 1   
    13    5   40 1   
    14    6   15 1   
    15    6   16 1   
    16    6   41 1   
    17    7    8 1   
    18    7   14 1   
    19    8   10 1   
    20    8   15 1   
    21    8   44 1   
    22    9   20 1   
    23    9   21 1   
    24    9   45 1   
    25   10   12 1   
    26   10   46 1   
    27   10   47 1   
    28   11   21 2   
    29   11   48 1   
    30   12   14 1   
    31   12   49 1   
    32   12   50 1   
    33   13   21 1   
    34   13   51 1   
    35   13   52 1   
    36   14   53 1   
    37   14   54 1   
    38   15   74 2   
    39   16   17 1   
    40   16   18 1   
    41   16   55 1   
    42   17   73 1   
    43   17   75 2   
    44   18   19 1   
    45   18   56 1   
    46   18   57 1   
    47   19   20 1   
    48   19   58 1   
    49   19   59 1   
    50   20   60 1   
    51   20   61 1   
    52   22   39 1   
    53   23   24 1   
    54   23   62 1   
    55   24   36 1   
    56   24   63 1   
    57   24   64 1   
    58   25   26 1   
    59   26   28 1   
    60   26   65 1   
    61   28   29 1   
    62   28   66 1   
    63   28   67 1   
    64   29   30 ar  
    65   29   34 ar  
    66   30   31 ar  
    67   30   68 1   
    68   31   32 ar  
    69   31   69 1   
    70   32   33 ar  
    71   32   70 1   
    72   33   34 ar  
    73   33   71 1   
    74   34   72 1   
    75   42   73 1   
    76   43   73 1   
@<TRIPOS>SUBSTRUCTURE
     1 3TB         1 TEMP              0 ****  ****    0 ROOT
