@<TRIPOS>MOLECULE
3TC
   26    27     1     0     0
SMALL
bcc


@<TRIPOS>ATOM
      1 O1          0.0520   -0.2390    0.0420 o         1 3TC     -0.629500
      2 C1          1.2930   -0.1290   -0.0260 c         1 3TC      0.839900
      3 N2          2.1160   -0.1290    1.1020 nc        1 3TC     -0.727100
      4 C3          3.4500   -0.0210    0.9380 cd        1 3TC      0.760500
      5 N3          4.2770   -0.0820    2.0360 nv        1 3TC     -0.920800
      6 C5          4.0560    0.1270   -0.3840 cd        1 3TC     -0.431600
      7 C7          3.2300    0.1360   -1.4770 cc        1 3TC      0.073600
      8 N1          1.8710   -0.0060   -1.3540 n         1 3TC     -0.406000
      9 C4          0.9680    0.0570   -2.4950 c3        1 3TC      0.306500
     10 C6          0.6560   -1.3140   -3.1250 c3        1 3TC     -0.043300
     11 O2          1.4700    0.9750   -3.4800 os        1 3TC     -0.405600
     12 C2          1.7270    0.4060   -4.7580 c3        1 3TC      0.181200
     13 S1          1.2080   -1.3130   -4.8010 ss        1 3TC     -0.316200
     14 C8          3.1880    0.6080   -5.1530 c3        1 3TC      0.115400
     15 O3          4.0910   -0.2740   -4.5270 oh        1 3TC     -0.602800
     16 HN31        3.8930   -0.0880    2.9500 hn        1 3TC      0.438800
     17 HN32        5.2250    0.1720    1.9200 hn        1 3TC      0.438800
     18 H5          5.1400    0.2280   -0.5010 ha        1 3TC      0.157000
     19 H7          3.6310    0.2640   -2.5060 h4        1 3TC      0.190000
     20 H4          0.0040    0.5380   -2.1230 h2        1 3TC      0.128700
     21 H61         1.1390   -2.1560   -2.5730 h1        1 3TC      0.101200
     22 H62        -0.4480   -1.4820   -3.0960 h1        1 3TC      0.101200
     23 H2          1.0820    0.9880   -5.4750 h2        1 3TC      0.095700
     24 H81         3.5220    1.6330   -4.8310 h1        1 3TC      0.067700
     25 H82         3.2700    0.5120   -6.2700 h1        1 3TC      0.067700
     26 HO3         3.7850   -1.1770   -4.7050 ho        1 3TC      0.418000
@<TRIPOS>BOND
     1    1    2 2   
     2    2    3 1   
     3    2    8 1   
     4    3    4 2   
     5    4    5 1   
     6    4    6 1   
     7    5   16 1   
     8    5   17 1   
     9    6    7 2   
    10    6   18 1   
    11    7    8 1   
    12    7   19 1   
    13    8    9 1   
    14    9   10 1   
    15    9   11 1   
    16    9   20 1   
    17   10   13 1   
    18   10   21 1   
    19   10   22 1   
    20   11   12 1   
    21   12   13 1   
    22   12   14 1   
    23   12   23 1   
    24   14   15 1   
    25   14   24 1   
    26   14   25 1   
    27   15   26 1   
@<TRIPOS>SUBSTRUCTURE
     1 3TC         1 TEMP              0 ****  ****    0 ROOT
