@<TRIPOS>MOLECULE
3TC
   26    24     1     0     0
SMALL
bcc


@<TRIPOS>ATOM
      1 O1          1.4240   -1.2930   -0.7540 o         1 3TC     -0.336000
      2 C1          1.3100   -0.3730    0.0320 c1        1 3TC      0.365000
      3 N2          1.9880   -0.4000    1.2140 n1        1 3TC     -0.294000
      4 C3          1.9060    0.6380    2.0590 c1        1 3TC      0.228000
      5 N3          2.6580    0.6340    3.2620 n2        1 3TC     -0.358000
      6 C5          1.1430    1.7220    1.7350 c2        1 3TC     -0.331000
      7 C7          0.4640    1.7480    0.5510 c1        1 3TC      0.054000
      8 N1          0.5480    0.7090   -0.2920 n2        1 3TC     -0.306000
      9 C4         -0.0140    0.7520   -1.3610 c3        1 3TC      0.162000
     10 C6         -1.5660    1.1500   -1.1620 c3        1 3TC     -0.319000
     11 O2         -0.0080   -0.7390   -2.0730 os        1 3TC     -0.215000
     12 C2         -1.2870   -1.1870   -1.9770 c3        1 3TC     -0.115000
     13 S1         -2.2820    0.2090   -1.9200 ss        1 3TC      0.062000
     14 C8         -1.4640   -2.0200   -0.6750 c3        1 3TC     -0.016000
     15 O3         -2.5130   -2.9470   -0.8490 oh        1 3TC     -0.328000
     16 HN31        3.1480   -0.1020    3.4930 hn        1 3TC      0.235000
     17 HN32        2.6660    1.3750    3.7990 hn        1 3TC      0.235000
     18 H5          1.0820    2.4780    2.3490 ha        1 3TC      0.156000
     19 H7         -0.0820    2.5230    0.3190 ha        1 3TC      0.152000
     20 H4          0.4250    1.4030   -1.9440 h2        1 3TC      0.131000
     21 H61        -1.7310    2.0550   -1.4970 h1        1 3TC      0.126000
     22 H62        -1.8150    1.0850   -0.2160 h1        1 3TC      0.126000
     23 H2         -1.5140   -1.7300   -2.7580 h2        1 3TC      0.152000
     24 H81        -1.6770   -1.4210    0.0690 h1        1 3TC      0.099500
     25 H82        -0.6330   -2.5010   -0.4800 h1        1 3TC      0.099500
     26 HO3        -2.1760   -3.7660   -0.9240 ho        1 3TC      0.234000
@<TRIPOS>BOND
     1    1    2 1   
     2    2    8 1   
     3    3    4 1   
     4    4    6 1   
     5    5   16 1   
     6    5   17 1   
     7    6    7 1   
     8    6   18 1   
     9    7   19 1   
    10    8    9 1   
    11    9   10 1   
    12    9   11 1   
    13    9   20 1   
    14   10   13 1   
    15   10   21 1   
    16   10   22 1   
    17   11   12 1   
    18   12   13 1   
    19   12   14 1   
    20   12   23 1   
    21   14   15 1   
    22   14   24 1   
    23   14   25 1   
    24   15   26 1   
@<TRIPOS>SUBSTRUCTURE
     1 3TC         1 TEMP              0 ****  ****    0 ROOT
