@<TRIPOS>MOLECULE
3TC
   27    28     1     0     0
SMALL
bcc


@<TRIPOS>ATOM
      1 O1          0.2200   -1.0650   -0.1450 o         1 3TC     -0.524500
      2 C1          1.3560   -0.5740   -0.1830 c         1 3TC      0.824900
      3 N2          2.2170   -0.5980    0.9470 nc        1 3TC     -0.636100
      4 C3          3.4110   -0.0430    0.8260 cd        1 3TC      0.609500
      5 N3          4.2950   -0.0760    2.0230 n4        1 3TC     -0.802600
      6 C5          3.9180    0.5830   -0.3520 cd        1 3TC     -0.447600
      7 C7          3.0630    0.5960   -1.4540 cc        1 3TC      0.146600
      8 N1          1.8260    0.0400   -1.4070 n         1 3TC     -0.361000
      9 C4          0.8650    0.1050   -2.5360 c3        1 3TC      0.303500
     10 C6          0.4980   -1.2720   -3.1110 c3        1 3TC     -0.056300
     11 O2          1.3630    0.9550   -3.5580 os        1 3TC     -0.393600
     12 C2          1.7740    0.2720   -4.7510 c3        1 3TC      0.157200
     13 S1          1.3850   -1.4760   -4.6230 ss        1 3TC     -0.253200
     14 C8          3.2500    0.5390   -5.0310 c3        1 3TC      0.114400
     15 O3          4.1130   -0.0800   -4.1020 oh        1 3TC     -0.617800
     16 HN31        5.1570   -0.5750    1.7770 hn        1 3TC      0.478467
     17 HN32        4.5180    0.8900    2.2890 hn        1 3TC      0.478467
     18 H5          4.9150    1.0320   -0.4210 ha        1 3TC      0.187000
     19 H7          3.3860    1.0610   -2.4180 h4        1 3TC      0.235000
     20 H4         -0.0540    0.6340   -2.1250 h2        1 3TC      0.135700
     21 H61         0.7270   -2.1150   -2.4150 h1        1 3TC      0.118200
     22 H62        -0.6050   -1.2910   -3.3010 h1        1 3TC      0.118200
     23 H2          1.1590    0.7370   -5.5720 h2        1 3TC      0.118700
     24 H81         3.4560    1.6410   -4.9230 h1        1 3TC      0.082700
     25 H82         3.4860    0.2100   -6.0780 h1        1 3TC      0.082700
     26 HO3         4.0750   -1.0340   -4.2620 ho        1 3TC      0.424000
     27 H33         3.8380   -0.5520    2.8150 hn        1 3TC      0.478467
@<TRIPOS>BOND
     1    1    2 2   
     2    2    3 1   
     3    2    8 1   
     4    3    4 2   
     5    4    5 1   
     6    4    6 1   
     7    5   16 1   
     8    5   17 1   
     9    5   27 1   
    10    6    7 2   
    11    6   18 1   
    12    7    8 1   
    13    7   19 1   
    14    8    9 1   
    15    9   10 1   
    16    9   11 1   
    17    9   20 1   
    18   10   13 1   
    19   10   21 1   
    20   10   22 1   
    21   11   12 1   
    22   12   13 1   
    23   12   14 1   
    24   12   23 1   
    25   14   15 1   
    26   14   24 1   
    27   14   25 1   
    28   15   26 1   
@<TRIPOS>SUBSTRUCTURE
     1 3TC         1 TEMP              0 ****  ****    0 ROOT
