@<TRIPOS>MOLECULE
3TC
   26    27     1     0     0
SMALL
bcc


@<TRIPOS>ATOM
      1 O1          3.7150   -2.1570   -1.0260 o         1 3TC     -0.623500
      2 C1          3.5120   -1.3130   -0.1310 c         1 3TC      0.842900
      3 N2          4.5430   -0.5650    0.4440 nc        1 3TC     -0.727100
      4 C3          4.2440    0.3500    1.3860 cd        1 3TC      0.758500
      5 N3          5.2420    1.1390    1.9110 nh        1 3TC     -0.918800
      6 C5          2.8730    0.5600    1.8520 cd        1 3TC     -0.421600
      7 C7          1.8790   -0.1950    1.2890 cc        1 3TC      0.070600
      8 N1          2.1380   -1.1150    0.3000 n         1 3TC     -0.411000
      9 C4          1.0790   -1.9040   -0.3040 c3        1 3TC      0.293500
     10 C6         -0.0570   -1.0650   -0.9160 c3        1 3TC     -0.048300
     11 O2          0.5240   -2.8410    0.6410 os        1 3TC     -0.410600
     12 C2         -0.7780   -2.5070    1.1080 c3        1 3TC      0.177200
     13 S1         -1.3960   -1.0610    0.2340 ss        1 3TC     -0.311200
     14 C8         -0.7640   -2.3090    2.6220 c3        1 3TC      0.123400
     15 O3          0.4860   -1.8720    3.1040 oh        1 3TC     -0.598800
     16 HN31        5.0390    1.6670    2.7220 hn        1 3TC      0.438800
     17 HN32        6.1900    0.9570    1.6870 hn        1 3TC      0.438800
     18 H5          2.6470    1.2920    2.6340 ha        1 3TC      0.158000
     19 H7          0.8210   -0.1080    1.6180 h4        1 3TC      0.184000
     20 H4          1.5580   -2.5760   -1.0880 h2        1 3TC      0.149700
     21 H61         0.2530   -0.0140   -1.1300 h1        1 3TC      0.098700
     22 H62        -0.3720   -1.5340   -1.8800 h1        1 3TC      0.098700
     23 H2         -1.4290   -3.3850    0.8460 h2        1 3TC      0.092700
     24 H81        -1.0470   -3.2770    3.1200 h1        1 3TC      0.062700
     25 H82        -1.4890   -1.5040    2.9210 h1        1 3TC      0.062700
     26 HO3         1.1530   -2.5020    2.7950 ho        1 3TC      0.420000
@<TRIPOS>BOND
     1    1    2 2   
     2    2    3 1   
     3    2    8 1   
     4    3    4 2   
     5    4    5 1   
     6    4    6 1   
     7    5   16 1   
     8    5   17 1   
     9    6    7 2   
    10    6   18 1   
    11    7    8 1   
    12    7   19 1   
    13    8    9 1   
    14    9   10 1   
    15    9   11 1   
    16    9   20 1   
    17   10   13 1   
    18   10   21 1   
    19   10   22 1   
    20   11   12 1   
    21   12   13 1   
    22   12   14 1   
    23   12   23 1   
    24   14   15 1   
    25   14   24 1   
    26   14   25 1   
    27   15   26 1   
@<TRIPOS>SUBSTRUCTURE
     1 3TC         1 TEMP              0 ****  ****    0 ROOT
