@<TRIPOS>MOLECULE
3TD
   35    36     1     0     0
SMALL
bcc


@<TRIPOS>ATOM
      1 P           3.9630    0.6380   -1.9960 p5        1 3TD      1.441800
      2 N1         -2.8710   -1.9410    1.8260 n         1 3TD     -0.412500
      3 C2         -4.2230   -1.8520    1.4480 c         1 3TD      0.703100
      4 O2         -5.0500   -2.7690    1.7310 o         1 3TD     -0.734100
      5 N3         -4.6330   -0.7030    0.7450 n         1 3TD     -0.498400
      6 C4         -3.7040    0.3450    0.4240 c         1 3TD      0.688300
      7 O4         -4.1810    1.3510   -0.1540 o         1 3TD     -0.694100
      8 C5         -2.3270    0.1390    0.8280 ce        1 3TD     -0.484500
      9 C6         -1.9370   -0.9930    1.5300 c1        1 3TD     -0.079900
     10 C1'        -1.3480    1.1920    0.4630 c3        1 3TD      0.226300
     11 C2'        -0.2410    1.3980    1.5260 c3        1 3TD      0.120100
     12 O2'        -0.3800    2.6400    2.1890 oh        1 3TD     -0.607800
     13 C3'         1.0920    1.2740    0.7560 c3        1 3TD      0.102100
     14 O3'         1.8720    2.4270    1.0070 oh        1 3TD     -0.646800
     15 C4'         0.6940    1.1730   -0.7310 c3        1 3TD      0.082100
     16 O4'        -0.7000    0.8560   -0.7860 os        1 3TD     -0.424600
     17 C5'         1.4590    0.0900   -1.5070 c3        1 3TD      0.200400
     18 O5'         2.3710    0.6430   -2.4080 os        1 3TD     -0.581200
     19 OP1         4.0350    1.1440   -0.6020 o         1 3TD     -0.850000
     20 OP2         4.2070   -0.9670   -1.7780 oh        1 3TD     -0.789400
     21 H6          4.2060   -1.2010   -0.8570 ho        1 3TD      0.424000
     22 H1'        -1.8840    2.1690    0.2810 h1        1 3TD      0.042700
     23 H10        -6.3940   -1.5950    0.0220 h1        1 3TD      0.029367
     24 H10A       -6.6340   -0.2690    1.2430 h1        1 3TD      0.029367
     25 H10B       -6.1170    0.1570   -0.4560 h1        1 3TD      0.029367
     26 H2'        -0.3190    0.6250    2.3370 h1        1 3TD      0.105700
     27 HO2'       -0.0770    3.3230    1.5790 ho        1 3TD      0.400000
     28 H3'         1.6490    0.3570    1.0860 h1        1 3TD      0.051700
     29 HO3'        2.7440    2.2570    0.6110 ho        1 3TD      0.462000
     30 H4'         0.8390    2.1710   -1.2310 h1        1 3TD      0.050700
     31 H5'         1.9980   -0.5930   -0.7940 h1        1 3TD      0.027700
     32 H5'A        0.7170   -0.5110   -2.1050 h1        1 3TD      0.027700
     33 O9          4.7520    1.1190   -3.1430 o         1 3TD     -0.850000
     34 C10        -6.0110   -0.5980    0.3670 c3        1 3TD      0.092300
     35 HN1        -2.6060   -2.7610    2.3130 hn        1 3TD      0.315500
@<TRIPOS>BOND
     1    1   18 1   
     2    1   19 1   
     3    1   20 1   
     4    1   33 1   
     5    2    3 1   
     6    2    9 2   
     7    2   35 1   
     8    3    4 2   
     9    3    5 1   
    10    5    6 1   
    11    5   34 1   
    12    6    7 2   
    13    6    8 1   
    14    8    9 2   
    15    8   10 1   
    16   10   11 1   
    17   10   16 1   
    18   10   22 1   
    19   11   12 1   
    20   11   13 1   
    21   11   26 1   
    22   12   27 1   
    23   13   14 1   
    24   13   15 1   
    25   13   28 1   
    26   14   29 1   
    27   15   16 1   
    28   15   17 1   
    29   15   30 1   
    30   17   18 1   
    31   17   31 1   
    32   17   32 1   
    33   20   21 1   
    34   23   34 1   
    35   24   34 1   
    36   25   34 1   
@<TRIPOS>SUBSTRUCTURE
     1 3TD         1 TEMP              0 ****  ****    0 ROOT
