@<TRIPOS>MOLECULE
3TD
   35    35     1     0     0
SMALL
bcc


@<TRIPOS>ATOM
      1 P          -4.7860    2.4650   -1.2340 p3        1 3TD      2.535000
      2 N1          0.0430   -2.2700    2.2550 n         1 3TD     -0.258000
      3 C2          1.3490   -2.9260    2.2440 c2        1 3TD      0.331000
      4 O2          1.4740   -4.0360    2.7230 o         1 3TD     -0.492000
      5 N3          2.5070   -2.2410    1.6760 n         1 3TD     -0.327000
      6 C4          2.3370   -1.0120    0.9880 c2        1 3TD      0.364000
      7 O4          3.3010   -0.4410    0.5170 o         1 3TD     -0.455000
      8 C5          1.0070   -0.3880    0.9200 c2        1 3TD     -0.399000
      9 C6         -0.1400   -1.0420    1.5680 c2        1 3TD     -0.139000
     10 C1'         0.8690    0.7750    0.3910 c3        1 3TD      0.113000
     11 C10         3.8000   -2.8280    1.7750 c3        1 3TD     -0.063000
     12 C2'         1.0390    0.6710   -1.1620 c3        1 3TD      0.010000
     13 O2'         1.8720    1.7840   -1.6570 oh        1 3TD     -0.330000
     14 C3'        -0.1690    0.7560   -1.6610 c3        1 3TD     -0.023000
     15 O3'        -0.1260    1.4380   -2.9600 oh        1 3TD     -0.363000
     16 C4'        -1.0360    1.6050   -0.6310 c3        1 3TD     -0.030000
     17 O4'        -0.6730    1.2610    0.5340 os        1 3TD     -0.275000
     18 C5'        -2.5350    1.2960   -0.8260 c3        1 3TD      0.035000
     19 O5'        -3.2060    2.4650   -1.2340 o         1 3TD     -0.743000
     20 OP1        -5.2900    2.4650    0.1900 o         1 3TD     -1.050000
     21 OP2        -5.2900    3.6980   -1.9460 o         1 3TD     -1.050000
     22 HN1        -0.6590   -2.6590    2.6880 hn        1 3TD      0.230000
     23 H6         -1.0080   -0.5970    1.5880 h4        1 3TD      0.224000
     24 H1'         1.5440    1.2820    0.8800 h1        1 3TD      0.078000
     25 H10         4.4390   -2.1580    2.0830 h1        1 3TD      0.068667
     26 H10A        3.7740   -3.5680    2.4110 h1        1 3TD      0.068667
     27 H10B        4.0740   -3.1610    0.8990 h1        1 3TD      0.068667
     28 H2'         1.4430   -0.1860   -1.4010 h1        1 3TD      0.152000
     29 HO2'        2.6010    1.4580   -2.0450 ho        1 3TD      0.197000
     30 H3'        -0.5520   -0.1360   -1.7640 h1        1 3TD      0.085000
     31 HO3'       -0.2920    0.8540   -3.6070 ho        1 3TD      0.237000
     32 H4'        -0.8720    2.5580   -0.7630 h1        1 3TD      0.090000
     33 H5'        -2.6380    0.6060   -1.5090 h1        1 3TD      0.080500
     34 H5'A       -2.9140    0.9800    0.0160 h1        1 3TD      0.080500
     35 O9         -5.2900    1.2320   -1.9460 o         1 3TD     -1.050000
@<TRIPOS>BOND
     1    1   20 1   
     2    1   21 1   
     3    1   35 1   
     4    2    3 1   
     5    2    9 1   
     6    2   22 1   
     7    3    4 1   
     8    3    5 1   
     9    5    6 1   
    10    5   11 1   
    11    6    7 1   
    12    6    8 1   
    13    8    9 1   
    14    8   10 1   
    15    9   23 1   
    16   10   12 1   
    17   10   17 1   
    18   10   24 1   
    19   11   25 1   
    20   11   26 1   
    21   11   27 1   
    22   12   13 1   
    23   12   14 1   
    24   12   28 1   
    25   13   29 1   
    26   14   15 1   
    27   14   16 1   
    28   14   30 1   
    29   15   31 1   
    30   16   17 1   
    31   16   18 1   
    32   16   32 1   
    33   18   19 1   
    34   18   33 1   
    35   18   34 1   
@<TRIPOS>SUBSTRUCTURE
     1 3TD         1 TEMP              0 ****  ****    0 ROOT
