@<TRIPOS>MOLECULE
3TE
   49    52     1     0     0
SMALL
bcc


@<TRIPOS>ATOM
      1 C1         -0.4220   -0.0790    0.2680 cc        1 3TE      0.474300
      2 C2          1.0660    0.8650    1.6230 cd        1 3TE      0.345200
      3 C3          1.1240   -0.4430    2.1020 cc        1 3TE     -0.249700
      4 C4          1.9630   -0.8720    3.2350 c3        1 3TE      0.046200
      5 C5          2.8290   -2.0530    2.9380 ca        1 3TE     -0.073300
      6 C6          3.9850   -1.9210    2.1080 ca        1 3TE     -0.023000
      7 S           0.0720   -1.4220    1.2400 ss        1 3TE      0.042700
      8 N1          0.1950    1.0910    0.5840 nd        1 3TE     -0.682000
      9 C7          4.3440   -0.6930    1.4860 ca        1 3TE     -0.116000
     10 C8          5.4680   -0.6000    0.7040 ca        1 3TE     -0.127000
     11 N2         -5.8940    1.1960   -3.5650 nb        1 3TE     -0.710500
     12 C9          6.2940   -1.7310    0.4990 ca        1 3TE     -0.127000
     13 C10         5.9710   -2.9330    1.0780 ca        1 3TE     -0.119000
     14 O          -1.8710   -2.3920   -0.4080 o         1 3TE     -0.573100
     15 C          -2.0610   -1.3410   -1.0470 c         1 3TE      0.672100
     16 C15        -3.0320   -1.2900   -2.2030 c3        1 3TE     -0.126300
     17 S1         -4.0790    0.1210   -2.0250 ss        1 3TE     -0.185400
     18 C16        -5.0160    0.1500   -3.4780 ca        1 3TE      0.731300
     19 N3         -4.8350   -0.8340   -4.4080 nb        1 3TE     -0.710500
     20 C20        -5.6060   -0.7640   -5.5230 ca        1 3TE      0.467100
     21 C21        -5.4570   -1.8110   -6.5780 c3        1 3TE     -0.157400
     22 C19        -6.5420    0.2760   -5.7030 ca        1 3TE     -0.379600
     23 C17        -6.6560    1.2500   -4.6850 ca        1 3TE      0.467100
     24 C18        -7.6380    2.3650   -4.8440 c3        1 3TE     -0.157400
     25 N          -1.3590   -0.1780   -0.7620 n         1 3TE     -0.522400
     26 C14         2.5300   -3.2740    3.5060 ca        1 3TE     -0.125000
     27 C13         3.3500   -4.4030    3.2800 ca        1 3TE     -0.127000
     28 C12         4.4690   -4.2980    2.4940 ca        1 3TE     -0.115000
     29 C11         4.8110   -3.0560    1.8930 ca        1 3TE     -0.037000
     30 H1          1.6480    1.7130    2.0040 h4        1 3TE      0.041100
     31 H2          1.2940   -1.1110    4.1100 hc        1 3TE      0.060700
     32 H3          2.6180   -0.0140    3.5600 hc        1 3TE      0.060700
     33 H4          3.6920    0.1840    1.6300 ha        1 3TE      0.139000
     34 H5          5.7390    0.3530    0.2250 ha        1 3TE      0.132000
     35 H6          7.1900   -1.6330   -0.1310 ha        1 3TE      0.132000
     36 H7          6.6010   -3.8210    0.9240 ha        1 3TE      0.132000
     37 H8         -3.6260   -2.2400   -2.2020 h1        1 3TE      0.116700
     38 H9         -2.4530   -1.2610   -3.1620 h1        1 3TE      0.116700
     39 H10        -4.4100   -1.8210   -6.9720 hc        1 3TE      0.061033
     40 H11        -5.6840   -2.8220   -6.1570 hc        1 3TE      0.061033
     41 H12        -6.1570   -1.6080   -7.4240 hc        1 3TE      0.061033
     42 H13        -7.1630    0.3280   -6.6050 ha        1 3TE      0.155000
     43 H14        -7.1170    3.3530   -4.7970 hc        1 3TE      0.061033
     44 H15        -8.3990    2.3300   -4.0240 hc        1 3TE      0.061033
     45 H16        -8.1620    2.2790   -5.8270 hc        1 3TE      0.061033
     46 H17        -1.5790    0.6570   -1.2680 hn        1 3TE      0.350500
     47 H18         1.6430   -3.3870    4.1490 ha        1 3TE      0.133000
     48 H19         3.0770   -5.3610    3.7470 ha        1 3TE      0.133000
     49 H20         5.1180   -5.1680    2.3140 ha        1 3TE      0.133000
@<TRIPOS>BOND
     1    1    7 1   
     2    1    8 2   
     3    1   25 1   
     4    2    3 2   
     5    2    8 1   
     6    2   30 1   
     7    3    4 1   
     8    3    7 1   
     9    4    5 1   
    10    4   31 1   
    11    4   32 1   
    12    5    6 ar  
    13    5   26 ar  
    14    6    9 ar  
    15    6   29 ar  
    16    9   10 ar  
    17    9   33 1   
    18   10   12 ar  
    19   10   34 1   
    20   11   18 ar  
    21   11   23 ar  
    22   12   13 ar  
    23   12   35 1   
    24   13   29 ar  
    25   13   36 1   
    26   14   15 2   
    27   15   16 1   
    28   15   25 1   
    29   16   17 1   
    30   16   37 1   
    31   16   38 1   
    32   17   18 1   
    33   18   19 ar  
    34   19   20 ar  
    35   20   21 1   
    36   20   22 ar  
    37   21   39 1   
    38   21   40 1   
    39   21   41 1   
    40   22   23 ar  
    41   22   42 1   
    42   23   24 1   
    43   24   43 1   
    44   24   44 1   
    45   24   45 1   
    46   25   46 1   
    47   26   27 ar  
    48   26   47 1   
    49   27   28 ar  
    50   27   48 1   
    51   28   29 ar  
    52   28   49 1   
@<TRIPOS>SUBSTRUCTURE
     1 3TE         1 TEMP              0 ****  ****    0 ROOT
