@<TRIPOS>MOLECULE
3TE
   49    52     1     0     0
SMALL
bcc


@<TRIPOS>ATOM
      1 C1         -0.4160   -0.0720    0.2590 cc        1 3TE      0.474300
      2 C2          1.0850    0.8790    1.5960 cd        1 3TE      0.345200
      3 C3          1.1390   -0.4240    2.0880 cc        1 3TE     -0.249700
      4 C4          1.9820   -0.8460    3.2210 c3        1 3TE      0.046200
      5 C5          2.8440   -2.0320    2.9300 ca        1 3TE     -0.073300
      6 C6          3.9970   -1.9110    2.0950 ca        1 3TE     -0.023000
      7 S           0.0780   -1.4080    1.2430 ss        1 3TE      0.042700
      8 N1          0.2090    1.0970    0.5600 nd        1 3TE     -0.682000
      9 C7          4.3570   -0.6890    1.4620 ca        1 3TE     -0.116000
     10 C8          5.4790   -0.6050    0.6740 ca        1 3TE     -0.127000
     11 N2         -5.8950    1.1970   -3.5630 nb        1 3TE     -0.710500
     12 C9          6.3000   -1.7410    0.4750 ca        1 3TE     -0.127000
     13 C10         5.9750   -2.9360    1.0650 ca        1 3TE     -0.119000
     14 O          -1.8810   -2.3840   -0.3830 o         1 3TE     -0.573100
     15 C          -2.0690   -1.3390   -1.0320 c         1 3TE      0.672100
     16 C15        -3.0460   -1.2960   -2.1840 c3        1 3TE     -0.126300
     17 S1         -4.0820    0.1250   -2.0170 ss        1 3TE     -0.185400
     18 C16        -5.0240    0.1440   -3.4670 ca        1 3TE      0.731300
     19 N3         -4.8560   -0.8520   -4.3850 nb        1 3TE     -0.710500
     20 C20        -5.6300   -0.7900   -5.4990 ca        1 3TE      0.467100
     21 C21        -5.4950   -1.8510   -6.5410 c3        1 3TE     -0.157400
     22 C19        -6.5590    0.2560   -5.6880 ca        1 3TE     -0.379600
     23 C17        -6.6600    1.2430   -4.6810 ca        1 3TE      0.467100
     24 C18        -7.6330    2.3640   -4.8500 c3        1 3TE     -0.157400
     25 N          -1.3580   -0.1770   -0.7650 ns        1 3TE     -0.522400
     26 C14         2.5430   -3.2480    3.5090 ca        1 3TE     -0.125000
     27 C13         3.3590   -4.3810    3.2890 ca        1 3TE     -0.127000
     28 C12         4.4750   -4.2860    2.4970 ca        1 3TE     -0.115000
     29 C11         4.8190   -3.0500    1.8860 ca        1 3TE     -0.037000
     30 H1          1.6730    1.7280    1.9660 h4        1 3TE      0.041100
     31 H2          1.3170   -1.0760    4.1020 hc        1 3TE      0.060700
     32 H3          2.6410    0.0120    3.5350 hc        1 3TE      0.060700
     33 H4          3.7080    0.1920    1.6010 ha        1 3TE      0.139000
     34 H5          5.7500    0.3430    0.1870 ha        1 3TE      0.132000
     35 H6          7.1940   -1.6510   -0.1590 ha        1 3TE      0.132000
     36 H7          6.6020   -3.8280    0.9150 ha        1 3TE      0.132000
     37 H8         -2.4720   -1.2830   -3.1460 h1        1 3TE      0.116700
     38 H9         -3.6470   -2.2410   -2.1670 h1        1 3TE      0.116700
     39 H10        -4.4480   -1.8780   -6.9360 hc        1 3TE      0.061033
     40 H11        -6.1940   -1.6510   -7.3880 hc        1 3TE      0.061033
     41 H12        -5.7320   -2.8540   -6.1070 hc        1 3TE      0.061033
     42 H13        -7.1830    0.3020   -6.5870 ha        1 3TE      0.155000
     43 H14        -8.3870    2.3510   -4.0230 hc        1 3TE      0.061033
     44 H15        -8.1670    2.2670   -5.8260 hc        1 3TE      0.061033
     45 H16        -7.1020    3.3480   -4.8240 hc        1 3TE      0.061033
     46 H17        -1.5760    0.6530   -1.2790 hn        1 3TE      0.350500
     47 H18         1.6590   -3.3530    4.1560 ha        1 3TE      0.133000
     48 H19         3.0850   -5.3340    3.7650 ha        1 3TE      0.133000
     49 H20         5.1210   -5.1600    2.3220 ha        1 3TE      0.133000
@<TRIPOS>BOND
     1    1    7 1   
     2    1    8 2   
     3    1   25 1   
     4    2    3 2   
     5    2    8 1   
     6    2   30 1   
     7    3    4 1   
     8    3    7 1   
     9    4    5 1   
    10    4   31 1   
    11    4   32 1   
    12    5    6 ar  
    13    5   26 ar  
    14    6    9 ar  
    15    6   29 ar  
    16    9   10 ar  
    17    9   33 1   
    18   10   12 ar  
    19   10   34 1   
    20   11   18 ar  
    21   11   23 ar  
    22   12   13 ar  
    23   12   35 1   
    24   13   29 ar  
    25   13   36 1   
    26   14   15 2   
    27   15   16 1   
    28   15   25 1   
    29   16   17 1   
    30   16   37 1   
    31   16   38 1   
    32   17   18 1   
    33   18   19 ar  
    34   19   20 ar  
    35   20   21 1   
    36   20   22 ar  
    37   21   39 1   
    38   21   40 1   
    39   21   41 1   
    40   22   23 ar  
    41   22   42 1   
    42   23   24 1   
    43   24   43 1   
    44   24   44 1   
    45   24   45 1   
    46   25   46 1   
    47   26   27 ar  
    48   26   47 1   
    49   27   28 ar  
    50   27   48 1   
    51   28   29 ar  
    52   28   49 1   
@<TRIPOS>SUBSTRUCTURE
     1 3TE         1 TEMP              0 ****  ****    0 ROOT
