@<TRIPOS>MOLECULE
3TF
  133   133     1     0     0
SMALL
bcc


@<TRIPOS>ATOM
      1 C1         -1.3370    4.5080   -1.7820 c3        1 3TF      0.300900
      2 O1         -0.9950    3.9140   -0.5440 os        1 3TF     -0.439600
      3 C2         -2.2130    3.4800   -2.5260 c3        1 3TF      0.099100
      4 O2         -3.2510    3.0120   -1.6870 oh        1 3TF     -0.608800
      5 C3         -1.3800    2.2940   -3.0350 c3        1 3TF      0.075100
      6 O3         -2.1110    1.5330   -3.9830 oh        1 3TF     -0.607800
      7 C4         -0.1130    2.7890   -3.7510 c3        1 3TF      0.130100
      8 O4          0.7180    1.7000   -4.1080 oh        1 3TF     -0.595800
      9 C5          0.6760    3.6760   -2.7780 c3        1 3TF      0.100100
     10 O5         -0.1210    4.8130   -2.4260 os        1 3TF     -0.435600
     11 C6          1.9560    4.2340   -3.4060 c3        1 3TF      0.137400
     12 O6          2.9410    4.4670   -2.4230 oh        1 3TF     -0.607800
     13 C7         -0.6610    4.8540    0.4740 c3        1 3TF      0.117400
     14 O7         -2.1180    2.8640    1.6190 os        1 3TF     -0.437900
     15 C8         -0.0400    4.0760    1.6330 c3        1 3TF      0.150100
     16 O8          0.9080    3.1050    1.1630 os        1 3TF     -0.426900
     17 C9         -1.0510    3.2980    2.4750 c3        1 3TF      0.140400
     18 O9          2.2800    4.7850    0.6200 o         1 3TF     -0.561000
     19 C10        -3.0600    2.0480    2.1910 c         1 3TF      0.630100
     20 O10        -2.9360    1.7680    3.3850 o         1 3TF     -0.537000
     21 C11        -4.1130    1.6270    1.2160 c3        1 3TF     -0.131400
     22 C12        -5.2660    0.9390    1.9140 c3        1 3TF     -0.077400
     23 C13        -6.2940    0.4630    0.9110 c3        1 3TF     -0.079400
     24 C14        -7.4560   -0.2150    1.6050 c3        1 3TF     -0.078400
     25 C15        -8.4860   -0.6960    0.6050 c3        1 3TF     -0.079400
     26 C16        -9.6490   -1.3730    1.2980 c3        1 3TF     -0.079400
     27 C17       -10.6790   -1.8550    0.2990 c3        1 3TF     -0.079400
     28 C18       -11.8420   -2.5320    0.9920 c3        1 3TF     -0.079400
     29 C19       -12.8720   -3.0130   -0.0070 c3        1 3TF     -0.079400
     30 C20       -14.0350   -3.6900    0.6860 c3        1 3TF     -0.079400
     31 C21       -15.0650   -4.1720   -0.3130 c3        1 3TF     -0.079400
     32 C22       -16.2280   -4.8490    0.3800 c3        1 3TF     -0.079400
     33 C23       -17.2580   -5.3310   -0.6190 c3        1 3TF     -0.079400
     34 C24       -18.4220   -6.0080    0.0730 c3        1 3TF     -0.080400
     35 C25       -19.4500   -6.4890   -0.9180 c3        1 3TF     -0.092100
     36 C26         2.0900    3.5670    0.6480 c         1 3TF      0.643100
     37 C27         2.9840    2.4690    0.1620 c3        1 3TF     -0.137400
     38 C28         4.2600    2.4150    0.9770 c3        1 3TF     -0.074400
     39 C29         5.2100    1.3810    0.4100 c3        1 3TF     -0.079400
     40 C30         6.4830    1.3090    1.2260 c3        1 3TF     -0.078400
     41 C31         7.4370    0.2790    0.6600 c3        1 3TF     -0.079400
     42 C32         8.7100    0.2050    1.4750 c3        1 3TF     -0.079400
     43 C33         9.6650   -0.8250    0.9090 c3        1 3TF     -0.079400
     44 C34        10.9380   -0.8990    1.7250 c3        1 3TF     -0.077400
     45 C35        11.8920   -1.9290    1.1570 c3        1 3TF     -0.049200
     46 C36        13.1480   -2.0250    1.9370 c2        1 3TF     -0.174200
     47 C37        14.1470   -2.8610    1.6370 c2        1 3TF     -0.174200
     48 C38        14.1210   -3.7950    0.4870 c3        1 3TF     -0.049200
     49 C39        15.3860   -4.6210    0.3880 c3        1 3TF     -0.077400
     50 C40        15.3320   -5.5640   -0.7950 c3        1 3TF     -0.079400
     51 C41        16.5960   -6.3910   -0.8960 c3        1 3TF     -0.079400
     52 C42        16.5430   -7.3350   -2.0780 c3        1 3TF     -0.080400
     53 C43        17.7990   -8.1610   -2.1830 c3        1 3TF     -0.092100
     54 H1         -1.8640    5.4950   -1.6650 h2        1 3TF      0.089700
     55 H2         -2.7340    3.9840   -3.3870 h1        1 3TF      0.097700
     56 HO2        -2.8510    2.7570   -0.8400 ho        1 3TF      0.431000
     57 H3         -1.0930    1.6350   -2.1670 h1        1 3TF      0.065700
     58 HO3        -2.9690    1.3430   -3.5810 ho        1 3TF      0.421000
     59 H4         -0.3980    3.3680   -4.6720 h1        1 3TF      0.059700
     60 HO4         0.1630    1.0880   -4.6110 ho        1 3TF      0.425000
     61 H5          0.9270    3.0950   -1.8450 h1        1 3TF      0.076700
     62 H6          2.4020    3.4620   -4.0900 h1        1 3TF      0.067700
     63 H6A         1.7310    5.1770   -3.9700 h1        1 3TF      0.067700
     64 HO6         2.5790    5.0960   -1.7840 ho        1 3TF      0.419000
     65 H7          0.0790    5.5990    0.0730 h1        1 3TF      0.057700
     66 H7A        -1.5950    5.3700    0.8200 h1        1 3TF      0.057700
     67 H8          0.4950    4.8110    2.3010 h1        1 3TF      0.078700
     68 H9         -1.4830    3.9650    3.2660 h1        1 3TF      0.068700
     69 H9A        -0.5700    2.4030    2.9500 h1        1 3TF      0.068700
     70 H11        -4.4740    2.5310    0.6540 hc        1 3TF      0.081700
     71 H11A       -3.6360    0.9370    0.4680 hc        1 3TF      0.081700
     72 H12        -4.8780    0.0700    2.5100 hc        1 3TF      0.058700
     73 H12A       -5.7400    1.6480    2.6420 hc        1 3TF      0.058700
     74 H13        -6.6700    1.3340    0.3120 hc        1 3TF      0.041700
     75 H13A       -5.8170   -0.2530    0.1910 hc        1 3TF      0.041700
     76 H14        -7.0800   -1.0850    2.2060 hc        1 3TF      0.042700
     77 H14A       -7.9350    0.5010    2.3240 hc        1 3TF      0.042700
     78 H15        -8.8610    0.1740    0.0040 hc        1 3TF      0.039700
     79 H15A       -8.0070   -1.4130   -0.1130 hc        1 3TF      0.039700
     80 H16        -9.2740   -2.2420    1.9000 hc        1 3TF      0.040700
     81 H16A      -10.1280   -0.6560    2.0170 hc        1 3TF      0.040700
     82 H17       -11.0540   -0.9850   -0.3030 hc        1 3TF      0.039700
     83 H17A      -10.2000   -2.5710   -0.4190 hc        1 3TF      0.039700
     84 H18       -11.4670   -3.4010    1.5940 hc        1 3TF      0.039700
     85 H18A      -12.3210   -1.8150    1.7100 hc        1 3TF      0.039700
     86 H19       -13.2470   -2.1440   -0.6090 hc        1 3TF      0.039700
     87 H19A      -12.3930   -3.7300   -0.7250 hc        1 3TF      0.039700
     88 H20       -13.6600   -4.5590    1.2880 hc        1 3TF      0.039700
     89 H20A      -14.5140   -2.9730    1.4040 hc        1 3TF      0.039700
     90 H21       -15.4400   -3.3030   -0.9150 hc        1 3TF      0.039700
     91 H21A      -14.5860   -4.8890   -1.0310 hc        1 3TF      0.039700
     92 H22       -15.8530   -5.7180    0.9820 hc        1 3TF      0.039700
     93 H22A      -16.7070   -4.1320    1.0980 hc        1 3TF      0.039700
     94 H23       -17.6340   -4.4620   -1.2210 hc        1 3TF      0.039700
     95 H23A      -16.7790   -6.0480   -1.3370 hc        1 3TF      0.039700
     96 H24       -18.0450   -6.8760    0.6760 hc        1 3TF      0.038700
     97 H24A      -18.8980   -5.2900    0.7920 hc        1 3TF      0.038700
     98 H25       -19.8560   -5.6350   -1.5110 hc        1 3TF      0.032700
     99 H25A      -19.0000   -7.2250   -1.6270 hc        1 3TF      0.032700
    100 H25B      -20.2990   -6.9850   -0.3870 hc        1 3TF      0.032700
    101 H27         2.4450    1.4860    0.2110 hc        1 3TF      0.092700
    102 H27A        3.2180    2.6950   -0.9180 hc        1 3TF      0.092700
    103 H28         4.7490    3.4250    0.9710 hc        1 3TF      0.053200
    104 H28A        4.0180    2.1640    2.0420 hc        1 3TF      0.053200
    105 H29         4.7110    0.3760    0.4000 hc        1 3TF      0.044700
    106 H29A        5.4570    1.6400   -0.6530 hc        1 3TF      0.044700
    107 H30         6.9790    2.3160    1.2370 hc        1 3TF      0.041200
    108 H30A        6.2360    1.0500    2.2890 hc        1 3TF      0.041200
    109 H31         6.9400   -0.7270    0.6460 hc        1 3TF      0.040700
    110 H31A        7.6850    0.5400   -0.4030 hc        1 3TF      0.040700
    111 H32         9.2070    1.2110    1.4890 hc        1 3TF      0.040200
    112 H32A        8.4620   -0.0560    2.5380 hc        1 3TF      0.040200
    113 H33         9.1680   -1.8300    0.8940 hc        1 3TF      0.040200
    114 H33A        9.9140   -0.5630   -0.1530 hc        1 3TF      0.040200
    115 H34        11.4350    0.1060    1.7400 hc        1 3TF      0.041700
    116 H34A       10.6900   -1.1620    2.7870 hc        1 3TF      0.041700
    117 H35        11.3890   -2.9360    1.1350 hc        1 3TF      0.047700
    118 H35A       12.1340   -1.6690    0.0890 hc        1 3TF      0.047700
    119 H36        13.2270   -1.3530    2.8080 ha        1 3TF      0.122000
    120 H37        15.0580   -2.8850    2.2570 ha        1 3TF      0.122000
    121 H38        13.2320   -4.4780    0.5810 hc        1 3TF      0.047700
    122 H38A       13.9770   -3.2110   -0.4650 hc        1 3TF      0.047700
    123 H39        16.2730   -3.9410    0.2860 hc        1 3TF      0.041700
    124 H39A       15.5270   -5.2090    1.3320 hc        1 3TF      0.041700
    125 H40        14.4450   -6.2440   -0.6930 hc        1 3TF      0.039700
    126 H40A       15.1910   -4.9760   -1.7400 hc        1 3TF      0.039700
    127 H41        17.4830   -5.7120   -0.9980 hc        1 3TF      0.039700
    128 H41A       16.7370   -6.9800    0.0480 hc        1 3TF      0.039700
    129 H42        15.6540   -8.0130   -1.9760 hc        1 3TF      0.038700
    130 H42A       16.4000   -6.7450   -3.0220 hc        1 3TF      0.038700
    131 H43        17.7390   -8.8490   -3.0600 hc        1 3TF      0.032700
    132 H43A       18.6930   -7.5040   -2.3110 hc        1 3TF      0.032700
    133 H43B       17.9460   -8.7750   -1.2620 hc        1 3TF      0.032700
@<TRIPOS>BOND
     1    1    2 1   
     2    1    3 1   
     3    1   10 1   
     4    1   54 1   
     5    2   13 1   
     6    3    4 1   
     7    3    5 1   
     8    3   55 1   
     9    4   56 1   
    10    5    6 1   
    11    5    7 1   
    12    5   57 1   
    13    6   58 1   
    14    7    8 1   
    15    7    9 1   
    16    7   59 1   
    17    8   60 1   
    18    9   10 1   
    19    9   11 1   
    20    9   61 1   
    21   11   12 1   
    22   11   62 1   
    23   11   63 1   
    24   12   64 1   
    25   13   15 1   
    26   13   65 1   
    27   13   66 1   
    28   14   17 1   
    29   14   19 1   
    30   15   16 1   
    31   15   17 1   
    32   15   67 1   
    33   16   36 1   
    34   17   68 1   
    35   17   69 1   
    36   18   36 2   
    37   19   20 2   
    38   19   21 1   
    39   21   22 1   
    40   21   70 1   
    41   21   71 1   
    42   22   23 1   
    43   22   72 1   
    44   22   73 1   
    45   23   24 1   
    46   23   74 1   
    47   23   75 1   
    48   24   25 1   
    49   24   76 1   
    50   24   77 1   
    51   25   26 1   
    52   25   78 1   
    53   25   79 1   
    54   26   27 1   
    55   26   80 1   
    56   26   81 1   
    57   27   28 1   
    58   27   82 1   
    59   27   83 1   
    60   28   29 1   
    61   28   84 1   
    62   28   85 1   
    63   29   30 1   
    64   29   86 1   
    65   29   87 1   
    66   30   31 1   
    67   30   88 1   
    68   30   89 1   
    69   31   32 1   
    70   31   90 1   
    71   31   91 1   
    72   32   33 1   
    73   32   92 1   
    74   32   93 1   
    75   33   34 1   
    76   33   94 1   
    77   33   95 1   
    78   34   35 1   
    79   34   96 1   
    80   34   97 1   
    81   35   98 1   
    82   35   99 1   
    83   35  100 1   
    84   36   37 1   
    85   37   38 1   
    86   37  101 1   
    87   37  102 1   
    88   38   39 1   
    89   38  103 1   
    90   38  104 1   
    91   39   40 1   
    92   39  105 1   
    93   39  106 1   
    94   40   41 1   
    95   40  107 1   
    96   40  108 1   
    97   41   42 1   
    98   41  109 1   
    99   41  110 1   
   100   42   43 1   
   101   42  111 1   
   102   42  112 1   
   103   43   44 1   
   104   43  113 1   
   105   43  114 1   
   106   44   45 1   
   107   44  115 1   
   108   44  116 1   
   109   45   46 1   
   110   45  117 1   
   111   45  118 1   
   112   46   47 2   
   113   46  119 1   
   114   47   48 1   
   115   47  120 1   
   116   48   49 1   
   117   48  121 1   
   118   48  122 1   
   119   49   50 1   
   120   49  123 1   
   121   49  124 1   
   122   50   51 1   
   123   50  125 1   
   124   50  126 1   
   125   51   52 1   
   126   51  127 1   
   127   51  128 1   
   128   52   53 1   
   129   52  129 1   
   130   52  130 1   
   131   53  131 1   
   132   53  132 1   
   133   53  133 1   
@<TRIPOS>SUBSTRUCTURE
     1 3TF         1 TEMP              0 ****  ****    0 ROOT
