@<TRIPOS>MOLECULE
3TF
  133   133     1     0     0
SMALL
bcc


@<TRIPOS>ATOM
      1 C1          1.0190    0.0030    0.8970 c3        1 3TF      0.331900
      2 O1          0.4050   -1.1900    1.3420 os        1 3TF     -0.421600
      3 C2          2.4750    0.0490    1.3990 c3        1 3TF      0.136100
      4 O2          3.1650   -1.0670    0.8760 oh        1 3TF     -0.589800
      5 C3          2.4830    0.0580    2.9340 c3        1 3TF      0.065100
      6 O3          3.8380    0.1840    3.3420 oh        1 3TF     -0.609800
      7 C4          1.6590    1.2630    3.4170 c3        1 3TF      0.091100
      8 O4          1.5770    1.2620    4.8330 oh        1 3TF     -0.590800
      9 C5          0.2290    1.1370    2.8670 c3        1 3TF      0.105100
     10 O5          0.2580    1.0690    1.4380 os        1 3TF     -0.444600
     11 C6         -0.6150    2.3690    3.2110 c3        1 3TF      0.136400
     12 O6         -1.9760    2.0320    3.3660 oh        1 3TF     -0.608800
     13 C7         -0.7610   -1.5280    0.5870 c3        1 3TF      0.100400
     14 O7          0.2580   -4.1220    1.5290 os        1 3TF     -0.420900
     15 C8         -1.6090   -2.5150    1.3850 c3        1 3TF      0.128100
     16 O8         -1.6590   -2.1690    2.7780 os        1 3TF     -0.419900
     17 C9         -1.1440   -3.9700    1.3250 c3        1 3TF      0.135400
     18 O9         -3.0910   -0.5290    2.2620 o         1 3TF     -0.563000
     19 C10         1.0700   -4.2200    0.4280 c         1 3TF      0.647100
     20 O10         0.5530   -4.1820   -0.6910 o         1 3TF     -0.560000
     21 C11         2.5130   -4.3530    0.7990 c3        1 3TF     -0.132400
     22 C12         3.2460   -5.2520   -0.1730 c3        1 3TF     -0.078400
     23 C13         4.7290   -5.2690    0.1260 c3        1 3TF     -0.077400
     24 C14         5.4680   -6.1810   -0.8300 c3        1 3TF     -0.079400
     25 C15         6.9520   -6.1970   -0.5370 c3        1 3TF     -0.078400
     26 C16         7.6910   -7.1100   -1.4920 c3        1 3TF     -0.079400
     27 C17         9.1760   -7.1260   -1.2000 c3        1 3TF     -0.078400
     28 C18         9.9140   -8.0390   -2.1550 c3        1 3TF     -0.079400
     29 C19        11.3990   -8.0550   -1.8630 c3        1 3TF     -0.078400
     30 C20        12.1370   -8.9690   -2.8180 c3        1 3TF     -0.079400
     31 C21        13.6220   -8.9850   -2.5260 c3        1 3TF     -0.078400
     32 C22        14.3600   -9.8990   -3.4810 c3        1 3TF     -0.079400
     33 C23        15.8450   -9.9150   -3.1890 c3        1 3TF     -0.079400
     34 C24        16.5840  -10.8290   -4.1430 c3        1 3TF     -0.080400
     35 C25        18.0640  -10.8480   -3.8560 c3        1 3TF     -0.092100
     36 C26        -2.4800   -1.1380    3.1460 c         1 3TF      0.639100
     37 C27        -2.4840   -0.8910    4.6220 c3        1 3TF     -0.137400
     38 C28        -3.8360   -1.2270    5.2170 c3        1 3TF     -0.074400
     39 C29        -3.8720   -0.8800    6.6900 c3        1 3TF     -0.078400
     40 C30        -5.2150   -1.2230    7.2970 c3        1 3TF     -0.079400
     41 C31        -5.2550   -0.8740    8.7700 c3        1 3TF     -0.079400
     42 C32        -6.5980   -1.2180    9.3790 c3        1 3TF     -0.079400
     43 C33        -6.6380   -0.8690   10.8510 c3        1 3TF     -0.079400
     44 C34        -7.9810   -1.2130   11.4600 c3        1 3TF     -0.077400
     45 C35        -8.0190   -0.8630   12.9330 c3        1 3TF     -0.049200
     46 C36        -9.3230   -1.1920   13.5550 c2        1 3TF     -0.174200
     47 C37        -9.6030   -0.9830   14.8460 c2        1 3TF     -0.174200
     48 C38        -8.6440   -0.3980   15.8120 c3        1 3TF     -0.049200
     49 C39        -9.2310   -0.2720   17.2020 c3        1 3TF     -0.077400
     50 C40        -8.2300    0.3270   18.1660 c3        1 3TF     -0.079400
     51 C41        -8.8150    0.4540   19.5570 c3        1 3TF     -0.079400
     52 C42        -7.8160    1.0540   20.5230 c3        1 3TF     -0.080400
     53 C43        -8.3940    1.1810   21.9080 c3        1 3TF     -0.092100
     54 H1          0.9650    0.1370   -0.2180 h2        1 3TF      0.094700
     55 H2          2.9480    0.9980    1.0140 h1        1 3TF      0.060700
     56 HO2         4.0360   -1.0650    1.3000 ho        1 3TF      0.421000
     57 H3          2.0370   -0.8990    3.3220 h1        1 3TF      0.088700
     58 HO3         3.8780   -0.1150    4.2580 ho        1 3TF      0.412000
     59 H4          2.1310    2.2180    3.0540 h1        1 3TF      0.057700
     60 HO4         2.4450    1.5370    5.1530 ho        1 3TF      0.406000
     61 H5         -0.2540    0.2030    3.2730 h1        1 3TF      0.080700
     62 H6         -0.4910    3.1540    2.4190 h1        1 3TF      0.062700
     63 H6A        -0.3000    2.7680    4.2130 h1        1 3TF      0.062700
     64 HO6        -2.2790    1.6310    2.5380 ho        1 3TF      0.424000
     65 H7         -0.4370   -2.0070   -0.3770 h1        1 3TF      0.065200
     66 H7A        -1.3650   -0.6020    0.3890 h1        1 3TF      0.065200
     67 H8         -2.6580   -2.4700    0.9640 h1        1 3TF      0.075700
     68 H9         -1.5970   -4.5460    2.1780 h1        1 3TF      0.077700
     69 H9A        -1.4530   -4.4070    0.3380 h1        1 3TF      0.077700
     70 H11         2.9470   -3.3130    0.7830 hc        1 3TF      0.089200
     71 H11A        2.5990   -4.7450    1.8450 hc        1 3TF      0.089200
     72 H12         3.0690   -4.8910   -1.2220 hc        1 3TF      0.055700
     73 H12A        2.8350   -6.2940   -0.1080 hc        1 3TF      0.055700
     74 H13         5.1410   -4.2280    0.0460 hc        1 3TF      0.040200
     75 H13A        4.8980   -5.6120    1.1800 hc        1 3TF      0.040200
     76 H14         5.2950   -5.8390   -1.8850 hc        1 3TF      0.042700
     77 H14A        5.0570   -7.2220   -0.7500 hc        1 3TF      0.042700
     78 H15         7.3630   -5.1560   -0.6190 hc        1 3TF      0.039200
     79 H15A        7.1240   -6.5380    0.5180 hc        1 3TF      0.039200
     80 H16         7.5190   -6.7690   -2.5470 hc        1 3TF      0.040200
     81 H16A        7.2800   -8.1510   -1.4110 hc        1 3TF      0.040200
     82 H17         9.5860   -6.0850   -1.2820 hc        1 3TF      0.039200
     83 H17A        9.3480   -7.4670   -0.1450 hc        1 3TF      0.039200
     84 H18         9.7420   -7.6980   -3.2100 hc        1 3TF      0.039700
     85 H18A        9.5030   -9.0800   -2.0730 hc        1 3TF      0.039700
     86 H19        11.5710   -8.3960   -0.8080 hc        1 3TF      0.039700
     87 H19A       11.8100   -7.0150   -1.9450 hc        1 3TF      0.039700
     88 H20        11.9650   -8.6280   -3.8730 hc        1 3TF      0.039700
     89 H20A       11.7260  -10.0100   -2.7360 hc        1 3TF      0.039700
     90 H21        14.0330   -7.9440   -2.6080 hc        1 3TF      0.039700
     91 H21A       13.7940   -9.3260   -1.4710 hc        1 3TF      0.039700
     92 H22        13.9490  -10.9390   -3.3990 hc        1 3TF      0.039700
     93 H22A       14.1880   -9.5580   -4.5360 hc        1 3TF      0.039700
     94 H23        16.0170  -10.2560   -2.1340 hc        1 3TF      0.039700
     95 H23A       16.2560   -8.8740   -3.2710 hc        1 3TF      0.039700
     96 H24        16.4100  -10.4870   -5.1980 hc        1 3TF      0.038700
     97 H24A       16.1710  -11.8680   -4.0610 hc        1 3TF      0.038700
     98 H25        18.2590  -11.2090   -2.8180 hc        1 3TF      0.032700
     99 H25A       18.4990   -9.8240   -3.9580 hc        1 3TF      0.032700
    100 H25B       18.5890  -11.5270   -4.5710 hc        1 3TF      0.032700
    101 H27        -2.2510    0.2010    4.7730 hc        1 3TF      0.091700
    102 H27A       -1.6780   -1.4980    5.1120 hc        1 3TF      0.091700
    103 H28        -4.0480   -2.3200    5.0810 hc        1 3TF      0.052200
    104 H28A       -4.6360   -0.6580    4.6720 hc        1 3TF      0.052200
    105 H29        -3.6670    0.2150    6.8230 hc        1 3TF      0.044200
    106 H29A       -3.0610   -1.4370    7.2290 hc        1 3TF      0.044200
    107 H30        -5.4200   -2.3180    7.1640 hc        1 3TF      0.041200
    108 H30A       -6.0250   -0.6660    6.7560 hc        1 3TF      0.041200
    109 H31        -5.0510    0.2210    8.9020 hc        1 3TF      0.040700
    110 H31A       -4.4440   -1.4290    9.3100 hc        1 3TF      0.040700
    111 H32        -7.4090   -0.6620    8.8380 hc        1 3TF      0.040200
    112 H32A       -6.8020   -2.3130    9.2460 hc        1 3TF      0.040200
    113 H33        -6.4350    0.2270   10.9830 hc        1 3TF      0.039700
    114 H33A       -5.8270   -1.4230   11.3910 hc        1 3TF      0.039700
    115 H34        -8.1840   -2.3090   11.3280 hc        1 3TF      0.041700
    116 H34A       -8.7930   -0.6580   10.9190 hc        1 3TF      0.041700
    117 H35        -7.8090    0.2340   13.0640 hc        1 3TF      0.047200
    118 H35A       -7.1990   -1.4140   13.4710 hc        1 3TF      0.047200
    119 H36       -10.0810   -1.6310   12.8860 ha        1 3TF      0.122000
    120 H37       -10.5940   -1.2490   15.2500 ha        1 3TF      0.122000
    121 H38        -7.7180   -1.0360   15.8510 hc        1 3TF      0.047700
    122 H38A       -8.3190    0.6160   15.4480 hc        1 3TF      0.047700
    123 H39        -9.5480   -1.2840   17.5700 hc        1 3TF      0.041700
    124 H39A      -10.1500    0.3700   17.1660 hc        1 3TF      0.041700
    125 H40        -7.9130    1.3390   17.7990 hc        1 3TF      0.039700
    126 H40A       -7.3110   -0.3150   18.2020 hc        1 3TF      0.039700
    127 H41        -9.7350    1.0960   19.5210 hc        1 3TF      0.039700
    128 H41A       -9.1330   -0.5570   19.9250 hc        1 3TF      0.039700
    129 H42        -6.8960    0.4110   20.5550 hc        1 3TF      0.038700
    130 H42A       -7.4980    2.0640   20.1520 hc        1 3TF      0.038700
    131 H43        -9.2970    1.8390   21.9000 hc        1 3TF      0.032700
    132 H43A       -7.6410    1.6250   22.6040 hc        1 3TF      0.032700
    133 H43B       -8.6930    0.1810   22.3050 hc        1 3TF      0.032700
@<TRIPOS>BOND
     1    1    2 1   
     2    1    3 1   
     3    1   10 1   
     4    1   54 1   
     5    2   13 1   
     6    3    4 1   
     7    3    5 1   
     8    3   55 1   
     9    4   56 1   
    10    5    6 1   
    11    5    7 1   
    12    5   57 1   
    13    6   58 1   
    14    7    8 1   
    15    7    9 1   
    16    7   59 1   
    17    8   60 1   
    18    9   10 1   
    19    9   11 1   
    20    9   61 1   
    21   11   12 1   
    22   11   62 1   
    23   11   63 1   
    24   12   64 1   
    25   13   15 1   
    26   13   65 1   
    27   13   66 1   
    28   14   17 1   
    29   14   19 1   
    30   15   16 1   
    31   15   17 1   
    32   15   67 1   
    33   16   36 1   
    34   17   68 1   
    35   17   69 1   
    36   18   36 2   
    37   19   20 2   
    38   19   21 1   
    39   21   22 1   
    40   21   70 1   
    41   21   71 1   
    42   22   23 1   
    43   22   72 1   
    44   22   73 1   
    45   23   24 1   
    46   23   74 1   
    47   23   75 1   
    48   24   25 1   
    49   24   76 1   
    50   24   77 1   
    51   25   26 1   
    52   25   78 1   
    53   25   79 1   
    54   26   27 1   
    55   26   80 1   
    56   26   81 1   
    57   27   28 1   
    58   27   82 1   
    59   27   83 1   
    60   28   29 1   
    61   28   84 1   
    62   28   85 1   
    63   29   30 1   
    64   29   86 1   
    65   29   87 1   
    66   30   31 1   
    67   30   88 1   
    68   30   89 1   
    69   31   32 1   
    70   31   90 1   
    71   31   91 1   
    72   32   33 1   
    73   32   92 1   
    74   32   93 1   
    75   33   34 1   
    76   33   94 1   
    77   33   95 1   
    78   34   35 1   
    79   34   96 1   
    80   34   97 1   
    81   35   98 1   
    82   35   99 1   
    83   35  100 1   
    84   36   37 1   
    85   37   38 1   
    86   37  101 1   
    87   37  102 1   
    88   38   39 1   
    89   38  103 1   
    90   38  104 1   
    91   39   40 1   
    92   39  105 1   
    93   39  106 1   
    94   40   41 1   
    95   40  107 1   
    96   40  108 1   
    97   41   42 1   
    98   41  109 1   
    99   41  110 1   
   100   42   43 1   
   101   42  111 1   
   102   42  112 1   
   103   43   44 1   
   104   43  113 1   
   105   43  114 1   
   106   44   45 1   
   107   44  115 1   
   108   44  116 1   
   109   45   46 1   
   110   45  117 1   
   111   45  118 1   
   112   46   47 2   
   113   46  119 1   
   114   47   48 1   
   115   47  120 1   
   116   48   49 1   
   117   48  121 1   
   118   48  122 1   
   119   49   50 1   
   120   49  123 1   
   121   49  124 1   
   122   50   51 1   
   123   50  125 1   
   124   50  126 1   
   125   51   52 1   
   126   51  127 1   
   127   51  128 1   
   128   52   53 1   
   129   52  129 1   
   130   52  130 1   
   131   53  131 1   
   132   53  132 1   
   133   53  133 1   
@<TRIPOS>SUBSTRUCTURE
     1 3TF         1 TEMP              0 ****  ****    0 ROOT
