@<TRIPOS>MOLECULE
3TF
  133   132     1     0     0
SMALL
bcc


@<TRIPOS>ATOM
      1 C1          5.2710    8.4450    0.4050 c3        1 3TF      0.142000
      2 O1          4.3750    8.0740    1.4130 os        1 3TF     -0.286000
      3 C2          6.5680    8.8950    1.0410 c3        1 3TF      0.015000
      4 O2          7.0060    7.8850    1.9640 oh        1 3TF     -0.319000
      5 C3          6.4240   10.1830    1.7700 c3        1 3TF     -0.001000
      6 O3          7.7390   10.6340    2.1920 oh        1 3TF     -0.339000
      7 C4          5.8000   11.2420    0.9260 c3        1 3TF     -0.026000
      8 O4          5.5300   12.3900    1.7470 oh        1 3TF     -0.330000
      9 C5          4.5010   10.7790    0.2860 c3        1 3TF     -0.038000
     10 O5          4.6480    9.5070   -0.4280 os        1 3TF     -0.295000
     11 C6          4.0380   11.8250   -0.6800 c3        1 3TF     -0.022000
     12 O6          4.6170   11.5870   -1.9450 oh        1 3TF     -0.332000
     13 C7          4.4680    6.6820    1.7960 c3        1 3TF     -0.013000
     14 O7          3.2790    4.2400    0.1500 os        1 3TF     -0.292000
     15 C8          3.0790    6.0440    1.7390 c3        1 3TF     -0.008000
     16 O8          2.3890    6.3070    2.9410 os        1 3TF     -0.279000
     17 C9          3.2160    4.5480    1.5540 c3        1 3TF     -0.033000
     18 O9          0.3670    6.3300    1.8400 o         1 3TF     -0.348000
     19 C10         3.2170    2.8320   -0.1410 c2        1 3TF      0.308000
     20 O10         2.9900    2.0380    0.7510 o         1 3TF     -0.344000
     21 C11         3.4210    2.3300   -1.5910 c3        1 3TF     -0.155000
     22 C12         2.6050    1.0310   -1.8070 c3        1 3TF     -0.158000
     23 C13         3.3370    0.1200   -2.8360 c3        1 3TF     -0.157000
     24 C14         2.5380   -1.1970   -3.0210 c3        1 3TF     -0.158000
     25 C15         3.2460   -2.0890   -4.0670 c3        1 3TF     -0.158000
     26 C16         2.7400   -3.5440   -3.9320 c3        1 3TF     -0.158000
     27 C17         3.4750   -4.4340   -4.9360 c3        1 3TF     -0.158000
     28 C18         2.9350   -5.8790   -4.8370 c3        1 3TF     -0.158000
     29 C19         3.7640   -6.7940   -5.7320 c3        1 3TF     -0.158000
     30 C20         3.2770   -8.2470   -5.5740 c3        1 3TF     -0.158000
     31 C21         4.0800   -9.1590   -6.5130 c3        1 3TF     -0.158000
     32 C22         3.5640  -10.6010   -6.3930 c3        1 3TF     -0.158000
     33 C23         4.4160  -11.5280   -7.2890 c3        1 3TF     -0.158000
     34 C24         3.9280  -12.9690   -7.1420 c3        1 3TF     -0.159000
     35 C25         4.7120  -13.8740   -8.0990 c3        1 3TF     -0.210000
     36 C26         0.9720    6.0700    2.8630 c2        1 3TF      0.306000
     37 C27         0.2100    5.5050    4.0940 c3        1 3TF     -0.155000
     38 C28        -1.3050    5.4870    3.7960 c3        1 3TF     -0.158000
     39 C29        -1.9940    4.4070    4.6750 c3        1 3TF     -0.161000
     40 C30        -3.5100    4.4130    4.4020 c3        1 3TF     -0.156000
     41 C31        -4.1360    3.1100    4.9360 c3        1 3TF     -0.158000
     42 C32        -5.5260    2.9120    4.3030 c3        1 3TF     -0.157000
     43 C33        -6.0300    1.4910    4.6000 c3        1 3TF     -0.158000
     44 C34        -7.2230    1.1610    3.6650 c3        1 3TF     -0.156000
     45 C35        -7.7650   -0.2520    3.9950 c3        1 3TF     -0.132000
     46 C36        -9.2660   -0.3360    3.6030 c2        1 3TF     -0.170000
     47 C37        -9.8700   -1.5810    3.4100 c1        1 3TF     -0.170000
     48 C38        -9.0550   -2.8610    3.5840 c2        1 3TF     -0.132000
     49 C39        -9.9690   -4.0970    3.3540 c3        1 3TF     -0.156000
     50 C40        -9.1360   -5.3840    3.4990 c3        1 3TF     -0.158000
     51 C41       -10.0150   -6.6050    3.1840 c3        1 3TF     -0.158000
     52 C42        -9.1700   -7.8890    3.2860 c3        1 3TF     -0.159000
     53 C43       -10.0280   -9.0890    2.9200 c3        1 3TF     -0.210000
     54 H1          5.4500    7.6690   -0.1590 h2        1 3TF      0.149000
     55 H2          7.2460    9.0000    0.3400 h1        1 3TF      0.098000
     56 HO2         7.8340    7.6300    1.7560 ho        1 3TF      0.226000
     57 H3          5.8710   10.0400    2.5570 h1        1 3TF      0.117000
     58 HO3         7.7960   10.5920    3.0750 ho        1 3TF      0.227000
     59 H4          6.4290   11.4970    0.2210 h1        1 3TF      0.107000
     60 HO4         6.1230   13.0320    1.5650 ho        1 3TF      0.216000
     61 H5          3.8290   10.6740    0.9790 h1        1 3TF      0.120000
     62 H6          4.3110   12.7130   -0.3570 h1        1 3TF      0.100000
     63 H6A         3.0650   11.7910   -0.7560 h1        1 3TF      0.100000
     64 HO6         4.4130   12.2550   -2.4950 ho        1 3TF      0.214000
     65 H7          4.8200    6.6170    2.7090 h1        1 3TF      0.114500
     66 H7A         5.0690    6.2130    1.1810 h1        1 3TF      0.114500
     67 H8          2.5780    6.4210    0.9850 h1        1 3TF      0.147000
     68 H9          4.0370    4.2380    1.9950 h1        1 3TF      0.106500
     69 H9A         2.4370    4.0970    1.9540 h1        1 3TF      0.106500
     70 H11         3.1160    3.0150   -2.2190 hc        1 3TF      0.117500
     71 H11A        4.3720    2.1480   -1.7430 hc        1 3TF      0.117500
     72 H12         1.7120    1.2580   -2.1480 hc        1 3TF      0.098000
     73 H12A        2.5170    0.5550   -0.9550 hc        1 3TF      0.098000
     74 H13         3.4030    0.5860   -3.6980 hc        1 3TF      0.080500
     75 H13A        4.2370   -0.0870   -2.5080 hc        1 3TF      0.080500
     76 H14         1.6300   -0.9880   -3.3300 hc        1 3TF      0.082500
     77 H14A        2.4900   -1.6710   -2.1680 hc        1 3TF      0.082500
     78 H15         4.2140   -2.0640   -3.9150 hc        1 3TF      0.079000
     79 H15A        3.0480   -1.7560   -4.9660 hc        1 3TF      0.079000
     80 H16         1.7800   -3.5740   -4.1120 hc        1 3TF      0.080000
     81 H16A        2.9110   -3.8650   -3.0260 hc        1 3TF      0.080000
     82 H17         3.3310   -4.0940   -5.8400 hc        1 3TF      0.079000
     83 H17A        4.4320   -4.4300   -4.7350 hc        1 3TF      0.079000
     84 H18         2.0010   -5.8980   -5.1270 hc        1 3TF      0.079000
     85 H18A        2.9950   -6.1860   -3.9120 hc        1 3TF      0.079000
     86 H19         4.7040   -6.7360   -5.4740 hc        1 3TF      0.079000
     87 H19A        3.6650   -6.5160   -6.6620 hc        1 3TF      0.079000
     88 H20         3.4070   -8.5360   -4.6490 hc        1 3TF      0.079000
     89 H20A        2.3250   -8.2990   -5.8030 hc        1 3TF      0.079000
     90 H21         5.0220   -9.1290   -6.2660 hc        1 3TF      0.079000
     91 H21A        3.9750   -8.8500   -7.4360 hc        1 3TF      0.079000
     92 H22         3.6310  -10.8940   -5.4640 hc        1 3TF      0.079000
     93 H22A        2.6270  -10.6380   -6.6820 hc        1 3TF      0.079000
     94 H23         4.3300  -11.2470   -8.2240 hc        1 3TF      0.079000
     95 H23A        5.3530  -11.4720   -7.0170 hc        1 3TF      0.079000
     96 H24         2.9750  -13.0140   -7.3580 hc        1 3TF      0.078000
     97 H24A        4.0680  -13.2680   -6.2260 hc        1 3TF      0.078000
     98 H25         5.6700  -13.7950   -7.9110 hc        1 3TF      0.072000
     99 H25A        4.5370  -13.6000   -9.0250 hc        1 3TF      0.072000
    100 H25B        4.4300  -14.8060   -7.9740 hc        1 3TF      0.072000
    101 H27         0.5160    4.5980    4.2780 hc        1 3TF      0.118500
    102 H27A        0.3830    6.0740    4.8750 hc        1 3TF      0.118500
    103 H28        -1.6890    6.3670    3.9990 hc        1 3TF      0.097500
    104 H28A       -1.4490    5.2790    2.8520 hc        1 3TF      0.097500
    105 H29        -1.8310    4.6030    5.6250 hc        1 3TF      0.083000
    106 H29A       -1.6270    3.5260    4.4560 hc        1 3TF      0.083000
    107 H30        -3.9190    5.1800    4.8530 hc        1 3TF      0.081000
    108 H30A       -3.6670    4.4790    3.4400 hc        1 3TF      0.081000
    109 H31        -4.2250    3.1660    5.9130 hc        1 3TF      0.081000
    110 H31A       -3.5610    2.3530    4.7040 hc        1 3TF      0.081000
    111 H32        -6.1510    3.5650    4.6790 hc        1 3TF      0.079000
    112 H32A       -5.4640    3.0390    3.3370 hc        1 3TF      0.079000
    113 H33        -5.3080    0.8510    4.4460 hc        1 3TF      0.080000
    114 H33A       -6.3210    1.4370    5.5330 hc        1 3TF      0.080000
    115 H34        -6.9250    1.1870    2.7370 hc        1 3TF      0.080500
    116 H34A       -7.9350    1.8230    3.7980 hc        1 3TF      0.080500
    117 H35        -7.6670   -0.4230    4.9520 hc        1 3TF      0.087500
    118 H35A       -7.2580   -0.9210    3.4910 hc        1 3TF      0.087500
    119 H36        -9.7880    0.4830    3.4920 ha        1 3TF      0.121000
    120 H37       -10.8140   -1.6330    3.1640 ha        1 3TF      0.121000
    121 H38        -8.3230   -2.8720    2.9340 ha        1 3TF      0.087000
    122 H38A       -8.6880   -2.8920    4.4880 ha        1 3TF      0.087000
    123 H39       -10.3530   -4.0560    2.4540 hc        1 3TF      0.080500
    124 H39A      -10.6920   -4.0980    4.0180 hc        1 3TF      0.080500
    125 H40        -8.8000   -5.4520    4.4120 hc        1 3TF      0.079000
    126 H40A       -8.3820   -5.3560    2.8770 hc        1 3TF      0.079000
    127 H41       -10.3760   -6.5220    2.2740 hc        1 3TF      0.079000
    128 H41A      -10.7540   -6.6490    3.8250 hc        1 3TF      0.079000
    129 H42        -8.4150   -7.8300    2.6720 hc        1 3TF      0.078000
    130 H42A       -8.8400   -7.9900    4.2000 hc        1 3TF      0.078000
    131 H43       -10.5430   -8.8880    2.1110 hc        1 3TF      0.072000
    132 H43A      -10.6410   -9.2880    3.6550 hc        1 3TF      0.072000
    133 H43B       -9.4490   -9.8690    2.7560 hc        1 3TF      0.072000
@<TRIPOS>BOND
     1    1    2 1   
     2    1    3 1   
     3    1   10 1   
     4    1   54 1   
     5    2   13 1   
     6    3    4 1   
     7    3    5 1   
     8    3   55 1   
     9    4   56 1   
    10    5    6 1   
    11    5    7 1   
    12    5   57 1   
    13    6   58 1   
    14    7    8 1   
    15    7    9 1   
    16    7   59 1   
    17    8   60 1   
    18    9   10 1   
    19    9   11 1   
    20    9   61 1   
    21   11   12 1   
    22   11   62 1   
    23   11   63 1   
    24   12   64 1   
    25   13   15 1   
    26   13   65 1   
    27   13   66 1   
    28   14   17 1   
    29   14   19 1   
    30   15   16 1   
    31   15   17 1   
    32   15   67 1   
    33   16   36 1   
    34   17   68 1   
    35   17   69 1   
    36   18   36 1   
    37   19   20 1   
    38   19   21 1   
    39   21   22 1   
    40   21   70 1   
    41   21   71 1   
    42   22   23 1   
    43   22   72 1   
    44   22   73 1   
    45   23   24 1   
    46   23   74 1   
    47   23   75 1   
    48   24   25 1   
    49   24   76 1   
    50   24   77 1   
    51   25   26 1   
    52   25   78 1   
    53   25   79 1   
    54   26   27 1   
    55   26   80 1   
    56   26   81 1   
    57   27   28 1   
    58   27   82 1   
    59   27   83 1   
    60   28   29 1   
    61   28   84 1   
    62   28   85 1   
    63   29   30 1   
    64   29   86 1   
    65   29   87 1   
    66   30   31 1   
    67   30   88 1   
    68   30   89 1   
    69   31   32 1   
    70   31   90 1   
    71   31   91 1   
    72   32   33 1   
    73   32   92 1   
    74   32   93 1   
    75   33   34 1   
    76   33   94 1   
    77   33   95 1   
    78   34   35 1   
    79   34   96 1   
    80   34   97 1   
    81   35   98 1   
    82   35   99 1   
    83   35  100 1   
    84   36   37 1   
    85   37   38 1   
    86   37  101 1   
    87   37  102 1   
    88   38   39 1   
    89   38  103 1   
    90   38  104 1   
    91   39   40 1   
    92   39  105 1   
    93   39  106 1   
    94   40   41 1   
    95   40  107 1   
    96   40  108 1   
    97   41   42 1   
    98   41  109 1   
    99   41  110 1   
   100   42   43 1   
   101   42  111 1   
   102   42  112 1   
   103   43   44 1   
   104   43  113 1   
   105   43  114 1   
   106   44   45 1   
   107   44  115 1   
   108   44  116 1   
   109   45   46 1   
   110   45  117 1   
   111   45  118 1   
   112   46   47 1   
   113   46  119 1   
   114   47  120 1   
   115   48   49 1   
   116   48  121 1   
   117   48  122 1   
   118   49   50 1   
   119   49  123 1   
   120   49  124 1   
   121   50   51 1   
   122   50  125 1   
   123   50  126 1   
   124   51   52 1   
   125   51  127 1   
   126   51  128 1   
   127   52   53 1   
   128   52  129 1   
   129   52  130 1   
   130   53  131 1   
   131   53  132 1   
   132   53  133 1   
@<TRIPOS>SUBSTRUCTURE
     1 3TF         1 TEMP              0 ****  ****    0 ROOT
