@<TRIPOS>MOLECULE
3TF
  133   133     1     0     0
SMALL
bcc


@<TRIPOS>ATOM
      1 C1          0.1260    1.1680   -0.1230 c3        1 3TF      0.297900
      2 O1         -0.5630   -0.0620   -0.0110 os        1 3TF     -0.433600
      3 C2          1.6250    0.8040   -0.2130 c3        1 3TF      0.106100
      4 O2          1.8350   -0.1020   -1.2730 oh        1 3TF     -0.591800
      5 C3          2.1090    0.2220    1.1210 c3        1 3TF      0.068100
      6 O3          3.5010   -0.0210    1.1460 oh        1 3TF     -0.590800
      7 C4          1.7190    1.1680    2.2690 c3        1 3TF      0.095100
      8 O4          2.0810    0.6250    3.5260 oh        1 3TF     -0.594800
      9 C5          0.1950    1.3520    2.2640 c3        1 3TF      0.101100
     10 O5         -0.2160    1.9250    1.0160 os        1 3TF     -0.441600
     11 C6         -0.2580    2.3300    3.3490 c3        1 3TF      0.137400
     12 O6         -1.6540    2.2550    3.5450 oh        1 3TF     -0.603800
     13 C7         -1.8810   -0.0520   -0.5520 c3        1 3TF      0.118400
     14 O7         -0.5610   -2.5080   -0.7480 os        1 3TF     -0.436900
     15 C8         -2.5700   -1.3400   -0.1030 c3        1 3TF      0.144100
     16 O8         -2.4730   -1.4830    1.3220 os        1 3TF     -0.427900
     17 C9         -1.9890   -2.6160   -0.7080 c3        1 3TF      0.140400
     18 O9         -4.1710   -0.0420    1.5180 o         1 3TF     -0.554000
     19 C10         0.1460   -3.6810   -0.8290 c         1 3TF      0.631100
     20 O10        -0.4830   -4.7380   -0.9030 o         1 3TF     -0.538000
     21 C11         1.6240   -3.4500   -0.8320 c3        1 3TF     -0.132400
     22 C12         2.3840   -4.7510   -0.6850 c3        1 3TF     -0.076400
     23 C13         3.8770   -4.5110   -0.7530 c3        1 3TF     -0.080400
     24 C14         4.6430   -5.8070   -0.5970 c3        1 3TF     -0.078400
     25 C15         6.1360   -5.5720   -0.6690 c3        1 3TF     -0.079400
     26 C16         6.9040   -6.8670   -0.5150 c3        1 3TF     -0.079400
     27 C17         8.3980   -6.6330   -0.5890 c3        1 3TF     -0.078400
     28 C18         9.1650   -7.9280   -0.4350 c3        1 3TF     -0.079400
     29 C19        10.6590   -7.6940   -0.5110 c3        1 3TF     -0.079400
     30 C20        11.4260   -8.9900   -0.3580 c3        1 3TF     -0.079400
     31 C21        12.9200   -8.7560   -0.4340 c3        1 3TF     -0.078400
     32 C22        13.6870  -10.0520   -0.2820 c3        1 3TF     -0.079400
     33 C23        15.1810   -9.8180   -0.3590 c3        1 3TF     -0.079400
     34 C24        15.9500  -11.1140   -0.2070 c3        1 3TF     -0.080400
     35 C25        17.4370  -10.8860   -0.2830 c3        1 3TF     -0.092100
     36 C26        -3.3190   -0.7240    2.0920 c         1 3TF      0.639100
     37 C27        -3.0280   -0.8420    3.5540 c3        1 3TF     -0.137400
     38 C28        -4.3050   -1.0050    4.3510 c3        1 3TF     -0.075400
     39 C29        -4.0160   -0.9630    5.8360 c3        1 3TF     -0.079400
     40 C30        -5.2840   -1.1440    6.6420 c3        1 3TF     -0.078400
     41 C31        -5.0000   -1.0930    8.1280 c3        1 3TF     -0.079400
     42 C32        -6.2680   -1.2750    8.9350 c3        1 3TF     -0.079400
     43 C33        -5.9850   -1.2210   10.4210 c3        1 3TF     -0.079400
     44 C34        -7.2530   -1.4030   11.2280 c3        1 3TF     -0.077400
     45 C35        -6.9690   -1.3460   12.7140 c3        1 3TF     -0.049200
     46 C36        -8.1940   -1.5210   13.5290 c2        1 3TF     -0.174200
     47 C37        -8.2090   -1.4840   14.8660 c2        1 3TF     -0.174200
     48 C38        -7.0020   -1.2610   15.6960 c3        1 3TF     -0.049200
     49 C39        -7.3100   -1.2890   17.1780 c3        1 3TF     -0.077400
     50 C40        -6.0610   -1.0580   18.0010 c3        1 3TF     -0.079400
     51 C41        -6.3670   -1.0850   19.4830 c3        1 3TF     -0.079400
     52 C42        -5.1180   -0.8540   20.3080 c3        1 3TF     -0.080400
     53 C43        -5.4180   -0.8800   21.7840 c3        1 3TF     -0.092100
     54 H1         -0.2060    1.7870   -1.0010 h2        1 3TF      0.091700
     55 H2          2.2170    1.7210   -0.4870 h1        1 3TF      0.085700
     56 HO2         1.2460   -0.8610   -1.1250 ho        1 3TF      0.430000
     57 H3          1.6420   -0.7920    1.2890 h1        1 3TF      0.105700
     58 HO3         3.9410    0.7350    0.7370 ho        1 3TF      0.407000
     59 H4          2.2320    2.1620    2.1390 h1        1 3TF      0.045700
     60 HO4         2.9480    0.2090    3.4100 ho        1 3TF      0.423000
     61 H5         -0.3150    0.3560    2.3990 h1        1 3TF      0.085700
     62 H6          0.1980    2.0250    4.3300 h1        1 3TF      0.066200
     63 H6A         0.0470    3.3750    3.0820 h1        1 3TF      0.066200
     64 HO6        -2.0720    2.5160    2.7140 ho        1 3TF      0.412000
     65 H7         -2.4480    0.8350   -0.1630 h1        1 3TF      0.053200
     66 H7A        -1.8210   -0.0220   -1.6710 h1        1 3TF      0.053200
     67 H8         -3.6580   -1.2740   -0.3980 h1        1 3TF      0.084700
     68 H9         -2.2910   -3.5090   -0.0980 h1        1 3TF      0.069700
     69 H9A        -2.3500   -2.7300   -1.7630 h1        1 3TF      0.069700
     70 H11         1.8970   -2.9420   -1.7970 hc        1 3TF      0.081700
     71 H11A        1.8840   -2.7450    0.0040 hc        1 3TF      0.081700
     72 H12         2.0700   -5.4610   -1.4950 hc        1 3TF      0.057700
     73 H12A        2.1170   -5.2320    0.2920 hc        1 3TF      0.057700
     74 H13         4.1380   -4.0340   -1.7350 hc        1 3TF      0.044200
     75 H13A        4.1810   -3.7930    0.0540 hc        1 3TF      0.044200
     76 H14         4.3840   -6.2820    0.3860 hc        1 3TF      0.041700
     77 H14A        4.3350   -6.5250   -1.4030 hc        1 3TF      0.041700
     78 H15         6.4440   -4.8540    0.1360 hc        1 3TF      0.040200
     79 H15A        6.3960   -5.0960   -1.6520 hc        1 3TF      0.040200
     80 H16         6.6460   -7.3420    0.4680 hc        1 3TF      0.040200
     81 H16A        6.5960   -7.5850   -1.3200 hc        1 3TF      0.040200
     82 H17         8.7060   -5.9150    0.2160 hc        1 3TF      0.039700
     83 H17A        8.6550   -6.1570   -1.5720 hc        1 3TF      0.039700
     84 H18         8.8560   -8.6460   -1.2400 hc        1 3TF      0.039700
     85 H18A        8.9080   -8.4040    0.5480 hc        1 3TF      0.039700
     86 H19        10.9680   -6.9770    0.2950 hc        1 3TF      0.039700
     87 H19A       10.9160   -7.2180   -1.4940 hc        1 3TF      0.039700
     88 H20        11.1160   -9.7080   -1.1630 hc        1 3TF      0.039700
     89 H20A       11.1690   -9.4660    0.6250 hc        1 3TF      0.039700
     90 H21        13.2290   -8.0390    0.3710 hc        1 3TF      0.039700
     91 H21A       13.1760   -8.2800   -1.4170 hc        1 3TF      0.039700
     92 H22        13.4310  -10.5280    0.7010 hc        1 3TF      0.039700
     93 H22A       13.3770  -10.7690   -1.0880 hc        1 3TF      0.039700
     94 H23        15.4380   -9.3420   -1.3420 hc        1 3TF      0.039700
     95 H23A       15.4910   -9.1010    0.4470 hc        1 3TF      0.039700
     96 H24        15.6910  -11.5890    0.7760 hc        1 3TF      0.038700
     97 H24A       15.6370  -11.8300   -1.0120 hc        1 3TF      0.038700
     98 H25        17.7180  -10.4350   -1.2650 hc        1 3TF      0.032700
     99 H25A       17.7720  -10.1940    0.5270 hc        1 3TF      0.032700
    100 H25B       17.9850  -11.8520   -0.1690 hc        1 3TF      0.032700
    101 H27        -2.4940    0.1050    3.8540 hc        1 3TF      0.092700
    102 H27A       -2.3350   -1.7050    3.7370 hc        1 3TF      0.092700
    103 H28        -5.0230   -0.1860    4.0770 hc        1 3TF      0.054200
    104 H28A       -4.7940   -1.9790    4.0880 hc        1 3TF      0.054200
    105 H29        -3.2830   -1.7700    6.1010 hc        1 3TF      0.044700
    106 H29A       -3.5380    0.0180    6.0990 hc        1 3TF      0.044700
    107 H30        -6.0190   -0.3400    6.3720 hc        1 3TF      0.041200
    108 H30A       -5.7590   -2.1260    6.3830 hc        1 3TF      0.041200
    109 H31        -4.5270   -0.1100    8.3880 hc        1 3TF      0.040700
    110 H31A       -4.2640   -1.8960    8.3980 hc        1 3TF      0.040700
    111 H32        -7.0050   -0.4740    8.6630 hc        1 3TF      0.040200
    112 H32A       -6.7400   -2.2600    8.6780 hc        1 3TF      0.040200
    113 H33        -5.5140   -0.2360   10.6790 hc        1 3TF      0.039700
    114 H33A       -5.2480   -2.0220   10.6930 hc        1 3TF      0.039700
    115 H34        -7.7230   -2.3890   10.9720 hc        1 3TF      0.041700
    116 H34A       -7.9910   -0.6040   10.9550 hc        1 3TF      0.041700
    117 H35        -6.2230   -2.1440   12.9860 hc        1 3TF      0.047700
    118 H35A       -6.4890   -0.3600   12.9680 hc        1 3TF      0.047700
    119 H36        -9.1270   -1.6910   12.9670 ha        1 3TF      0.122000
    120 H37        -9.1540   -1.6230   15.4150 ha        1 3TF      0.122000
    121 H38        -6.5420   -0.2700   15.4260 hc        1 3TF      0.047700
    122 H38A       -6.2330   -2.0470   15.4570 hc        1 3TF      0.047700
    123 H39        -8.0700   -0.5000   17.4190 hc        1 3TF      0.041700
    124 H39A       -7.7630   -2.2790   17.4500 hc        1 3TF      0.041700
    125 H40        -5.3010   -1.8470   17.7600 hc        1 3TF      0.039700
    126 H40A       -5.6080   -0.0690   17.7280 hc        1 3TF      0.039700
    127 H41        -7.1270   -0.2960   19.7250 hc        1 3TF      0.039700
    128 H41A       -6.8190   -2.0740   19.7560 hc        1 3TF      0.039700
    129 H42        -4.3590   -1.6440   20.0640 hc        1 3TF      0.038700
    130 H42A       -4.6650    0.1350   20.0320 hc        1 3TF      0.038700
    131 H43        -6.1540   -0.0840   22.0510 hc        1 3TF      0.032700
    132 H43A       -4.4850   -0.7080   22.3730 hc        1 3TF      0.032700
    133 H43B       -5.8470   -1.8670   22.0830 hc        1 3TF      0.032700
@<TRIPOS>BOND
     1    1    2 1   
     2    1    3 1   
     3    1   10 1   
     4    1   54 1   
     5    2   13 1   
     6    3    4 1   
     7    3    5 1   
     8    3   55 1   
     9    4   56 1   
    10    5    6 1   
    11    5    7 1   
    12    5   57 1   
    13    6   58 1   
    14    7    8 1   
    15    7    9 1   
    16    7   59 1   
    17    8   60 1   
    18    9   10 1   
    19    9   11 1   
    20    9   61 1   
    21   11   12 1   
    22   11   62 1   
    23   11   63 1   
    24   12   64 1   
    25   13   15 1   
    26   13   65 1   
    27   13   66 1   
    28   14   17 1   
    29   14   19 1   
    30   15   16 1   
    31   15   17 1   
    32   15   67 1   
    33   16   36 1   
    34   17   68 1   
    35   17   69 1   
    36   18   36 2   
    37   19   20 2   
    38   19   21 1   
    39   21   22 1   
    40   21   70 1   
    41   21   71 1   
    42   22   23 1   
    43   22   72 1   
    44   22   73 1   
    45   23   24 1   
    46   23   74 1   
    47   23   75 1   
    48   24   25 1   
    49   24   76 1   
    50   24   77 1   
    51   25   26 1   
    52   25   78 1   
    53   25   79 1   
    54   26   27 1   
    55   26   80 1   
    56   26   81 1   
    57   27   28 1   
    58   27   82 1   
    59   27   83 1   
    60   28   29 1   
    61   28   84 1   
    62   28   85 1   
    63   29   30 1   
    64   29   86 1   
    65   29   87 1   
    66   30   31 1   
    67   30   88 1   
    68   30   89 1   
    69   31   32 1   
    70   31   90 1   
    71   31   91 1   
    72   32   33 1   
    73   32   92 1   
    74   32   93 1   
    75   33   34 1   
    76   33   94 1   
    77   33   95 1   
    78   34   35 1   
    79   34   96 1   
    80   34   97 1   
    81   35   98 1   
    82   35   99 1   
    83   35  100 1   
    84   36   37 1   
    85   37   38 1   
    86   37  101 1   
    87   37  102 1   
    88   38   39 1   
    89   38  103 1   
    90   38  104 1   
    91   39   40 1   
    92   39  105 1   
    93   39  106 1   
    94   40   41 1   
    95   40  107 1   
    96   40  108 1   
    97   41   42 1   
    98   41  109 1   
    99   41  110 1   
   100   42   43 1   
   101   42  111 1   
   102   42  112 1   
   103   43   44 1   
   104   43  113 1   
   105   43  114 1   
   106   44   45 1   
   107   44  115 1   
   108   44  116 1   
   109   45   46 1   
   110   45  117 1   
   111   45  118 1   
   112   46   47 2   
   113   46  119 1   
   114   47   48 1   
   115   47  120 1   
   116   48   49 1   
   117   48  121 1   
   118   48  122 1   
   119   49   50 1   
   120   49  123 1   
   121   49  124 1   
   122   50   51 1   
   123   50  125 1   
   124   50  126 1   
   125   51   52 1   
   126   51  127 1   
   127   51  128 1   
   128   52   53 1   
   129   52  129 1   
   130   52  130 1   
   131   53  131 1   
   132   53  132 1   
   133   53  133 1   
@<TRIPOS>SUBSTRUCTURE
     1 3TF         1 TEMP              0 ****  ****    0 ROOT
