@<TRIPOS>MOLECULE
3TG
   40    42     1     0     0
SMALL
bcc


@<TRIPOS>ATOM
      1 C          -0.0140    0.4440   -0.0390 c         1 3TG      0.562100
      2 N           0.4040   -0.1680    2.3640 na        1 3TG     -0.213900
      3 O           0.7470    1.4120   -0.0090 o         1 3TG     -0.513100
      4 CA         -0.3520   -0.4060    1.1760 c3        1 3TG     -0.057700
      5 CAB         2.4570   -3.6970   -2.4570 ca        1 3TG     -0.126500
      6 CAC        -1.9550    0.4710   -6.1960 ca        1 3TG     -0.126500
      7 CAD         1.0870   -3.7370   -2.7170 ca        1 3TG     -0.127250
      8 CAE         3.0820   -2.4740   -2.2160 ca        1 3TG     -0.127250
      9 CAF        -2.5610   -0.2090   -5.1400 ca        1 3TG     -0.127250
     10 CAG        -0.6640    0.9760   -6.0430 ca        1 3TG     -0.127250
     11 CAH         1.3970   -0.4710    4.3510 cc        1 3TG      0.297200
     12 CAI         0.3450   -2.5580   -2.7330 ca        1 3TG     -0.123250
     13 CAJ         2.3410   -1.2930   -2.2330 ca        1 3TG     -0.123250
     14 CAK        -1.8800   -0.3860   -3.9370 ca        1 3TG     -0.123250
     15 CAL         0.0180    0.8020   -4.8400 ca        1 3TG     -0.123250
     16 CAM         0.7150   -1.1420    3.3240 cd        1 3TG     -0.265600
     17 CAN         0.9090    1.0500    2.8500 cd        1 3TG      0.413400
     18 CAO        -0.7490    0.0230   -1.2820 c3        1 3TG     -0.175400
     19 NAQ         1.5120    0.8870    4.0440 nc        1 3TG     -0.673000
     20 CAS         0.9650   -1.3270   -2.4890 ca        1 3TG     -0.082800
     21 CAT        -0.5850    0.1180   -3.7760 ca        1 3TG     -0.082800
     22 CAU         0.1780   -0.0490   -2.4960 c3        1 3TG      0.031900
     23 HA         -1.4500   -0.2340    1.3920 h1        1 3TG      0.078200
     24 HAA        -0.2210   -1.4900    0.8850 h1        1 3TG      0.078200
     25 HAC        -2.4930    0.6090   -7.1450 ha        1 3TG      0.134000
     26 HAD         0.5920   -4.6990   -2.9140 ha        1 3TG      0.133500
     27 HAE         4.1620   -2.4380   -2.0120 ha        1 3TG      0.133500
     28 HAF        -3.5800   -0.6090   -5.2560 ha        1 3TG      0.133500
     29 HAG        -0.1810    1.5130   -6.8720 ha        1 3TG      0.133500
     30 HAH         1.8050   -0.8810    5.2730 h4        1 3TG      0.041100
     31 HAI        -0.7340   -2.5890   -2.9530 ha        1 3TG      0.134000
     32 HAJ         2.8410   -0.3310   -2.0400 ha        1 3TG      0.134000
     33 HAK        -2.3700   -0.9250   -3.1120 ha        1 3TG      0.134000
     34 HAL         1.0360    1.2030   -4.7260 ha        1 3TG      0.134000
     35 HAM         0.4410   -2.1870    3.2030 h4        1 3TG      0.173000
     36 HAN         0.8350    1.9840    2.2790 h5        1 3TG      0.078100
     37 HAO        -1.2520   -0.9660   -1.1270 hc        1 3TG      0.073700
     38 HAOA       -1.5470    0.7910   -1.4750 hc        1 3TG      0.073700
     39 HAU         0.9030    0.8180   -2.4130 hc        1 3TG      0.083700
     40 HAB         3.0430   -4.6280   -2.4450 ha        1 3TG      0.134000
@<TRIPOS>BOND
     1    1    3 2   
     2    1    4 1   
     3    1   18 1   
     4    2    4 1   
     5    2   16 1   
     6    2   17 1   
     7    4   23 1   
     8    4   24 1   
     9    5    7 ar  
    10    5    8 ar  
    11    5   40 1   
    12    6    9 ar  
    13    6   10 ar  
    14    6   25 1   
    15    7   12 ar  
    16    7   26 1   
    17    8   13 ar  
    18    8   27 1   
    19    9   14 ar  
    20    9   28 1   
    21   10   15 ar  
    22   10   29 1   
    23   11   16 2   
    24   11   19 1   
    25   11   30 1   
    26   12   20 ar  
    27   12   31 1   
    28   13   20 ar  
    29   13   32 1   
    30   14   21 ar  
    31   14   33 1   
    32   15   21 ar  
    33   15   34 1   
    34   16   35 1   
    35   17   19 2   
    36   17   36 1   
    37   18   22 1   
    38   18   37 1   
    39   18   38 1   
    40   20   22 1   
    41   21   22 1   
    42   22   39 1   
@<TRIPOS>SUBSTRUCTURE
     1 3TG         1 TEMP              0 ****  ****    0 ROOT
