@<TRIPOS>MOLECULE
3TG
   40    42     1     0     0
SMALL
bcc


@<TRIPOS>ATOM
      1 C           1.2110    1.1830   -0.1380 c         1 3TG      0.562100
      2 N           3.6310    0.7150    0.3580 na        1 3TG     -0.213900
      3 O           1.4240    1.4700   -1.3170 o         1 3TG     -0.513100
      4 CA          2.3060    0.8660    0.8680 c3        1 3TG     -0.057700
      5 CAB        -0.7450   -3.8360    0.1580 ca        1 3TG     -0.126500
      6 CAC        -5.2130    1.7190    0.2180 ca        1 3TG     -0.126500
      7 CAD        -1.2860   -3.0480    1.1740 ca        1 3TG     -0.127250
      8 CAE        -0.3470   -3.2430   -1.0400 ca        1 3TG     -0.127250
      9 CAF        -4.3250    1.6820    1.2930 ca        1 3TG     -0.127250
     10 CAG        -4.7810    1.3310   -1.0500 ca        1 3TG     -0.127250
     11 CAH         5.7730    0.0860    0.1500 cc        1 3TG      0.297200
     12 CAI        -1.4260   -1.6740    0.9940 ca        1 3TG     -0.123250
     13 CAJ        -0.4870   -1.8680   -1.2230 ca        1 3TG     -0.123250
     14 CAK        -3.0110    1.2580    1.1020 ca        1 3TG     -0.123250
     15 CAL        -3.4670    0.9080   -1.2430 ca        1 3TG     -0.123250
     16 CAM         4.6080   -0.1290    0.9050 cd        1 3TG     -0.265600
     17 CAN         4.2440    1.4050   -0.7030 cd        1 3TG      0.413400
     18 CAO        -0.1690    1.1720    0.4610 c3        1 3TG     -0.175400
     19 NAQ         5.5320    1.0370   -0.8440 nc        1 3TG     -0.673000
     20 CAS        -1.0260   -1.0720   -0.2050 ca        1 3TG     -0.082800
     21 CAT        -2.5700    0.8670   -0.1670 ca        1 3TG     -0.082800
     22 CAU        -1.1640    0.4070   -0.4120 c3        1 3TG      0.031900
     23 HA          2.2930    1.7020    1.6310 h1        1 3TG      0.078200
     24 HAA         2.0200   -0.0910    1.3970 h1        1 3TG      0.078200
     25 HAC        -6.2490    2.0540    0.3700 ha        1 3TG      0.134000
     26 HAD        -1.6060   -3.5120    2.1190 ha        1 3TG      0.133500
     27 HAE         0.0790   -3.8600   -1.8450 ha        1 3TG      0.133500
     28 HAF        -4.6610    1.9880    2.2950 ha        1 3TG      0.133500
     29 HAG        -5.4770    1.3580   -1.9010 ha        1 3TG      0.133500
     30 HAH         6.7480   -0.3840    0.2630 h4        1 3TG      0.041100
     31 HAI        -1.8670   -1.0560    1.7920 ha        1 3TG      0.134000
     32 HAJ        -0.1700   -1.4080   -2.1720 ha        1 3TG      0.134000
     33 HAK        -2.3210    1.2330    1.9590 ha        1 3TG      0.134000
     34 HAL        -3.1330    0.6030   -2.2460 ha        1 3TG      0.134000
     35 HAM         4.4060   -0.7860    1.7470 h4        1 3TG      0.173000
     36 HAN         3.6950    2.1140   -1.3350 h5        1 3TG      0.078100
     37 HAO        -0.1480    0.7310    1.4920 hc        1 3TG      0.073700
     38 HAOA       -0.5040    2.2420    0.5500 hc        1 3TG      0.073700
     39 HAU        -0.9090    0.6430   -1.4910 hc        1 3TG      0.083700
     40 HAB        -0.6350   -4.9200    0.3000 ha        1 3TG      0.134000
@<TRIPOS>BOND
     1    1    3 2   
     2    1    4 1   
     3    1   18 1   
     4    2    4 1   
     5    2   16 1   
     6    2   17 1   
     7    4   23 1   
     8    4   24 1   
     9    5    7 ar  
    10    5    8 ar  
    11    5   40 1   
    12    6    9 ar  
    13    6   10 ar  
    14    6   25 1   
    15    7   12 ar  
    16    7   26 1   
    17    8   13 ar  
    18    8   27 1   
    19    9   14 ar  
    20    9   28 1   
    21   10   15 ar  
    22   10   29 1   
    23   11   16 2   
    24   11   19 1   
    25   11   30 1   
    26   12   20 ar  
    27   12   31 1   
    28   13   20 ar  
    29   13   32 1   
    30   14   21 ar  
    31   14   33 1   
    32   15   21 ar  
    33   15   34 1   
    34   16   35 1   
    35   17   19 2   
    36   17   36 1   
    37   18   22 1   
    38   18   37 1   
    39   18   38 1   
    40   20   22 1   
    41   21   22 1   
    42   22   39 1   
@<TRIPOS>SUBSTRUCTURE
     1 3TG         1 TEMP              0 ****  ****    0 ROOT
