@<TRIPOS>MOLECULE
3TG
   40    31     1     0     0
SMALL
bcc


@<TRIPOS>ATOM
      1 C          -0.0810    0.5710    1.8440 c1        1 3TG      0.221000
      2 N          -0.3860    2.5890    3.1880 n2        1 3TG     -0.151500
      3 O           1.1220    0.7240    1.9120 o         1 3TG     -0.273000
      4 CA         -1.0120    1.3400    2.8070 c2        1 3TG     -0.068000
      5 CAB         1.2160   -4.8040   -1.1840 c1        1 3TG     -0.128000
      6 CAC        -0.7800    1.3730   -3.9140 c1        1 3TG     -0.128000
      7 CAD        -0.1170   -4.5230   -0.9260 c1        1 3TG     -0.128000
      8 CAE         2.1550   -3.7910   -1.1410 c1        1 3TG     -0.128000
      9 CAF        -1.0620    0.0230   -3.7670 c1        1 3TG     -0.128000
     10 CAG        -0.1330    2.0610   -2.8990 c1        1 3TG     -0.128000
     11 CAH         0.1290    4.7160    3.3510 c1        1 3TG     -0.162000
     12 CAI        -0.5090   -3.2240   -0.6250 c1        1 3TG     -0.128000
     13 CAJ         1.7630   -2.4900   -0.8400 c1        1 3TG     -0.119000
     14 CAK        -0.6970   -0.6400   -2.6050 c1        1 3TG     -0.128000
     15 CAL         0.2340    1.3950   -1.7320 c1        1 3TG     -0.119000
     16 CAM        -0.4820    3.7710    2.5650 c1        1 3TG     -0.162000
     17 CAN         0.2790    2.7840    4.3580 c1        1 3TG     -0.109000
     18 CAO        -0.6780   -0.4170    0.8080 c2        1 3TG     -0.204000
     19 NAQ         0.5930    4.1030    4.4480 n2        1 3TG     -0.151500
     20 CAS         0.4320   -2.2110   -0.5830 c1        1 3TG     -0.074500
     21 CAT        -0.0480    0.0470   -1.5870 c1        1 3TG     -0.074500
     22 CAU         0.3630   -0.6910   -0.3020 c3        1 3TG     -0.025000
     23 HA         -1.8630    1.5250    2.3600 ha        1 3TG      0.117000
     24 HAA        -1.1750    0.7980    3.6070 ha        1 3TG      0.117000
     25 HAB         1.4920   -5.7180   -1.3960 ha        1 3TG      0.132125
     26 HAC        -1.0380    1.8410   -4.7330 ha        1 3TG      0.132125
     27 HAD        -0.7850   -5.2430   -0.9570 ha        1 3TG      0.132125
     28 HAE         3.0950   -3.9880   -1.3230 ha        1 3TG      0.132125
     29 HAF        -1.5190   -0.4610   -4.4830 ha        1 3TG      0.132125
     30 HAG         0.0660    3.0090   -3.0020 ha        1 3TG      0.132125
     31 HAH         0.2110    5.6720    3.1460 DU        1 3TG      0.189333
     32 HAI        -1.4460   -3.0270   -0.4440 ha        1 3TG      0.132125
     33 HAJ         2.4290   -1.7710   -0.8100 ha        1 3TG      0.139000
     34 HAK        -0.8950   -1.5880   -2.5020 ha        1 3TG      0.132125
     35 HAL         0.6910    1.8790   -1.0170 ha        1 3TG      0.139000
     36 HAM        -0.9110    3.9320    1.7020 DU        1 3TG      0.189333
     37 HAN         0.4950    2.0930    5.0190 DU        1 3TG      0.189333
     38 HAO        -0.9100   -1.2580    1.2540 ha        1 3TG      0.116000
     39 HAOA       -1.4820   -0.0270    0.4110 ha        1 3TG      0.116000
     40 HAU         1.2400   -0.3740   -0.0090 hc        1 3TG      0.125000
@<TRIPOS>BOND
     1    1    3 1   
     2    1    4 1   
     3    2   16 1   
     4    2   17 1   
     5    4   23 1   
     6    4   24 1   
     7    5    8 1   
     8    5   25 1   
     9    6   10 1   
    10    6   26 1   
    11    7   12 1   
    12    7   27 1   
    13    8   28 1   
    14    9   14 1   
    15    9   29 1   
    16   10   30 1   
    17   11   16 1   
    18   11   19 1   
    19   12   32 1   
    20   13   20 1   
    21   13   33 1   
    22   14   34 1   
    23   15   21 1   
    24   15   35 1   
    25   17   19 1   
    26   18   22 1   
    27   18   38 1   
    28   18   39 1   
    29   20   22 1   
    30   21   22 1   
    31   22   40 1   
@<TRIPOS>SUBSTRUCTURE
     1 3TG         1 TEMP              0 ****  ****    0 ROOT
