@<TRIPOS>MOLECULE
3TH
   36    39     1     0     0
SMALL
bcc


@<TRIPOS>ATOM
      1 CL          0.9900   -1.4820    3.0280 cl        1 3TH      0.021600
      2 C2          2.3840   -0.9710    2.2760 cc        1 3TH     -0.011700
      3 C3          2.8770    0.3110    2.2730 cd        1 3TH     -0.063000
      4 C4          4.0920    0.3820    1.5300 cd        1 3TH     -0.162000
      5 C5          5.0830    1.2910    1.1190 cd        1 3TH      0.052000
      6 C6          6.0250    0.5480    0.3410 cc        1 3TH     -0.288900
      7 N7          5.5970   -0.8040    0.2320 na        1 3TH     -0.143100
      8 C9          4.4560   -0.9270    0.9860 cc        1 3TH     -0.014400
      9 S10         3.3570   -2.0900    1.4030 ss        1 3TH      0.115200
     10 C11         7.1500    1.1510   -0.2930 c         1 3TH      0.591700
     11 O12         7.5710    2.3010   -0.1960 o         1 3TH     -0.460100
     12 N13         7.9620    0.2840   -1.2570 n4        1 3TH     -0.679800
     13 C14         8.8700   -0.6620   -0.5240 c3        1 3TH      0.056500
     14 C15        10.3250   -0.1970   -0.4920 c3        1 3TH     -0.052100
     15 C16        11.0610   -0.5320   -1.7350 ca        1 3TH     -0.161300
     16 C17        12.1210    0.2660   -2.1700 ca        1 3TH     -0.086000
     17 C18        12.8730   -0.1040   -3.2840 ca        1 3TH     -0.122000
     18 C19        12.5720   -1.2820   -3.9690 ca        1 3TH     -0.079000
     19 C20        11.5150   -2.0910   -3.5610 ca        1 3TH     -0.140000
     20 C21        10.7460   -1.7170   -2.4410 ca        1 3TH      0.032600
     21 N22         9.6530   -2.5110   -2.0350 n         1 3TH     -0.422100
     22 C23         8.7190   -2.0720   -1.1420 c         1 3TH      0.672500
     23 O24         7.7080   -2.7380   -0.8380 o         1 3TH     -0.632500
     24 H3          2.4160    1.1740    2.7650 ha        1 3TH      0.191000
     25 H5          5.1450    2.3620    1.3230 ha        1 3TH      0.194000
     26 HN7         6.1830   -1.5700   -0.0170 hn        1 3TH      0.329700
     27 HN13        8.5340    0.9030   -1.8490 hn        1 3TH      0.462800
     28 H14         8.4910   -0.7370    0.5440 hx        1 3TH      0.134700
     29 H151       10.3860    0.9030   -0.2690 hc        1 3TH      0.101700
     30 H152       10.8190   -0.7300    0.3740 hc        1 3TH      0.101700
     31 H17        12.3720    1.1870   -1.6200 ha        1 3TH      0.152000
     32 H18        13.7100    0.5300   -3.6170 ha        1 3TH      0.162000
     33 H19        13.1750   -1.5790   -4.8430 ha        1 3TH      0.162000
     34 H20        11.2920   -3.0170   -4.1130 ha        1 3TH      0.157000
     35 HN22        9.5810   -3.4430   -2.3920 hn        1 3TH      0.363500
     36 H132        7.3180   -0.2400   -1.8580 hn        1 3TH      0.462800
@<TRIPOS>BOND
     1    1    2 1   
     2    2    3 2   
     3    2    9 1   
     4    3    4 1   
     5    3   24 1   
     6    4    5 1   
     7    4    8 2   
     8    5    6 2   
     9    5   25 1   
    10    6    7 1   
    11    6   10 1   
    12    7    8 1   
    13    7   26 1   
    14    8    9 1   
    15   10   11 2   
    16   10   12 1   
    17   12   13 1   
    18   12   27 1   
    19   12   36 1   
    20   13   14 1   
    21   13   22 1   
    22   13   28 1   
    23   14   15 1   
    24   14   29 1   
    25   14   30 1   
    26   15   16 ar  
    27   15   20 ar  
    28   16   17 ar  
    29   16   31 1   
    30   17   18 ar  
    31   17   32 1   
    32   18   19 ar  
    33   18   33 1   
    34   19   20 ar  
    35   19   34 1   
    36   20   21 1   
    37   21   22 1   
    38   21   35 1   
    39   22   23 2   
@<TRIPOS>SUBSTRUCTURE
     1 3TH         1 TEMP              0 ****  ****    0 ROOT
