@<TRIPOS>MOLECULE
3TH
   35    32     1     0     0
SMALL
bcc


@<TRIPOS>ATOM
      1 CL         -8.9750    0.2540    0.7630 cl        1 3TH      0.046000
      2 C2         -7.2490    0.2080    0.9080 c2        1 3TH     -0.371000
      3 C3         -6.4680    0.8980    1.9030 c1        1 3TH     -0.069000
      4 C4         -4.9080    0.7280    1.5320 c2        1 3TH     -0.148000
      5 C5         -3.6380    1.0830    1.9080 c1        1 3TH     -0.055000
      6 C6         -2.7460    0.5430    0.9770 c1        1 3TH     -0.135000
      7 N7         -3.4920   -0.1550    0.0140 n2        1 3TH     -0.133000
      8 C9         -4.8130   -0.0490    0.3440 c2        1 3TH     -0.303000
      9 S10        -6.2730   -0.4170   -0.1100 ss        1 3TH      0.557000
     10 C11        -1.2050    0.7440    0.9670 c1        1 3TH      0.365000
     11 O12        -0.6720    1.4280    1.8300 o         1 3TH     -0.351000
     12 N13        -0.4190    0.0790    0.0200 n3        1 3TH     -0.366000
     13 C14         1.1090    0.2130    0.0680 c3        1 3TH      0.013000
     14 C15         1.6690    0.1850   -1.2820 c3        1 3TH     -0.125000
     15 C16         3.1830   -0.1860   -1.4080 c2        1 3TH     -0.114000
     16 C17         3.8670   -0.0750   -2.6050 c2        1 3TH     -0.091000
     17 C18         5.2530   -0.3640   -2.6550 c1        1 3TH     -0.151000
     18 C19         5.9430   -0.7700   -1.4700 c1        1 3TH     -0.133500
     19 C20         5.2460   -0.8830   -0.2460 c1        1 3TH     -0.133500
     20 C21         3.8990   -0.6040   -0.1900 c1        1 3TH      0.071000
     21 N22         3.0740   -0.8800    1.0710 n         1 3TH     -0.316000
     22 C23         1.7000   -0.8250    0.9600 c2        1 3TH      0.297000
     23 O24         0.9840   -1.4160    1.7860 o         1 3TH     -0.363000
     24 H3         -6.8350    1.3970    2.6960 DU        1 3TH      0.202000
     25 H5         -3.3990    1.6210    2.6930 DU        1 3TH      0.202000
     26 HN7        -3.1550   -0.6010   -0.7050 DU        1 3TH      0.202000
     27 HN13       -0.8040   -0.3390   -0.6580 hn        1 3TH      0.238000
     28 H14         1.2030    1.0850    0.4550 h1        1 3TH      0.135000
     29 H151        1.1520   -0.4870   -1.8050 hc        1 3TH      0.115000
     30 H152        1.5540    1.1050   -1.6720 hc        1 3TH      0.115000
     31 H17         3.3950    0.2020   -3.4140 ha        1 3TH      0.140000
     32 H18         5.7390   -0.2860   -3.5000 ha        1 3TH      0.138000
     33 H19         6.9120   -0.9710   -1.5070 ha        1 3TH      0.136500
     34 H20         5.7160   -1.1580    0.5570 ha        1 3TH      0.136500
     35 HN22        3.4530   -1.3050    1.7760 hn        1 3TH      0.249000
@<TRIPOS>BOND
     1    1    2 1   
     2    2    3 1   
     3    2    9 1   
     4    3    4 1   
     5    4    5 1   
     6    4    8 1   
     7    5    6 1   
     8    6    7 1   
     9    7    8 1   
    10    8    9 1   
    11   10   11 1   
    12   10   12 1   
    13   12   13 1   
    14   12   27 1   
    15   13   14 1   
    16   13   22 1   
    17   13   28 1   
    18   14   15 1   
    19   14   29 1   
    20   14   30 1   
    21   15   16 1   
    22   15   20 1   
    23   16   17 1   
    24   16   31 1   
    25   17   32 1   
    26   18   19 1   
    27   18   33 1   
    28   19   34 1   
    29   20   21 1   
    30   21   22 1   
    31   21   35 1   
    32   22   23 1   
@<TRIPOS>SUBSTRUCTURE
     1 3TH         1 TEMP              0 ****  ****    0 ROOT
