@<TRIPOS>MOLECULE
3TH
   36    39     1     0     0
SMALL
bcc


@<TRIPOS>ATOM
      1 CL          0.9580   -1.4310    2.9900 cl        1 3TH      0.021600
      2 C2          2.3560   -0.9310    2.2370 cc        1 3TH     -0.011700
      3 C3          2.8400    0.3540    2.2030 cd        1 3TH     -0.063000
      4 C4          4.0610    0.4140    1.4690 cd        1 3TH     -0.162000
      5 C5          5.0490    1.3190    1.0420 cd        1 3TH      0.052000
      6 C6          6.0040    0.5620    0.2930 cc        1 3TH     -0.288900
      7 N7          5.5860   -0.7960    0.2170 na        1 3TH     -0.143100
      8 C9          4.4390   -0.9070    0.9640 cc        1 3TH     -0.014400
      9 S10         3.3440   -2.0660    1.4020 ss        1 3TH      0.115200
     10 C11         7.1290    1.1560   -0.3470 c         1 3TH      0.591700
     11 O12         7.5420    2.3110   -0.2770 o         1 3TH     -0.460100
     12 N13         7.9570    0.2690   -1.2800 n4        1 3TH     -0.679800
     13 C14         8.8650   -0.6510   -0.5130 c3        1 3TH      0.056500
     14 C15        10.3160   -0.1740   -0.4800 c3        1 3TH     -0.052100
     15 C16        11.0660   -0.5370   -1.7080 ca        1 3TH     -0.161300
     16 C17        12.1240    0.2560   -2.1550 ca        1 3TH     -0.086000
     17 C18        12.8890   -0.1380   -3.2510 ca        1 3TH     -0.122000
     18 C19        12.6020   -1.3360   -3.9070 ca        1 3TH     -0.079000
     19 C20        11.5470   -2.1410   -3.4860 ca        1 3TH     -0.140000
     20 C21        10.7650   -1.7430   -2.3840 ca        1 3TH      0.032600
     21 N22         9.6740   -2.5340   -1.9660 n         1 3TH     -0.422100
     22 C23         8.7290   -2.0770   -1.0940 c         1 3TH      0.672500
     23 O24         7.7200   -2.7420   -0.7810 o         1 3TH     -0.632500
     24 H3          2.3680    1.2270    2.6670 ha        1 3TH      0.191000
     25 H5          5.1020    2.3950    1.2180 ha        1 3TH      0.194000
     26 HN7         6.1790   -1.5640   -0.0060 hn        1 3TH      0.329700
     27 HN13        8.5290    0.8760   -1.8830 hn        1 3TH      0.462800
     28 H14         8.4760   -0.6990    0.5530 hx        1 3TH      0.134700
     29 H151       10.3670    0.9320   -0.2870 hc        1 3TH      0.101700
     30 H152       10.8050   -0.6800    0.4030 hc        1 3TH      0.101700
     31 H17        12.3630    1.1940   -1.6270 ha        1 3TH      0.152000
     32 H18        13.7240    0.4930   -3.5940 ha        1 3TH      0.162000
     33 H19        13.2160   -1.6530   -4.7670 ha        1 3TH      0.162000
     34 H20        11.3360   -3.0840   -4.0160 ha        1 3TH      0.157000
     35 HN22        9.6120   -3.4750   -2.2990 hn        1 3TH      0.363500
     36 H132        7.3210   -0.2750   -1.8720 hn        1 3TH      0.462800
@<TRIPOS>BOND
     1    1    2 1   
     2    2    3 2   
     3    2    9 1   
     4    3    4 1   
     5    3   24 1   
     6    4    5 1   
     7    4    8 2   
     8    5    6 2   
     9    5   25 1   
    10    6    7 1   
    11    6   10 1   
    12    7    8 1   
    13    7   26 1   
    14    8    9 1   
    15   10   11 2   
    16   10   12 1   
    17   12   13 1   
    18   12   27 1   
    19   12   36 1   
    20   13   14 1   
    21   13   22 1   
    22   13   28 1   
    23   14   15 1   
    24   14   29 1   
    25   14   30 1   
    26   15   16 ar  
    27   15   20 ar  
    28   16   17 ar  
    29   16   31 1   
    30   17   18 ar  
    31   17   32 1   
    32   18   19 ar  
    33   18   33 1   
    34   19   20 ar  
    35   19   34 1   
    36   20   21 1   
    37   21   22 1   
    38   21   35 1   
    39   22   23 2   
@<TRIPOS>SUBSTRUCTURE
     1 3TH         1 TEMP              0 ****  ****    0 ROOT
