@<TRIPOS>MOLECULE
3TH
   35    38     1     0     0
SMALL
bcc


@<TRIPOS>ATOM
      1 CL         -6.5970    0.9280   -0.6030 cl        1 3TH     -0.032400
      2 C2         -5.0350    0.4250   -0.2890 cc        1 3TH     -0.023700
      3 C3         -4.6170   -0.8820   -0.1790 cd        1 3TH     -0.069000
      4 C4         -3.2240   -0.9450    0.0960 cd        1 3TH     -0.146000
      5 C5         -2.1670   -1.8750    0.3200 cd        1 3TH     -0.053000
      6 C6         -0.9990   -1.1190    0.5180 cc        1 3TH     -0.181900
      7 N7         -1.2850    0.2600    0.3860 na        1 3TH     -0.137100
      8 C9         -2.6430    0.3800    0.1790 cc        1 3TH     -0.062400
      9 S10        -3.7790    1.5710   -0.0670 ss        1 3TH      0.019200
     10 C11         0.3390   -1.6790    0.7920 c         1 3TH      0.703700
     11 O12         0.4670   -2.7910    1.3390 o         1 3TH     -0.578100
     12 N13         1.4440   -0.9130    0.4420 n         1 3TH     -0.569900
     13 C14         2.7880   -1.4110    0.5870 c3        1 3TH      0.046700
     14 C15         3.6870   -0.4750    1.4120 c3        1 3TH     -0.048100
     15 C16         4.0440    0.7550    0.6610 ca        1 3TH     -0.134300
     16 C17         4.2490    1.9670    1.3200 ca        1 3TH     -0.095000
     17 C18         4.6320    3.1060    0.6150 ca        1 3TH     -0.156000
     18 C19         4.8150    3.0380   -0.7650 ca        1 3TH     -0.098000
     19 C20         4.6120    1.8450   -1.4500 ca        1 3TH     -0.172000
     20 C21         4.2180    0.6870   -0.7460 ca        1 3TH      0.066600
     21 N22         3.9970   -0.5190   -1.4240 n         1 3TH     -0.472100
     22 C23         3.4430   -1.6280   -0.7960 c         1 3TH      0.670500
     23 O24         3.4490   -2.7310   -1.3640 o         1 3TH     -0.597500
     24 H3         -5.2550   -1.7640   -0.2860 ha        1 3TH      0.171000
     25 H5         -2.2290   -2.9620    0.3370 ha        1 3TH      0.179000
     26 HN7        -0.6990    0.9850    0.7120 hn        1 3TH      0.301700
     27 HN13        1.3300   -0.1080   -0.1250 hn        1 3TH      0.315500
     28 H14         2.7450   -2.4250    1.0950 h1        1 3TH      0.127700
     29 H151        3.1830   -0.2180    2.3810 hc        1 3TH      0.071700
     30 H152        4.6280   -1.0390    1.6600 hc        1 3TH      0.071700
     31 H17         4.1110    2.0170    2.4110 ha        1 3TH      0.137000
     32 H18         4.7930    4.0540    1.1470 ha        1 3TH      0.138000
     33 H19         5.1240    3.9360   -1.3230 ha        1 3TH      0.137000
     34 H20         4.7620    1.8090   -2.5400 ha        1 3TH      0.139000
     35 HN22        4.3900   -0.6270   -2.3330 hn        1 3TH      0.330500
@<TRIPOS>BOND
     1    1    2 1   
     2    2    3 2   
     3    2    9 1   
     4    3    4 1   
     5    3   24 1   
     6    4    5 1   
     7    4    8 2   
     8    5    6 2   
     9    5   25 1   
    10    6    7 1   
    11    6   10 1   
    12    7    8 1   
    13    7   26 1   
    14    8    9 1   
    15   10   11 2   
    16   10   12 1   
    17   12   13 1   
    18   12   27 1   
    19   13   14 1   
    20   13   22 1   
    21   13   28 1   
    22   14   15 1   
    23   14   29 1   
    24   14   30 1   
    25   15   16 ar  
    26   15   20 ar  
    27   16   17 ar  
    28   16   31 1   
    29   17   18 ar  
    30   17   32 1   
    31   18   19 ar  
    32   18   33 1   
    33   19   20 ar  
    34   19   34 1   
    35   20   21 1   
    36   21   22 1   
    37   21   35 1   
    38   22   23 2   
@<TRIPOS>SUBSTRUCTURE
     1 3TH         1 TEMP              0 ****  ****    0 ROOT
