@<TRIPOS>MOLECULE
3TH
   36    39     1     0     0
SMALL
bcc


@<TRIPOS>ATOM
      1 Cl          0.9770   -1.5380    2.9890 cl        1 3TH      0.021600
      2 C2          2.3740   -1.0170    2.2500 cc        1 3TH     -0.011700
      3 C3          2.8690    0.2650    2.2710 cd        1 3TH     -0.063000
      4 C4          4.0860    0.3470    1.5330 cd        1 3TH     -0.162000
      5 C5          5.0800    1.2620    1.1420 cd        1 3TH      0.052000
      6 C6          6.0240    0.5320    0.3530 cc        1 3TH     -0.288900
      7 N7          5.5940   -0.8180    0.2190 na        1 3TH     -0.143100
      8 C9          4.4510   -0.9530    0.9670 cc        1 3TH     -0.014400
      9 S10         3.3480   -2.1210    1.3600 ss        1 3TH      0.115200
     10 C11         7.1510    1.1450   -0.2660 c         1 3TH      0.591700
     11 O12         7.5730    2.2920   -0.1470 o         1 3TH     -0.460100
     12 N13         7.9650    0.2930   -1.2430 ny        1 3TH     -0.679800
     13 C14         8.8700   -0.6670   -0.5240 c3        1 3TH      0.056500
     14 C15        10.3250   -0.2050   -0.4800 c3        1 3TH     -0.052100
     15 C16        11.0640   -0.5180   -1.7270 ca        1 3TH     -0.161300
     16 C17        12.1270    0.2860   -2.1450 ca        1 3TH     -0.086000
     17 C18        12.8810   -0.0650   -3.2620 ca        1 3TH     -0.122000
     18 C19        12.5800   -1.2290   -3.9700 ca        1 3TH     -0.079000
     19 C20        11.5210   -2.0440   -3.5790 ca        1 3TH     -0.140000
     20 C21        10.7490   -1.6900   -2.4550 ca        1 3TH      0.032600
     21 N22         9.6530   -2.4900   -2.0660 ns        1 3TH     -0.422100
     22 C23         8.7180   -2.0650   -1.1680 c         1 3TH      0.672500
     23 O24         7.7050   -2.7350   -0.8780 o         1 3TH     -0.632500
     24 H3          2.4080    1.1190    2.7770 ha        1 3TH      0.191000
     25 H5          5.1430    2.3290    1.3650 ha        1 3TH      0.194000
     26 HN7         6.1800   -1.5800   -0.0420 hn        1 3TH      0.329700
     27 HN13        8.5390    0.9230   -1.8220 hn        1 3TH      0.462800
     28 H14         8.4880   -0.7600    0.5410 hx        1 3TH      0.134700
     29 H151       10.3870    0.8910   -0.2370 hc        1 3TH      0.101700
     30 H152       10.8150   -0.7540    0.3770 hc        1 3TH      0.101700
     31 H17        12.3770    1.1970   -1.5770 ha        1 3TH      0.152000
     32 H18        13.7190    0.5740   -3.5820 ha        1 3TH      0.162000
     33 H19        13.1850   -1.5120   -4.8470 ha        1 3TH      0.162000
     34 H20        11.2980   -2.9610   -4.1490 ha        1 3TH      0.157000
     35 HN22        9.5820   -3.4150   -2.4400 hn        1 3TH      0.363500
     36 H132        7.3220   -0.2180   -1.8560 hn        1 3TH      0.462800
@<TRIPOS>BOND
     1    1    2 1   
     2    2    3 2   
     3    2    9 1   
     4    3    4 1   
     5    3   24 1   
     6    4    5 1   
     7    4    8 2   
     8    5    6 2   
     9    5   25 1   
    10    6    7 1   
    11    6   10 1   
    12    7    8 1   
    13    7   26 1   
    14    8    9 1   
    15   10   11 2   
    16   10   12 1   
    17   12   13 1   
    18   12   27 1   
    19   12   36 1   
    20   13   14 1   
    21   13   22 1   
    22   13   28 1   
    23   14   15 1   
    24   14   29 1   
    25   14   30 1   
    26   15   16 ar  
    27   15   20 ar  
    28   16   17 ar  
    29   16   31 1   
    30   17   18 ar  
    31   17   32 1   
    32   18   19 ar  
    33   18   33 1   
    34   19   20 ar  
    35   19   34 1   
    36   20   21 1   
    37   21   22 1   
    38   21   35 1   
    39   22   23 2   
@<TRIPOS>SUBSTRUCTURE
     1 3TH         1 TEMP              0 ****  ****    0 ROOT
