@<TRIPOS>MOLECULE
3TI
   33    35     1     0     0
SMALL
bcc


@<TRIPOS>ATOM
      1 N01         1.0380   -0.7350    0.2150 ne        1 3TI     -0.608100
      2 C02         2.3500   -0.2340    0.0880 ca        1 3TI      0.089400
      3 C03         3.3000   -0.6250    1.0590 ca        1 3TI     -0.091000
      4 C04         4.6200   -0.2040    0.9670 ca        1 3TI     -0.180500
      5 C05         5.0190    0.6100   -0.1020 ca        1 3TI      0.125100
      6 C06         4.0960    1.0040   -1.0830 ca        1 3TI     -0.180500
      7 C07         2.7770    0.5860   -0.9820 ca        1 3TI     -0.091000
      8 C08         0.0160   -0.0840   -0.2340 cf        1 3TI      0.501800
      9 C09        -1.3610   -0.5830   -0.1450 ca        1 3TI     -0.249900
     10 C10        -1.6940   -1.9230   -0.2990 ca        1 3TI      0.194100
     11 C11        -3.0610   -2.3470   -0.3230 ca        1 3TI     -0.157000
     12 C12        -4.0600   -1.4310   -0.1630 ca        1 3TI     -0.073000
     13 C13        -3.7600   -0.0540    0.0460 ca        1 3TI     -0.075000
     14 C14        -2.4080    0.3730    0.0710 ca        1 3TI      0.023000
     15 C15        -2.1430    1.7460    0.3320 ca        1 3TI     -0.139000
     16 C16        -3.1690    2.6410    0.5220 ca        1 3TI     -0.110000
     17 C17        -4.5140    2.2140    0.4700 ca        1 3TI     -0.142000
     18 C18        -4.8020    0.8900    0.2410 ca        1 3TI     -0.101000
     19 O19         6.3100    1.0610   -0.2550 oh        1 3TI     -0.495100
     20 O20        -0.8140   -2.9540   -0.4790 oh        1 3TI     -0.498100
     21 H03         2.9950   -1.2670    1.9010 ha        1 3TI      0.143000
     22 H04         5.3500   -0.5100    1.7310 ha        1 3TI      0.145000
     23 H06         4.4290    1.6370   -1.9190 ha        1 3TI      0.145000
     24 H07         2.0630    0.8910   -1.7630 ha        1 3TI      0.143000
     25 H08         0.0970    0.9120   -0.7290 h4        1 3TI     -0.016200
     26 H11        -3.2670   -3.4180   -0.4720 ha        1 3TI      0.155000
     27 H12        -5.1160   -1.7420   -0.1840 ha        1 3TI      0.138000
     28 H15        -1.1020    2.0960    0.4010 ha        1 3TI      0.133000
     29 H16        -2.9520    3.7010    0.7230 ha        1 3TI      0.133000
     30 H17        -5.3200    2.9480    0.6210 ha        1 3TI      0.134000
     31 H18        -5.8440    0.5380    0.2080 ha        1 3TI      0.133000
     32 HO19        6.8370    0.7100    0.4770 ho        1 3TI      0.421000
     33 HO20        0.0970   -2.6370   -0.3790 ho        1 3TI      0.452000
@<TRIPOS>BOND
     1    1    2 1   
     2    1    8 2   
     3    2    3 ar  
     4    2    7 ar  
     5    3    4 ar  
     6    3   21 1   
     7    4    5 ar  
     8    4   22 1   
     9    5    6 ar  
    10    5   19 1   
    11    6    7 ar  
    12    6   23 1   
    13    7   24 1   
    14    8    9 1   
    15    8   25 1   
    16    9   10 ar  
    17    9   14 ar  
    18   10   11 ar  
    19   10   20 1   
    20   11   12 ar  
    21   11   26 1   
    22   12   13 ar  
    23   12   27 1   
    24   13   14 ar  
    25   13   18 ar  
    26   14   15 ar  
    27   15   16 ar  
    28   15   28 1   
    29   16   17 ar  
    30   16   29 1   
    31   17   18 ar  
    32   17   30 1   
    33   18   31 1   
    34   19   32 1   
    35   20   33 1   
@<TRIPOS>SUBSTRUCTURE
     1 3TI         1 TEMP              0 ****  ****    0 ROOT
