@<TRIPOS>MOLECULE
3TI
   33    35     1     0     0
SMALL
bcc


@<TRIPOS>ATOM
      1 N01        -0.0110    0.6480    0.1030 ne        1 3TI     -0.548100
      2 C02         1.3830    0.4490   -0.0270 ca        1 3TI      0.088400
      3 C03         2.1220    0.1820    1.1470 ca        1 3TI     -0.090000
      4 C04         3.5020    0.0290    1.0960 ca        1 3TI     -0.182500
      5 C05         4.1710    0.1490   -0.1300 ca        1 3TI      0.122100
      6 C06         3.4590    0.4240   -1.3080 ca        1 3TI     -0.182500
      7 C07         2.0800    0.5670   -1.2500 ca        1 3TI     -0.090000
      8 C08        -0.8190    0.3470   -0.8550 cf        1 3TI      0.494800
      9 C09        -2.2730    0.5510   -0.7480 ca        1 3TI     -0.175900
     10 C10        -3.0370   -0.1410    0.1800 ca        1 3TI      0.156100
     11 C11        -4.4480    0.0400    0.2530 ca        1 3TI     -0.200000
     12 C12        -5.0670    0.9090   -0.6060 ca        1 3TI     -0.070000
     13 C13        -4.3190    1.6340   -1.5730 ca        1 3TI     -0.070000
     14 C14        -2.9130    1.4570   -1.6440 ca        1 3TI      0.014000
     15 C15        -2.1790    2.2020   -2.6100 ca        1 3TI     -0.129000
     16 C16        -2.8180    3.0690   -3.4610 ca        1 3TI     -0.112000
     17 C17        -4.2210    3.2380   -3.3930 ca        1 3TI     -0.138000
     18 C18        -4.9550    2.5370   -2.4680 ca        1 3TI     -0.104000
     19 O19         5.5340    0.0120   -0.2510 oh        1 3TI     -0.497100
     20 O20        -2.3980   -1.0370    1.0050 oh        1 3TI     -0.482100
     21 H03         1.6020    0.0900    2.1150 ha        1 3TI      0.141000
     22 H04         4.0660   -0.1840    2.0150 ha        1 3TI      0.142500
     23 H06         4.0020    0.5210   -2.2590 ha        1 3TI      0.142500
     24 H07         1.5310    0.7920   -2.1780 ha        1 3TI      0.141000
     25 H08        -0.5080   -0.0940   -1.8300 h4        1 3TI     -0.021200
     26 H11        -5.0210   -0.5230    1.0040 ha        1 3TI      0.136000
     27 H12        -6.1570    1.0600   -0.5600 ha        1 3TI      0.137000
     28 H15        -1.0860    2.0760   -2.6570 ha        1 3TI      0.135000
     29 H16        -2.2470    3.6430   -4.2050 ha        1 3TI      0.134000
     30 H17        -4.7110    3.9380   -4.0850 ha        1 3TI      0.134000
     31 H18        -6.0470    2.6620   -2.4020 ha        1 3TI      0.132000
     32 HO19        5.8950   -0.1630    0.6300 ho        1 3TI      0.419000
     33 HO20       -3.0460   -1.3670    1.6450 ho        1 3TI      0.420000
@<TRIPOS>BOND
     1    1    2 1   
     2    1    8 2   
     3    2    3 ar  
     4    2    7 ar  
     5    3    4 ar  
     6    3   21 1   
     7    4    5 ar  
     8    4   22 1   
     9    5    6 ar  
    10    5   19 1   
    11    6    7 ar  
    12    6   23 1   
    13    7   24 1   
    14    8    9 1   
    15    8   25 1   
    16    9   10 ar  
    17    9   14 ar  
    18   10   11 ar  
    19   10   20 1   
    20   11   12 ar  
    21   11   26 1   
    22   12   13 ar  
    23   12   27 1   
    24   13   14 ar  
    25   13   18 ar  
    26   14   15 ar  
    27   15   16 ar  
    28   15   28 1   
    29   16   17 ar  
    30   16   29 1   
    31   17   18 ar  
    32   17   30 1   
    33   18   31 1   
    34   19   32 1   
    35   20   33 1   
@<TRIPOS>SUBSTRUCTURE
     1 3TI         1 TEMP              0 ****  ****    0 ROOT
