@<TRIPOS>MOLECULE
3TI
   33    35     1     0     0
SMALL
bcc


@<TRIPOS>ATOM
      1 N01        -0.0110    0.6550    0.1050 ne        1 3TI     -0.548100
      2 C02         1.3830    0.4570   -0.0240 ca        1 3TI      0.088400
      3 C03         2.1220    0.1990    1.1530 ca        1 3TI     -0.090000
      4 C04         3.5020    0.0480    1.1030 ca        1 3TI     -0.182500
      5 C05         4.1710    0.1620   -0.1230 ca        1 3TI      0.122100
      6 C06         3.4600    0.4270   -1.3040 ca        1 3TI     -0.182500
      7 C07         2.0810    0.5690   -1.2470 ca        1 3TI     -0.090000
      8 C08        -0.8180    0.3470   -0.8520 cf        1 3TI      0.494800
      9 C09        -2.2720    0.5490   -0.7470 ca        1 3TI     -0.175900
     10 C10        -3.0360   -0.1400    0.1840 ca        1 3TI      0.156100
     11 C11        -4.4470    0.0390    0.2550 ca        1 3TI     -0.200000
     12 C12        -5.0680    0.9030   -0.6080 ca        1 3TI     -0.070000
     13 C13        -4.3200    1.6250   -1.5790 ca        1 3TI     -0.070000
     14 C14        -2.9130    1.4500   -1.6480 ca        1 3TI      0.014000
     15 C15        -2.1800    2.1910   -2.6160 ca        1 3TI     -0.129000
     16 C16        -2.8200    3.0530   -3.4730 ca        1 3TI     -0.112000
     17 C17        -4.2240    3.2200   -3.4060 ca        1 3TI     -0.138000
     18 C18        -4.9570    2.5220   -2.4780 ca        1 3TI     -0.104000
     19 O19         5.5350    0.0250   -0.2430 oh        1 3TI     -0.497100
     20 O20        -2.3960   -1.0300    1.0140 oh        1 3TI     -0.482100
     21 H03         1.6020    0.1130    2.1210 ha        1 3TI      0.141000
     22 H04         4.0670   -0.1580    2.0240 ha        1 3TI      0.142500
     23 H06         4.0030    0.5200   -2.2550 ha        1 3TI      0.142500
     24 H07         1.5310    0.7860   -2.1770 ha        1 3TI      0.141000
     25 H08        -0.5060   -0.0990   -1.8250 h4        1 3TI     -0.021200
     26 H11        -5.0200   -0.5210    1.0080 ha        1 3TI      0.136000
     27 H12        -6.1580    1.0520   -0.5640 ha        1 3TI      0.137000
     28 H15        -1.0870    2.0670   -2.6630 ha        1 3TI      0.135000
     29 H16        -2.2490    3.6250   -4.2200 ha        1 3TI      0.134000
     30 H17        -4.7140    3.9160   -4.1020 ha        1 3TI      0.134000
     31 H18        -6.0490    2.6460   -2.4130 ha        1 3TI      0.132000
     32 HO19        5.8960   -0.1420    0.6400 ho        1 3TI      0.419000
     33 HO20       -3.0440   -1.3590    1.6550 ho        1 3TI      0.420000
@<TRIPOS>BOND
     1    1    2 1   
     2    1    8 2   
     3    2    3 ar  
     4    2    7 ar  
     5    3    4 ar  
     6    3   21 1   
     7    4    5 ar  
     8    4   22 1   
     9    5    6 ar  
    10    5   19 1   
    11    6    7 ar  
    12    6   23 1   
    13    7   24 1   
    14    8    9 1   
    15    8   25 1   
    16    9   10 ar  
    17    9   14 ar  
    18   10   11 ar  
    19   10   20 1   
    20   11   12 ar  
    21   11   26 1   
    22   12   13 ar  
    23   12   27 1   
    24   13   14 ar  
    25   13   18 ar  
    26   14   15 ar  
    27   15   16 ar  
    28   15   28 1   
    29   16   17 ar  
    30   16   29 1   
    31   17   18 ar  
    32   17   30 1   
    33   18   31 1   
    34   19   32 1   
    35   20   33 1   
@<TRIPOS>SUBSTRUCTURE
     1 3TI         1 TEMP              0 ****  ****    0 ROOT
