@<TRIPOS>MOLECULE
3TI
   33    35     1     0     0
SMALL
bcc


@<TRIPOS>ATOM
      1 N01        -0.0110    0.6510    0.1040 ne        1 3TI     -0.548100
      2 C02         1.3830    0.4510   -0.0250 ca        1 3TI      0.088400
      3 C03         2.1210    0.1900    1.1510 ca        1 3TI     -0.090000
      4 C04         3.5010    0.0370    1.1010 ca        1 3TI     -0.182500
      5 C05         4.1700    0.1520   -0.1250 ca        1 3TI      0.122100
      6 C06         3.4600    0.4210   -1.3050 ca        1 3TI     -0.182500
      7 C07         2.0800    0.5650   -1.2480 ca        1 3TI     -0.090000
      8 C08        -0.8190    0.3460   -0.8540 cf        1 3TI      0.494800
      9 C09        -2.2730    0.5510   -0.7490 ca        1 3TI     -0.175900
     10 C10        -3.0380   -0.1410    0.1810 ca        1 3TI      0.156100
     11 C11        -4.4490    0.0400    0.2510 ca        1 3TI     -0.200000
     12 C12        -5.0680    0.9080   -0.6090 ca        1 3TI     -0.070000
     13 C13        -4.3190    1.6310   -1.5770 ca        1 3TI     -0.070000
     14 C14        -2.9130    1.4550   -1.6460 ca        1 3TI      0.014000
     15 C15        -2.1780    2.1980   -2.6120 ca        1 3TI     -0.129000
     16 C16        -2.8170    3.0640   -3.4660 ca        1 3TI     -0.112000
     17 C17        -4.2200    3.2330   -3.3980 ca        1 3TI     -0.138000
     18 C18        -4.9550    2.5330   -2.4730 ca        1 3TI     -0.104000
     19 O19         5.5340    0.0140   -0.2450 oh        1 3TI     -0.497100
     20 O20        -2.3990   -1.0340    1.0080 oh        1 3TI     -0.482100
     21 H03         1.6010    0.1020    2.1190 ha        1 3TI      0.141000
     22 H04         4.0650   -0.1710    2.0220 ha        1 3TI      0.142500
     23 H06         4.0030    0.5150   -2.2560 ha        1 3TI      0.142500
     24 H07         1.5310    0.7850   -2.1780 ha        1 3TI      0.141000
     25 H08        -0.5080   -0.0970   -1.8270 h4        1 3TI     -0.021200
     26 H11        -5.0220   -0.5220    1.0030 ha        1 3TI      0.136000
     27 H12        -6.1580    1.0580   -0.5640 ha        1 3TI      0.137000
     28 H15        -1.0850    2.0730   -2.6590 ha        1 3TI      0.135000
     29 H16        -2.2450    3.6380   -4.2110 ha        1 3TI      0.134000
     30 H17        -4.7100    3.9320   -4.0930 ha        1 3TI      0.134000
     31 H18        -6.0460    2.6580   -2.4080 ha        1 3TI      0.132000
     32 HO19        5.8950   -0.1560    0.6380 ho        1 3TI      0.419000
     33 HO20       -3.0470   -1.3640    1.6470 ho        1 3TI      0.420000
@<TRIPOS>BOND
     1    1    2 1   
     2    1    8 2   
     3    2    3 ar  
     4    2    7 ar  
     5    3    4 ar  
     6    3   21 1   
     7    4    5 ar  
     8    4   22 1   
     9    5    6 ar  
    10    5   19 1   
    11    6    7 ar  
    12    6   23 1   
    13    7   24 1   
    14    8    9 1   
    15    8   25 1   
    16    9   10 ar  
    17    9   14 ar  
    18   10   11 ar  
    19   10   20 1   
    20   11   12 ar  
    21   11   26 1   
    22   12   13 ar  
    23   12   27 1   
    24   13   14 ar  
    25   13   18 ar  
    26   14   15 ar  
    27   15   16 ar  
    28   15   28 1   
    29   16   17 ar  
    30   16   29 1   
    31   17   18 ar  
    32   17   30 1   
    33   18   31 1   
    34   19   32 1   
    35   20   33 1   
@<TRIPOS>SUBSTRUCTURE
     1 3TI         1 TEMP              0 ****  ****    0 ROOT
