@<TRIPOS>MOLECULE
3TI
   33    27     1     0     0
SMALL
bcc


@<TRIPOS>ATOM
      1 N01        -0.4840   -2.3310   -0.1850 n1        1 3TI     -0.138000
      2 C02         0.9200   -2.1030   -0.0410 c1        1 3TI     -0.044000
      3 C03         1.7330   -2.0560   -1.1690 c2        1 3TI     -0.077000
      4 C04         3.1140   -1.9970   -1.0280 c1        1 3TI     -0.210000
      5 C05         3.6840   -1.9840    0.2400 c1        1 3TI      0.072000
      6 C06         2.8740   -2.0310    1.3670 c1        1 3TI     -0.151000
      7 C07         1.4920   -2.0900    1.2280 c1        1 3TI     -0.108000
      8 C08        -1.3330   -1.3270   -0.0620 c1        1 3TI      0.015000
      9 C09        -0.8140    0.0830    0.2340 c1        1 3TI     -0.133000
     10 C10        -1.6020   -0.2210    1.3410 c1        1 3TI      0.094000
     11 C11        -2.6120    0.6550    1.7410 c1        1 3TI     -0.128500
     12 C12        -2.8340    1.8330    1.0340 c1        1 3TI     -0.128500
     13 C13        -2.0370    2.1430   -0.0890 c1        1 3TI     -0.067000
     14 C14        -1.0380    1.2770   -0.4850 c2        1 3TI      0.015000
     15 C15        -0.2420    1.5860   -1.6050 c1        1 3TI     -0.127000
     16 C16        -0.4640    2.7640   -2.3130 c1        1 3TI     -0.128500
     17 C17        -1.4740    3.6390   -1.9120 c1        1 3TI     -0.128500
     18 C18        -2.2600    3.3350   -0.8060 c1        1 3TI     -0.106000
     19 O19         5.0860   -1.9430    0.3820 oh        1 3TI     -0.253000
     20 O20        -1.7740   -1.1950    2.3420 oh        1 3TI     -0.250000
     21 H03         1.3320   -2.0650   -2.0620 ha        1 3TI      0.142000
     22 H04         3.6870   -1.9640   -1.8240 ha        1 3TI      0.133000
     23 H06         3.2770   -2.0220    2.2620 ha        1 3TI      0.149000
     24 H07         0.9210   -2.1230    2.0230 ha        1 3TI      0.148000
     25 H08        -2.2970   -1.4840   -0.1610 ha        1 3TI      0.153000
     26 H11        -3.1660    0.4410    2.5210 ha        1 3TI      0.136250
     27 H12        -3.5450    2.4500    1.3160 ha        1 3TI      0.136250
     28 H15         0.4680    0.9710   -1.8870 ha        1 3TI      0.142000
     29 H16         0.0890    2.9790   -3.0910 ha        1 3TI      0.136250
     30 H17        -1.6290    4.4690   -2.4100 ha        1 3TI      0.136250
     31 H18        -2.9710    3.9510   -0.5250 ha        1 3TI      0.133000
     32 HO19        5.3970   -2.7690    0.5030 ho        1 3TI      0.217000
     33 HO20       -1.4970   -0.8710    3.1210 ho        1 3TI      0.222000
@<TRIPOS>BOND
     1    1    8 1   
     2    2    3 1   
     3    2    7 1   
     4    3    4 1   
     5    3   21 1   
     6    4   22 1   
     7    5    6 1   
     8    5   19 1   
     9    6   23 1   
    10    7   24 1   
    11    8   25 1   
    12    9   10 1   
    13    9   14 1   
    14   10   20 1   
    15   11   12 1   
    16   11   26 1   
    17   12   27 1   
    18   13   14 1   
    19   13   18 1   
    20   14   15 1   
    21   15   28 1   
    22   16   17 1   
    23   16   29 1   
    24   17   30 1   
    25   18   31 1   
    26   19   32 1   
    27   20   33 1   
@<TRIPOS>SUBSTRUCTURE
     1 3TI         1 TEMP              0 ****  ****    0 ROOT
