@<TRIPOS>MOLECULE
3TJ
   26    26     1     0     0
SMALL
bcc


@<TRIPOS>ATOM
      1 CAA        -1.4910   -0.0990    0.0000 c3        1 3TJ     -0.129800
      2 OAB         2.9610    1.4480    5.0190 o         1 3TJ     -0.640800
      3 OAC         3.0710    3.4140    3.6910 o         1 3TJ     -0.640800
      4 CAE         6.1720    0.2500    1.1750 ca        1 3TJ     -0.094000
      5 CAF         4.8620    0.1290    0.7360 ca        1 3TJ     -0.141000
      6 CAG         5.3850    1.4240    3.1510 ca        1 3TJ     -0.052000
      7 CAH         1.9930   -0.4490    0.2310 c1        1 3TJ     -0.075500
      8 CAI         1.4700    1.4610    1.5790 c3        1 3TJ      0.488000
      9 NAJ         1.5220    1.5700    3.0070 n3        1 3TJ     -0.912100
     10 CAK         6.4420    0.8980    2.3940 ca        1 3TJ      0.107900
     11 CAL         3.7930    0.6430    1.4990 ca        1 3TJ      0.144600
     12 CAM         4.0620    1.3080    2.7170 ca        1 3TJ     -0.339500
     13 NAN         2.4450    0.4810    1.0330 nh        1 3TJ     -0.384800
     14 SAO         2.8930    2.0260    3.7420 sy        1 3TJ      1.514200
     15 HAA        -1.5980    0.9640   -0.3090 hc        1 3TJ      0.032450
     16 HAAA       -2.1350   -0.7360   -0.6440 hc        1 3TJ      0.032450
     17 HAE         4.6720   -0.3740   -0.2270 ha        1 3TJ      0.153000
     18 HAF         7.0030   -0.1530    0.5750 ha        1 3TJ      0.160000
     19 HAG         5.6080    1.9340    4.1050 ha        1 3TJ      0.170000
     20 HAH         2.7170   -1.1810   -0.1800 ha        1 3TJ      0.003500
     21 HAI         0.4390    1.1410    1.2330 h2        1 3TJ      0.099700
     22 HAIA        1.7270    2.4670    1.1220 h2        1 3TJ      0.099700
     23 HNAJ        0.7610    1.1580    3.4920 hn        1 3TJ      0.465800
     24 H10        -1.8090   -0.2090    1.0600 hc        1 3TJ      0.032450
     25 H11        -0.4260   -0.4160   -0.1070 hc        1 3TJ      0.032450
     26 FAD         7.7180    1.0170    2.8310 f         1 3TJ     -0.126900
@<TRIPOS>BOND
     1    1   15 1   
     2    1   16 1   
     3    1   24 1   
     4    1   25 1   
     5    2   14 2   
     6    3   14 2   
     7    4    5 ar  
     8    4   10 ar  
     9    4   18 1   
    10    5   11 ar  
    11    5   17 1   
    12    6   10 ar  
    13    6   12 ar  
    14    6   19 1   
    15    7   13 3   
    16    7   20 1   
    17    8    9 1   
    18    8   13 1   
    19    8   21 1   
    20    8   22 1   
    21    9   14 1   
    22    9   23 1   
    23   10   26 1   
    24   11   12 ar  
    25   11   13 1   
    26   12   14 1   
@<TRIPOS>SUBSTRUCTURE
     1 3TJ         1 TEMP              0 ****  ****    0 ROOT
