@<TRIPOS>MOLECULE
3TJ
   26    26     1     0     0
SMALL
bcc


@<TRIPOS>ATOM
      1 CAA        -1.4880   -0.1590    0.0580 c3        1 3TJ     -0.129800
      2 OAB         2.9690    1.4520    5.0500 o         1 3TJ     -0.640800
      3 OAC         3.0470    3.4180    3.7200 o         1 3TJ     -0.640800
      4 CAE         6.1760    0.2920    1.1910 ca        1 3TJ     -0.094000
      5 CAF         4.8650    0.1530    0.7590 ca        1 3TJ     -0.141000
      6 CAG         5.3840    1.4570    3.1700 ca        1 3TJ     -0.052000
      7 CAH         2.0020   -0.4620    0.2690 c1        1 3TJ     -0.075500
      8 CAI         1.4610    1.4420    1.6170 c3        1 3TJ      0.488000
      9 NAJ         1.5190    1.5540    3.0450 n7        1 3TJ     -0.912100
     10 CAK         6.4440    0.9450    2.4090 ca        1 3TJ      0.107900
     11 CAL         3.7930    0.6540    1.5270 ca        1 3TJ      0.144600
     12 CAM         4.0610    1.3240    2.7420 ca        1 3TJ     -0.339500
     13 NAN         2.4460    0.4740    1.0670 nh        1 3TJ     -0.384800
     14 SAO         2.8880    2.0280    3.7730 sy        1 3TJ      1.514200
     15 HAA        -1.6100    0.9020   -0.2500 hc        1 3TJ      0.032450
     16 HAAA       -0.4200   -0.4620   -0.0550 hc        1 3TJ      0.032450
     17 HAE         4.6770   -0.3530   -0.2030 ha        1 3TJ      0.153000
     18 HAF         7.0090   -0.1020    0.5880 ha        1 3TJ      0.160000
     19 HAG         5.6060    1.9710    4.1230 ha        1 3TJ      0.170000
     20 HAH         2.7330   -1.1850   -0.1450 ha        1 3TJ      0.003500
     21 HAI         0.4320    1.1090    1.2770 h2        1 3TJ      0.099700
     22 HAIA        1.7030    2.4510    1.1580 h2        1 3TJ      0.099700
     23 HNAJ        0.7660    1.1320    3.5340 hn        1 3TJ      0.465800
     24 H10        -1.7990   -0.2730    1.1190 hc        1 3TJ      0.032450
     25 H11        -2.1270   -0.8030   -0.5840 hc        1 3TJ      0.032450
     26 FAD         7.7200    1.0800    2.8390 f         1 3TJ     -0.126900
@<TRIPOS>BOND
     1    1   15 1   
     2    1   16 1   
     3    1   24 1   
     4    1   25 1   
     5    2   14 2   
     6    3   14 2   
     7    4    5 ar  
     8    4   10 ar  
     9    4   18 1   
    10    5   11 ar  
    11    5   17 1   
    12    6   10 ar  
    13    6   12 ar  
    14    6   19 1   
    15    7   13 3   
    16    7   20 1   
    17    8    9 1   
    18    8   13 1   
    19    8   21 1   
    20    8   22 1   
    21    9   14 1   
    22    9   23 1   
    23   10   26 1   
    24   11   12 ar  
    25   11   13 1   
    26   12   14 1   
@<TRIPOS>SUBSTRUCTURE
     1 3TJ         1 TEMP              0 ****  ****    0 ROOT
