@<TRIPOS>MOLECULE
3TJ
   26    27     1     0     0
SMALL
bcc


@<TRIPOS>ATOM
      1 CAA         3.5080    2.4450   -0.3000 c3        1 3TJ     -0.111100
      2 OAB        -0.2240   -2.7900    0.6920 o         1 3TJ     -0.649800
      3 OAC         0.4000   -2.1830   -1.5200 o         1 3TJ     -0.649800
      4 CAE        -2.1730    1.9220    0.1250 ca        1 3TJ     -0.065000
      5 CAF        -0.8010    2.0560    0.1280 ca        1 3TJ     -0.197000
      6 CAG        -1.9400   -0.4850   -0.0240 ca        1 3TJ     -0.027000
      7 CAH         2.0020    2.3800   -0.1120 c3        1 3TJ      0.215800
      8 CAI         2.3150   -0.0910   -0.0560 c3        1 3TJ      0.503000
      9 NAJ         1.7630   -1.3370    0.3930 n3        1 3TJ     -0.904100
     10 CAK        -2.7600    0.6390    0.0510 ca        1 3TJ      0.057900
     11 CAL         0.0530    0.9160    0.0570 ca        1 3TJ      0.286600
     12 CAM        -0.5440   -0.3690   -0.0350 ca        1 3TJ     -0.432500
     13 NAN         1.4360    1.0690    0.1300 nh        1 3TJ     -0.710000
     14 SAO         0.3140   -1.8160   -0.1690 sy        1 3TJ      1.528200
     15 HAA         4.0510    2.1290    0.6230 hc        1 3TJ      0.049367
     16 HAAA        3.8460    1.8130   -1.1550 hc        1 3TJ      0.049367
     17 HAE        -2.8230    2.8090    0.1810 ha        1 3TJ      0.151000
     18 HAF        -0.3770    3.0700    0.1980 ha        1 3TJ      0.143000
     19 HAG        -2.4010   -1.4900   -0.0670 ha        1 3TJ      0.166000
     20 HAH         1.7300    3.0290    0.7730 h1        1 3TJ      0.046700
     21 HAI         3.2720    0.1170    0.5100 h2        1 3TJ      0.064700
     22 HAIA        2.5600   -0.1870   -1.1630 h2        1 3TJ      0.064700
     23 HNAJ        2.1900   -1.7270    1.1970 hn        1 3TJ      0.459800
     24 H10         3.7810    3.5070   -0.5180 hc        1 3TJ      0.049367
     25 H11         1.5160    2.8290   -1.0300 h1        1 3TJ      0.046700
     26 FAD        -4.1100    0.5130    0.0570 f         1 3TJ     -0.137900
@<TRIPOS>BOND
     1    1    7 1   
     2    1   15 1   
     3    1   16 1   
     4    1   24 1   
     5    2   14 2   
     6    3   14 2   
     7    4    5 ar  
     8    4   10 ar  
     9    4   17 1   
    10    5   11 ar  
    11    5   18 1   
    12    6   10 ar  
    13    6   12 ar  
    14    6   19 1   
    15    7   13 1   
    16    7   20 1   
    17    7   25 1   
    18    8    9 1   
    19    8   13 1   
    20    8   21 1   
    21    8   22 1   
    22    9   14 1   
    23    9   23 1   
    24   10   26 1   
    25   11   12 ar  
    26   11   13 1   
    27   12   14 1   
@<TRIPOS>SUBSTRUCTURE
     1 3TJ         1 TEMP              0 ****  ****    0 ROOT
