@<TRIPOS>MOLECULE
3TJ
   26    24     1     0     0
SMALL
bcc


@<TRIPOS>ATOM
      1 CAA        -2.9420   -1.2350   -0.7100 c3        1 3TJ     -0.131100
      2 OAB         1.8750    3.0690   -0.1830 o         1 3TJ     -0.649800
      3 OAC         2.4770    1.4420   -1.7350 o         1 3TJ     -0.649800
      4 FAD         3.2290   -0.7000    3.3250 f         1 3TJ     -0.101100
      5 CAE         0.9970   -1.1670    2.6030 c1        1 3TJ     -0.062500
      6 CAF        -0.0340   -0.9840    1.6480 c1        1 3TJ     -0.062500
      7 CAG         2.4100    0.4460    1.3880 c1        1 3TJ      0.012500
      8 CAH        -1.4340   -1.1400   -0.9580 c3        1 3TJ      0.183800
      9 CAI        -0.6220    0.9250   -1.6920 c3        1 3TJ      0.467000
     10 NAJ         0.1800    2.0220   -1.4950 n3        1 3TJ     -0.930100
     11 CAK         2.2200   -0.4540    2.4760 c1        1 3TJ      0.053100
     12 CAL         0.1510   -0.0950    0.5710 c1        1 3TJ      0.203800
     13 CAM         1.3880    0.6280    0.4400 c1        1 3TJ     -0.427200
     14 NAN        -0.9580    0.1200   -0.5260 n3        1 3TJ     -0.634200
     15 SAO         1.4920    1.8310   -0.7850 s6        1 3TJ      1.563900
     16 HAA        -3.4380   -0.8110   -1.4860 hc        1 3TJ      0.046367
     17 HAAA       -3.1680   -0.7690    0.1120 hc        1 3TJ      0.046367
     18 HAE         0.8700   -1.7710    3.3330 ha        1 3TJ      0.093500
     19 HAF        -0.8690   -1.4720    1.7360 ha        1 3TJ      0.093500
     20 HAG         3.2330    0.9930    1.3350 ha        1 3TJ      0.107500
     21 HAH        -1.2460   -1.2490   -1.9650 h1        1 3TJ      0.058700
     22 HAI        -1.4700    1.2410   -2.0960 h2        1 3TJ      0.078200
     23 HAIA       -0.1840    0.3490   -2.3300 h2        1 3TJ      0.078200
     24 HNAJ       -0.0040    2.8160   -1.9310 hn        1 3TJ      0.456800
     25 H10        -3.1970   -2.1580   -0.6350 hc        1 3TJ      0.046367
     26 H11        -0.9560   -1.8790   -0.4400 h1        1 3TJ      0.058700
@<TRIPOS>BOND
     1    1    8 1   
     2    1   16 1   
     3    1   17 1   
     4    1   25 1   
     5    2   15 2   
     6    3   15 2   
     7    4   11 1   
     8    5    6 3   
     9    5   18 1   
    10    6   19 1   
    11    7   11 3   
    12    7   20 1   
    13    8   14 1   
    14    8   21 1   
    15    8   26 1   
    16    9   10 1   
    17    9   14 1   
    18    9   22 1   
    19    9   23 1   
    20   10   15 1   
    21   10   24 1   
    22   12   13 3   
    23   12   14 1   
    24   13   15 1   
@<TRIPOS>SUBSTRUCTURE
     1 3TJ         1 TEMP              0 ****  ****    0 ROOT
