@<TRIPOS>MOLECULE
3TJ
   26    25     1     0     0
SMALL
bcc


@<TRIPOS>ATOM
      1 CAA        -0.3460    0.3030   -0.0540 c3        1 3TJ     -0.114800
      2 OAB         2.2510    0.4060    4.5320 o         1 3TJ     -0.652300
      3 OAC         3.4660    2.4490    4.7830 o         1 3TJ     -0.652300
      4 CAE         5.7870    0.5000    0.6500 ca        1 3TJ     -0.073000
      5 CAF         4.6390   -0.2190    0.7330 ca        1 3TJ     -0.154000
      6 CAG         4.7650    2.0030    2.1190 ca        1 3TJ     -0.199000
      7 CAH         2.1820   -1.8630    1.2130 c1        1 3TJ     -0.055500
      8 CAI         0.6400    2.8660    2.5790 c2        1 3TJ      0.801100
      9 NAJ         1.5670    2.3560    3.2410 ne        1 3TJ     -0.983300
     10 CAK         5.9440    1.2880    1.9070 ca        1 3TJ      0.122900
     11 CAL         3.6770   -0.0250    1.8680 ca        1 3TJ      0.216600
     12 CAM         3.7250    1.1250    2.6480 ca        1 3TJ     -0.379500
     13 NAN         2.6940   -1.0300    2.0790 nh        1 3TJ     -0.456400
     14 SAO         2.7420    1.5970    3.9420 sy        1 3TJ      1.670700
     15 HAA         0.3380    1.1050   -0.4060 hc        1 3TJ      0.028950
     16 HAAA        0.2500   -0.5660    0.3090 hc        1 3TJ      0.028950
     17 HAE         4.3730   -0.9540   -0.0420 ha        1 3TJ      0.157000
     18 HAF         6.5150    0.4810   -0.1630 ha        1 3TJ      0.169000
     19 HAG         4.4900    2.8760    1.5200 ha        1 3TJ      0.162000
     20 HAH         2.5400   -1.8310    0.1640 ha        1 3TJ     -0.012500
     21 HAI         2.3400   -1.0760    3.0280 hn        1 3TJ      0.498800
     22 HAIA        0.4410    2.6010    1.5140 h4        1 3TJ     -0.037200
     23 HNAJ       -0.0520    3.6180    3.0190 h4        1 3TJ     -0.037200
     24 H10        -0.9770    0.6900    0.7760 hc        1 3TJ      0.028950
     25 H11        -0.9980   -0.0220   -0.8930 hc        1 3TJ      0.028950
     26 FAD         6.6310    0.7030    2.8990 f         1 3TJ     -0.106900
@<TRIPOS>BOND
     1    1   15 1   
     2    1   16 1   
     3    1   24 1   
     4    1   25 1   
     5    2   14 2   
     6    3   14 2   
     7    4    5 ar  
     8    4   10 ar  
     9    4   18 1   
    10    5   11 ar  
    11    5   17 1   
    12    6   10 ar  
    13    6   12 ar  
    14    6   19 1   
    15    7   13 3   
    16    7   20 1   
    17    8    9 2   
    18    8   22 1   
    19    8   23 1   
    20    9   14 1   
    21   10   26 1   
    22   11   12 ar  
    23   11   13 1   
    24   12   14 1   
    25   13   21 1   
@<TRIPOS>SUBSTRUCTURE
     1 3TJ         1 TEMP              0 ****  ****    0 ROOT
