@<TRIPOS>MOLECULE
3TK
   43    45     1     0     0
SMALL
bcc


@<TRIPOS>ATOM
      1 C           1.2640   -0.3850   -1.0420 c         1 3TK      0.673100
      2 N           0.9860    0.2840    0.1410 n         1 3TK     -0.523400
      3 O           2.3330   -1.0020   -1.2090 o         1 3TK     -0.573100
      4 S           3.3940   -0.4840    1.2470 ss        1 3TK      0.031700
      5 C1          1.8580    0.3140    1.2300 cc        1 3TK      0.477300
      6 N1          1.5710    0.9830    2.3780 nd        1 3TK     -0.683000
      7 S1         -1.3620   -0.6740   -1.4810 ss        1 3TK     -0.184400
      8 C2          2.6180    0.8330    3.2550 cd        1 3TK      0.349200
      9 N2         -3.7720   -0.5790   -2.4840 nb        1 3TK     -0.710500
     10 C3          3.6900    0.0670    2.8010 cc        1 3TK     -0.248700
     11 N3         -1.9550    0.0320   -3.9930 nb        1 3TK     -0.710500
     12 C4          4.9170   -0.2070    3.5700 c3        1 3TK      0.048200
     13 C5          4.8910   -1.5210    4.2780 ca        1 3TK     -0.083300
     14 C6          3.8380   -1.8380    5.1440 ca        1 3TK     -0.123000
     15 C7          3.8330   -3.0520    5.8290 ca        1 3TK     -0.128500
     16 C8          4.8790   -3.9580    5.6540 ca        1 3TK     -0.130000
     17 C9          5.9300   -3.6470    4.7920 ca        1 3TK     -0.128500
     18 C10         5.9370   -2.4340    4.1060 ca        1 3TK     -0.123000
     19 C11         0.2320   -0.2950   -2.1420 c3        1 3TK     -0.126300
     20 C12        -2.4530   -0.3720   -2.7880 ca        1 3TK      0.731300
     21 C13        -4.6600   -0.3630   -3.4850 ca        1 3TK      0.467600
     22 C14        -6.1160   -0.5730   -3.2230 c3        1 3TK     -0.157400
     23 C15        -4.2400    0.0550   -4.7680 ca        1 3TK     -0.379600
     24 C16        -2.8590    0.2440   -4.9840 ca        1 3TK      0.467600
     25 C17        -2.3770    0.6860   -6.3270 c3        1 3TK     -0.157400
     26 HN          0.1010    0.7370    0.2450 hn        1 3TK      0.350500
     27 H2          2.5480    1.3180    4.2360 h4        1 3TK      0.042100
     28 H4          5.8070   -0.1630    2.8820 hc        1 3TK      0.059200
     29 H4A         5.0580    0.6060    4.3380 hc        1 3TK      0.059200
     30 H6          3.0110   -1.1230    5.2740 ha        1 3TK      0.133000
     31 H7          3.0010   -3.2950    6.5060 ha        1 3TK      0.131500
     32 H8          4.8730   -4.9160    6.1940 ha        1 3TK      0.131000
     33 H9          6.7550   -4.3610    4.6510 ha        1 3TK      0.131500
     34 H10         6.7690   -2.1960    3.4260 ha        1 3TK      0.133000
     35 H11         0.5190   -1.0160   -2.9500 h1        1 3TK      0.116200
     36 H11A        0.2650    0.7320   -2.5870 h1        1 3TK      0.116200
     37 H14        -6.3080   -1.6380   -2.9370 hc        1 3TK      0.061033
     38 H14A       -6.4600    0.0820   -2.3850 hc        1 3TK      0.061033
     39 H14B       -6.7110   -0.3330   -4.1370 hc        1 3TK      0.061033
     40 H15        -4.9660    0.2260   -5.5710 ha        1 3TK      0.155000
     41 H17        -3.2420    0.8210   -7.0210 hc        1 3TK      0.061033
     42 H17A       -1.8270    1.6560   -6.2450 hc        1 3TK      0.061033
     43 H17B       -1.6820   -0.0760   -6.7610 hc        1 3TK      0.061033
@<TRIPOS>BOND
     1    1    2 1   
     2    1    3 2   
     3    1   19 1   
     4    2    5 1   
     5    2   26 1   
     6    4    5 1   
     7    4   10 1   
     8    5    6 2   
     9    6    8 1   
    10    7   19 1   
    11    7   20 1   
    12    8   10 2   
    13    8   27 1   
    14    9   20 ar  
    15    9   21 ar  
    16   10   12 1   
    17   11   20 ar  
    18   11   24 ar  
    19   12   13 1   
    20   12   28 1   
    21   12   29 1   
    22   13   14 ar  
    23   13   18 ar  
    24   14   15 ar  
    25   14   30 1   
    26   15   16 ar  
    27   15   31 1   
    28   16   17 ar  
    29   16   32 1   
    30   17   18 ar  
    31   17   33 1   
    32   18   34 1   
    33   19   35 1   
    34   19   36 1   
    35   21   22 1   
    36   21   23 ar  
    37   22   37 1   
    38   22   38 1   
    39   22   39 1   
    40   23   24 ar  
    41   23   40 1   
    42   24   25 1   
    43   25   41 1   
    44   25   42 1   
    45   25   43 1   
@<TRIPOS>SUBSTRUCTURE
     1 3TK         1 TEMP              0 ****  ****    0 ROOT
