@<TRIPOS>MOLECULE
3TK
   43    45     1     0     0
SMALL
bcc


@<TRIPOS>ATOM
      1 C           1.2690   -0.3850   -1.0410 c         1 3TK      0.673100
      2 N           0.9970    0.2790    0.1460 ns        1 3TK     -0.523400
      3 O           2.3310   -1.0110   -1.2110 o         1 3TK     -0.573100
      4 S           3.3960   -0.5200    1.2490 ss        1 3TK      0.031700
      5 C1          1.8680    0.2940    1.2360 cc        1 3TK      0.477300
      6 N1          1.5870    0.9590    2.3880 nd        1 3TK     -0.683000
      7 S1         -1.3600   -0.6430   -1.4820 ss        1 3TK     -0.184400
      8 C2          2.6330    0.7910    3.2650 cd        1 3TK      0.349200
      9 N2         -3.7690   -0.5150   -2.4840 nb        1 3TK     -0.710500
     10 C3          3.6970    0.0180    2.8070 cc        1 3TK     -0.248700
     11 N3         -1.9450    0.0870   -3.9900 nb        1 3TK     -0.710500
     12 C4          4.9200   -0.2730    3.5740 c3        1 3TK      0.048200
     13 C5          4.8810   -1.5910    4.2740 ca        1 3TK     -0.083300
     14 C6          3.8250   -1.9030    5.1390 ca        1 3TK     -0.123000
     15 C7          3.8060   -3.1200    5.8160 ca        1 3TK     -0.128500
     16 C8          4.8430   -4.0370    5.6360 ca        1 3TK     -0.130000
     17 C9          5.8970   -3.7320    4.7760 ca        1 3TK     -0.128500
     18 C10         5.9170   -2.5140    4.0960 ca        1 3TK     -0.123000
     19 C11         0.2380   -0.2770   -2.1400 c3        1 3TK     -0.126300
     20 C12        -2.4480   -0.3200   -2.7870 ca        1 3TK      0.731300
     21 C13        -4.6540   -0.2820   -3.4840 ca        1 3TK      0.467600
     22 C14        -6.1120   -0.4780   -3.2240 c3        1 3TK     -0.157400
     23 C15        -4.2300    0.1390   -4.7640 ca        1 3TK     -0.379600
     24 C16        -2.8470    0.3150   -4.9790 ca        1 3TK      0.467600
     25 C17        -2.3600    0.7600   -6.3190 c3        1 3TK     -0.157400
     26 HN          0.1160    0.7410    0.2530 hn        1 3TK      0.350500
     27 H2          2.5670    1.2710    4.2490 h4        1 3TK      0.042100
     28 H4          5.8120   -0.2350    2.8870 hc        1 3TK      0.059200
     29 H4A         5.0700    0.5330    4.3470 hc        1 3TK      0.059200
     30 H6          3.0060   -1.1800    5.2730 ha        1 3TK      0.133000
     31 H7          2.9720   -3.3580    6.4920 ha        1 3TK      0.131500
     32 H8          4.8270   -4.9980    6.1700 ha        1 3TK      0.131000
     33 H9          6.7150   -4.4530    4.6300 ha        1 3TK      0.131500
     34 H10         6.7510   -2.2810    3.4180 ha        1 3TK      0.133000
     35 H11         0.2820    0.7530   -2.5780 h1        1 3TK      0.116200
     36 H11A        0.5170   -0.9960   -2.9530 h1        1 3TK      0.116200
     37 H14        -6.7050   -0.2260   -4.1360 hc        1 3TK      0.061033
     38 H14A       -6.4500    0.1770   -2.3820 hc        1 3TK      0.061033
     39 H14B       -6.3170   -1.5410   -2.9420 hc        1 3TK      0.061033
     40 H15        -4.9540    0.3240   -5.5660 ha        1 3TK      0.155000
     41 H17        -3.2230    0.9090   -7.0130 hc        1 3TK      0.061033
     42 H17A       -1.6730   -0.0060   -6.7580 hc        1 3TK      0.061033
     43 H17B       -1.8000    1.7240   -6.2300 hc        1 3TK      0.061033
@<TRIPOS>BOND
     1    1    2 1   
     2    1    3 2   
     3    1   19 1   
     4    2    5 1   
     5    2   26 1   
     6    4    5 1   
     7    4   10 1   
     8    5    6 2   
     9    6    8 1   
    10    7   19 1   
    11    7   20 1   
    12    8   10 2   
    13    8   27 1   
    14    9   20 ar  
    15    9   21 ar  
    16   10   12 1   
    17   11   20 ar  
    18   11   24 ar  
    19   12   13 1   
    20   12   28 1   
    21   12   29 1   
    22   13   14 ar  
    23   13   18 ar  
    24   14   15 ar  
    25   14   30 1   
    26   15   16 ar  
    27   15   31 1   
    28   16   17 ar  
    29   16   32 1   
    30   17   18 ar  
    31   17   33 1   
    32   18   34 1   
    33   19   35 1   
    34   19   36 1   
    35   21   22 1   
    36   21   23 ar  
    37   22   37 1   
    38   22   38 1   
    39   22   39 1   
    40   23   24 ar  
    41   23   40 1   
    42   24   25 1   
    43   25   41 1   
    44   25   42 1   
    45   25   43 1   
@<TRIPOS>SUBSTRUCTURE
     1 3TK         1 TEMP              0 ****  ****    0 ROOT
