@<TRIPOS>MOLECULE
3TN
   55    57     1     0     0
SMALL
bcc


@<TRIPOS>ATOM
      1 CAA        -0.3590   -0.2620    0.4250 c3        1 3TN      0.108700
      2 OAR         0.9860    0.2070    0.2840 os        1 3TN     -0.347900
      3 CAV         1.7260    0.1620    1.4540 ca        1 3TN      0.133100
      4 CAN         1.9580   -1.0630    2.0870 ca        1 3TN     -0.177000
      5 CAY         2.7940   -1.1540    3.2070 ca        1 3TN     -0.052300
      6 CBA         3.0110   -2.5110    3.8210 c3        1 3TN     -0.001700
      7 CAB         3.3330   -3.5410    2.7390 c3        1 3TN     -0.083600
      8 CAC         1.7380   -2.9450    4.5430 c3        1 3TN     -0.083600
      9 CAP         4.1850   -2.4950    4.8010 c3        1 3TN     -0.066400
     10 CAQ         4.1570   -1.2900    5.7070 c3        1 3TN     -0.067400
     11 CBB         4.2650    0.0240    4.9320 c3        1 3TN      0.003300
     12 CAD         5.7120    0.2560    4.5050 c3        1 3TN     -0.084600
     13 CAE         3.8500    1.1490    5.8800 c3        1 3TN     -0.084600
     14 CAZ         3.3830    0.0150    3.7120 ca        1 3TN     -0.093300
     15 CAO         3.1490    1.2350    3.0620 ca        1 3TN     -0.093000
     16 CAX         2.3200    1.3450    1.9420 cp        1 3TN     -0.020000
     17 CAW         2.0660    2.6540    1.3430 cp        1 3TN     -0.054000
     18 CAM         0.7640    3.0140    0.9690 ca        1 3TN     -0.058000
     19 CAU         3.0970    3.5970    1.1500 ca        1 3TN      0.101100
     20 OAH         4.3830    3.2530    1.5260 oh        1 3TN     -0.510100
     21 CAL         2.8250    4.8560    0.5990 ca        1 3TN     -0.228000
     22 CAK         1.5230    5.1880    0.2430 ca        1 3TN     -0.111000
     23 CAT         0.4730    4.2730    0.4250 ca        1 3TN     -0.034800
     24 CAJ        -0.8660    4.6640    0.0160 ce        1 3TN     -0.176200
     25 CAI        -2.0430    4.1400    0.3730 cf        1 3TN     -0.147200
     26 CAS        -2.3510    3.0060    1.3180 c         1 3TN      0.896800
     27 OAG        -2.2150    1.8170    0.8980 o         1 3TN     -0.837800
     28 OAF        -2.7840    3.2960    2.4680 o         1 3TN     -0.837800
     29 HAI        -2.9630    4.5840   -0.0480 ha        1 3TN      0.098000
     30 HAJ        -0.8670    5.5250   -0.6800 ha        1 3TN      0.083000
     31 HAM        -0.0590    2.2790    1.0940 ha        1 3TN      0.203000
     32 HAH         4.9750    3.9340    1.1790 ho        1 3TN      0.401000
     33 HAL         3.6410    5.5760    0.4500 ha        1 3TN      0.111000
     34 HAK         1.3150    6.1800   -0.1840 ha        1 3TN      0.117000
     35 HAO         3.6340    2.1510    3.4380 ha        1 3TN      0.142000
     36 HAN         1.4630   -1.9610    1.6890 ha        1 3TN      0.133000
     37 HAA1       -0.3650   -1.3770    0.3630 h1        1 3TN      0.056033
     38 HAA2       -0.8980    0.2040   -0.4390 h1        1 3TN      0.056033
     39 HAA3       -0.8250    0.0950    1.3770 h1        1 3TN      0.056033
     40 HAB1        4.1360   -3.1570    2.0660 hc        1 3TN      0.034033
     41 HAB2        2.4300   -3.7670    2.1230 hc        1 3TN      0.034033
     42 HAB3        3.6810   -4.4910    3.2110 hc        1 3TN      0.034033
     43 HAC1        0.8780   -2.9530    3.8300 hc        1 3TN      0.034033
     44 HAC2        1.8660   -3.9710    4.9640 hc        1 3TN      0.034033
     45 HAC3        1.4990   -2.2410    5.3740 hc        1 3TN      0.034033
     46 HAP1        4.1560   -3.4300    5.4200 hc        1 3TN      0.034200
     47 HAP2        5.1450   -2.5060    4.2210 hc        1 3TN      0.034200
     48 HAQ1        5.0040   -1.3530    6.4400 hc        1 3TN      0.036700
     49 HAQ2        3.2020   -1.2880    6.2980 hc        1 3TN      0.036700
     50 HAD1        6.0720   -0.5840    3.8650 hc        1 3TN      0.033867
     51 HAD2        6.3700    0.3310    5.4040 hc        1 3TN      0.033867
     52 HAD3        5.7900    1.2050    3.9210 hc        1 3TN      0.033867
     53 HAE1        4.3640    1.0240    6.8640 hc        1 3TN      0.033867
     54 HAE2        2.7470    1.1290    6.0440 hc        1 3TN      0.033867
     55 HAE3        4.1310    2.1450    5.4640 hc        1 3TN      0.033867
@<TRIPOS>BOND
     1    1    2 1   
     2    1   37 1   
     3    1   38 1   
     4    1   39 1   
     5    2    3 1   
     6    3    4 ar  
     7    3   16 ar  
     8    4    5 ar  
     9    4   36 1   
    10    5    6 1   
    11    5   14 ar  
    12    6    7 1   
    13    6    8 1   
    14    6    9 1   
    15    7   40 1   
    16    7   41 1   
    17    7   42 1   
    18    8   43 1   
    19    8   44 1   
    20    8   45 1   
    21    9   10 1   
    22    9   46 1   
    23    9   47 1   
    24   10   11 1   
    25   10   48 1   
    26   10   49 1   
    27   11   12 1   
    28   11   13 1   
    29   11   14 1   
    30   12   50 1   
    31   12   51 1   
    32   12   52 1   
    33   13   53 1   
    34   13   54 1   
    35   13   55 1   
    36   14   15 ar  
    37   15   16 ar  
    38   15   35 1   
    39   16   17 1   
    40   17   18 ar  
    41   17   19 ar  
    42   18   23 ar  
    43   18   31 1   
    44   19   20 1   
    45   19   21 ar  
    46   20   32 1   
    47   21   22 ar  
    48   21   33 1   
    49   22   23 ar  
    50   22   34 1   
    51   23   24 1   
    52   24   25 2   
    53   24   30 1   
    54   25   26 1   
    55   25   29 1   
    56   26   27 1   
    57   26   28 1   
@<TRIPOS>SUBSTRUCTURE
     1 3TN         1 TEMP              0 ****  ****    0 ROOT
