@<TRIPOS>MOLECULE
3TN
   55    57     1     0     0
SMALL
bcc


@<TRIPOS>ATOM
      1 CAA        -0.3750   -0.2620    0.4430 c3        1 3TN      0.108700
      2 OAR         0.9710    0.2040    0.2930 os        1 3TN     -0.347900
      3 CAV         1.7170    0.1600    1.4580 ca        1 3TN      0.133100
      4 CAN         1.9520   -1.0640    2.0930 ca        1 3TN     -0.177000
      5 CAY         2.7940   -1.1540    3.2080 ca        1 3TN     -0.052300
      6 CBA         3.0120   -2.5100    3.8240 c3        1 3TN     -0.001700
      7 CAB         3.3250   -3.5430    2.7410 c3        1 3TN     -0.083600
      8 CAC         1.7420   -2.9400    4.5530 c3        1 3TN     -0.083600
      9 CAP         4.1910   -2.4940    4.7960 c3        1 3TN     -0.066400
     10 CAQ         4.1710   -1.2870    5.6990 c3        1 3TN     -0.067400
     11 CBB         4.2780    0.0250    4.9210 c3        1 3TN      0.003300
     12 CAD         5.7220    0.2530    4.4850 c3        1 3TN     -0.084600
     13 CAE         3.8710    1.1520    5.8700 c3        1 3TN     -0.084600
     14 CAZ         3.3880    0.0150    3.7070 ca        1 3TN     -0.093300
     15 CAO         3.1530    1.2340    3.0550 ca        1 3TN     -0.093000
     16 CAX         2.3160    1.3430    1.9400 cp        1 3TN     -0.020000
     17 CAW         2.0620    2.6520    1.3400 cp        1 3TN     -0.054000
     18 CAM         0.7580    3.0130    0.9730 ca        1 3TN     -0.058000
     19 CAU         3.0940    3.5920    1.1390 ca        1 3TN      0.101100
     20 OAH         4.3810    3.2460    1.5080 oh        1 3TN     -0.510100
     21 CAL         2.8200    4.8510    0.5860 ca        1 3TN     -0.228000
     22 CAK         1.5170    5.1840    0.2380 ca        1 3TN     -0.111000
     23 CAT         0.4660    4.2720    0.4280 ca        1 3TN     -0.034800
     24 CAJ        -0.8740    4.6640    0.0260 ce        1 3TN     -0.176200
     25 CAI        -2.0500    4.1440    0.3920 cf        1 3TN     -0.147200
     26 CAS        -2.3550    3.0120    1.3410 c         1 3TN      0.896800
     27 OAG        -2.2240    1.8220    0.9230 o         1 3TN     -0.837800
     28 OAF        -2.7800    3.3060    2.4930 o         1 3TN     -0.837800
     29 HAI        -2.9720    4.5880   -0.0250 ha        1 3TN      0.098000
     30 HAJ        -0.8780    5.5240   -0.6720 ha        1 3TN      0.083000
     31 HAM        -0.0660    2.2800    1.1050 ha        1 3TN      0.203000
     32 HAH         4.9720    3.9260    1.1560 ho        1 3TN      0.401000
     33 HAL         3.6370    5.5690    0.4310 ha        1 3TN      0.111000
     34 HAK         1.3080    6.1750   -0.1900 ha        1 3TN      0.117000
     35 HAO         3.6410    2.1500    3.4260 ha        1 3TN      0.142000
     36 HAN         1.4520   -1.9620    1.7000 ha        1 3TN      0.133000
     37 HAA1       -0.9180    0.2030   -0.4180 h1        1 3TN      0.056033
     38 HAA2       -0.8340    0.0980    1.3970 h1        1 3TN      0.056033
     39 HAA3       -0.3830   -1.3770    0.3840 h1        1 3TN      0.056033
     40 HAB1        3.6750   -4.4930    3.2130 hc        1 3TN      0.034033
     41 HAB2        4.1250   -3.1620    2.0630 hc        1 3TN      0.034033
     42 HAB3        2.4180   -3.7690    2.1320 hc        1 3TN      0.034033
     43 HAC1        1.5100   -2.2340    5.3850 hc        1 3TN      0.034033
     44 HAC2        1.8710   -3.9650    4.9760 hc        1 3TN      0.034033
     45 HAC3        0.8780   -2.9480    3.8460 hc        1 3TN      0.034033
     46 HAP1        5.1490   -2.5080    4.2100 hc        1 3TN      0.034200
     47 HAP2        4.1650   -3.4280    5.4180 hc        1 3TN      0.034200
     48 HAQ1        3.2210   -1.2820    6.2960 hc        1 3TN      0.036700
     49 HAQ2        5.0230   -1.3500    6.4270 hc        1 3TN      0.036700
     50 HAD1        6.0770   -0.5880    3.8440 hc        1 3TN      0.033867
     51 HAD2        6.3860    0.3290    5.3790 hc        1 3TN      0.033867
     52 HAD3        5.7980    1.2010    3.8980 hc        1 3TN      0.033867
     53 HAE1        2.7680    1.1350    6.0400 hc        1 3TN      0.033867
     54 HAE2        4.3900    1.0290    6.8510 hc        1 3TN      0.033867
     55 HAE3        4.1510    2.1470    5.4490 hc        1 3TN      0.033867
@<TRIPOS>BOND
     1    1    2 1   
     2    1   37 1   
     3    1   38 1   
     4    1   39 1   
     5    2    3 1   
     6    3    4 ar  
     7    3   16 ar  
     8    4    5 ar  
     9    4   36 1   
    10    5    6 1   
    11    5   14 ar  
    12    6    7 1   
    13    6    8 1   
    14    6    9 1   
    15    7   40 1   
    16    7   41 1   
    17    7   42 1   
    18    8   43 1   
    19    8   44 1   
    20    8   45 1   
    21    9   10 1   
    22    9   46 1   
    23    9   47 1   
    24   10   11 1   
    25   10   48 1   
    26   10   49 1   
    27   11   12 1   
    28   11   13 1   
    29   11   14 1   
    30   12   50 1   
    31   12   51 1   
    32   12   52 1   
    33   13   53 1   
    34   13   54 1   
    35   13   55 1   
    36   14   15 ar  
    37   15   16 ar  
    38   15   35 1   
    39   16   17 1   
    40   17   18 ar  
    41   17   19 ar  
    42   18   23 ar  
    43   18   31 1   
    44   19   20 1   
    45   19   21 ar  
    46   20   32 1   
    47   21   22 ar  
    48   21   33 1   
    49   22   23 ar  
    50   22   34 1   
    51   23   24 1   
    52   24   25 2   
    53   24   30 1   
    54   25   26 1   
    55   25   29 1   
    56   26   27 1   
    57   26   28 1   
@<TRIPOS>SUBSTRUCTURE
     1 3TN         1 TEMP              0 ****  ****    0 ROOT
