@<TRIPOS>MOLECULE
3TN
   55    57     1     0     0
SMALL
bcc


@<TRIPOS>ATOM
      1 CAA        -1.1860    0.3320   -0.7020 c3        1 3TN      0.113700
      2 OAR         0.0120    0.4710    0.0610 os        1 3TN     -0.346900
      3 CAV         0.9190   -0.5670   -0.1230 ca        1 3TN      0.114100
      4 CAN         2.1080   -0.2470   -0.7890 ca        1 3TN     -0.149000
      5 CAY         3.1290   -1.1930   -0.9390 ca        1 3TN     -0.055300
      6 CBA         4.3930   -0.7650   -1.6370 c3        1 3TN     -0.002700
      7 CAB         4.8890    0.5640   -1.0670 c3        1 3TN     -0.084100
      8 CAC         4.1090   -0.5820   -3.1250 c3        1 3TN     -0.084100
      9 CAP         5.5090   -1.7920   -1.4430 c3        1 3TN     -0.067400
     10 CAQ         5.0230   -3.2070   -1.6300 c3        1 3TN     -0.068400
     11 CBB         3.9480   -3.5920   -0.6130 c3        1 3TN     -0.001700
     12 CAD         4.5950   -3.8850    0.7380 c3        1 3TN     -0.085100
     13 CAE         3.2750   -4.8680   -1.1190 c3        1 3TN     -0.085100
     14 CAZ         2.9310   -2.4940   -0.4490 ca        1 3TN     -0.075300
     15 CAO         1.7420   -2.7950    0.2300 ca        1 3TN     -0.102000
     16 CAX         0.7260   -1.8530    0.4120 cp        1 3TN     -0.025000
     17 CAW        -0.4890   -2.2440    1.1320 cp        1 3TN     -0.073000
     18 CAM        -1.4870   -2.9670    0.4670 ca        1 3TN     -0.107000
     19 CAU        -0.6740   -1.9380    2.4920 ca        1 3TN      0.112100
     20 OAH         0.3370   -1.2660    3.1490 oh        1 3TN     -0.496100
     21 CAL        -1.8450   -2.3340    3.1580 ca        1 3TN     -0.215000
     22 CAK        -2.8250   -3.0390    2.4730 ca        1 3TN     -0.102000
     23 CAT        -2.6640   -3.3690    1.1150 ca        1 3TN     -0.031800
     24 CAJ        -3.7120   -4.1070    0.4370 ce        1 3TN     -0.186200
     25 CAI        -3.7890   -4.3430   -0.8790 cf        1 3TN     -0.159200
     26 CAS        -4.9300   -5.1210   -1.5040 c         1 3TN      0.889800
     27 OAG        -4.8820   -5.2960   -2.7560 o         1 3TN     -0.831800
     28 OAF        -5.8580   -5.5510   -0.7620 o         1 3TN     -0.831800
     29 HAI        -3.0350   -3.9860   -1.5970 ha        1 3TN      0.099000
     30 HAJ        -4.5200   -4.4970    1.0850 ha        1 3TN      0.145000
     31 HAM        -1.3390   -3.2260   -0.5940 ha        1 3TN      0.146000
     32 HAH        -0.0080   -1.0020    4.0130 ho        1 3TN      0.405000
     33 HAL        -1.9800   -2.0820    4.2190 ha        1 3TN      0.119000
     34 HAK        -3.7430   -3.3470    2.9960 ha        1 3TN      0.135000
     35 HAO         1.5940   -3.8060    0.6430 ha        1 3TN      0.141000
     36 HAN         2.2270    0.7710   -1.1870 ha        1 3TN      0.137000
     37 HAA1       -1.6850   -0.6460   -0.4890 h1        1 3TN      0.043033
     38 HAA2       -0.9580    0.4240   -1.7910 h1        1 3TN      0.043033
     39 HAA3       -1.8210    1.1850   -0.3560 h1        1 3TN      0.043033
     40 HAB1        4.2190    1.4030   -1.3710 hc        1 3TN      0.034700
     41 HAB2        4.9210    0.5200    0.0470 hc        1 3TN      0.034700
     42 HAB3        5.9160    0.7800   -1.4500 hc        1 3TN      0.034700
     43 HAC1        5.0260   -0.2190   -3.6480 hc        1 3TN      0.034700
     44 HAC2        3.7900   -1.5470   -3.5850 hc        1 3TN      0.034700
     45 HAC3        3.2930    0.1660   -3.2700 hc        1 3TN      0.034700
     46 HAP1        5.9380   -1.6760   -0.4120 hc        1 3TN      0.038200
     47 HAP2        6.3320   -1.5790   -2.1740 hc        1 3TN      0.038200
     48 HAQ1        4.6060   -3.3260   -2.6660 hc        1 3TN      0.040200
     49 HAQ2        5.8870   -3.9160   -1.5340 hc        1 3TN      0.040200
     50 HAD1        5.1430   -2.9890    1.1140 hc        1 3TN      0.036533
     51 HAD2        3.8120   -4.1600    1.4860 hc        1 3TN      0.036533
     52 HAD3        5.3130   -4.7340    0.6420 hc        1 3TN      0.036533
     53 HAE1        4.0520   -5.6100   -1.4240 hc        1 3TN      0.036533
     54 HAE2        2.6450   -5.3300   -0.3230 hc        1 3TN      0.036533
     55 HAE3        2.6270   -4.6430   -1.9990 hc        1 3TN      0.036533
@<TRIPOS>BOND
     1    1    2 1   
     2    1   37 1   
     3    1   38 1   
     4    1   39 1   
     5    2    3 1   
     6    3    4 ar  
     7    3   16 ar  
     8    4    5 ar  
     9    4   36 1   
    10    5    6 1   
    11    5   14 ar  
    12    6    7 1   
    13    6    8 1   
    14    6    9 1   
    15    7   40 1   
    16    7   41 1   
    17    7   42 1   
    18    8   43 1   
    19    8   44 1   
    20    8   45 1   
    21    9   10 1   
    22    9   46 1   
    23    9   47 1   
    24   10   11 1   
    25   10   48 1   
    26   10   49 1   
    27   11   12 1   
    28   11   13 1   
    29   11   14 1   
    30   12   50 1   
    31   12   51 1   
    32   12   52 1   
    33   13   53 1   
    34   13   54 1   
    35   13   55 1   
    36   14   15 ar  
    37   15   16 ar  
    38   15   35 1   
    39   16   17 1   
    40   17   18 ar  
    41   17   19 ar  
    42   18   23 ar  
    43   18   31 1   
    44   19   20 1   
    45   19   21 ar  
    46   20   32 1   
    47   21   22 ar  
    48   21   33 1   
    49   22   23 ar  
    50   22   34 1   
    51   23   24 1   
    52   24   25 2   
    53   24   30 1   
    54   25   26 1   
    55   25   29 1   
    56   26   27 1   
    57   26   28 1   
@<TRIPOS>SUBSTRUCTURE
     1 3TN         1 TEMP              0 ****  ****    0 ROOT
