@<TRIPOS>MOLECULE
3TN
   55    53     1     0     0
SMALL
bcc


@<TRIPOS>ATOM
      1 CAA        -3.0710   -0.7480   -2.4910 c3        1 3TN     -0.075000
      2 OAR        -1.6330   -0.6340   -2.3640 os        1 3TN     -0.233000
      3 CAV        -1.1710   -0.4890   -0.9910 c2        1 3TN      0.055000
      4 CAN        -1.5610   -1.5220    0.0470 c1        1 3TN     -0.150000
      5 CAY        -0.8820   -1.5160    1.4310 c1        1 3TN     -0.056000
      6 CBA        -0.6990   -2.8090    2.3550 c3        1 3TN     -0.008000
      7 CAB        -1.8290   -3.7870    2.0520 c3        1 3TN     -0.201500
      8 CAC         0.6440   -3.4820    2.0000 c3        1 3TN     -0.201500
      9 CAP        -0.7100   -2.5130    3.7730 c3        1 3TN     -0.146000
     10 CAQ         0.3010   -1.3590    4.1570 c3        1 3TN     -0.147000
     11 CBB         0.0890   -0.1540    3.3620 c3        1 3TN     -0.007000
     12 CAD        -1.2530    0.4890    3.7860 c3        1 3TN     -0.203000
     13 CAE         1.2070    0.8220    3.6560 c3        1 3TN     -0.203000
     14 CAZ         0.0480   -0.4250    1.7940 c2        1 3TN     -0.073000
     15 CAO         0.4850    0.5980    0.7310 c2        1 3TN     -0.099000
     16 CAX        -0.1530    0.5800   -0.6460 c2        1 3TN     -0.017000
     17 CAW         0.3000    1.6020   -1.7270 c2        1 3TN     -0.095000
     18 CAM         1.5160    1.3060   -2.5970 c2        1 3TN     -0.101000
     19 CAU        -0.4300    2.9300   -1.8700 c1        1 3TN      0.057000
     20 OAH        -1.5880    3.1840   -1.1080 o         1 3TN     -0.271000
     21 CAL         0.0600    3.9610   -2.8690 c2        1 3TN     -0.220000
     22 CAK         1.3290    3.7040   -3.6650 c1        1 3TN     -0.070000
     23 CAT         2.0610    2.3760   -3.5240 c1        1 3TN     -0.025000
     24 CAJ         3.4170    2.1760   -4.2120 c2        1 3TN     -0.195000
     25 CAI         3.4750    1.9430   -5.5840 c1        1 3TN     -0.127000
     26 CAS         2.1890    1.8850   -6.4040 c1        1 3TN      0.345000
     27 OAG         1.7930    2.9090   -7.0240 o         1 3TN     -0.568000
     28 OAF         1.6020    0.7850   -6.5740 o         1 3TN     -0.568000
     29 HAI         4.3350    1.8160   -6.0200 ha        1 3TN      0.099000
     30 HAJ         4.2570    2.2140   -3.6770 ha        1 3TN      0.089000
     31 HAM         1.9840    0.4540   -2.5060 ha        1 3TN      0.142000
     32 HAH        -1.8250    4.0470   -1.2020 ho        1 3TN      0.207000
     33 HAL        -0.4140    4.8230   -2.9620 ha        1 3TN      0.125000
     34 HAK         1.7050    4.4100   -4.2190 ha        1 3TN      0.211000
     35 HAO         1.1980    1.2350    0.9310 ha        1 3TN      0.148000
     36 HAN        -2.1780   -2.2230   -0.1810 ha        1 3TN      0.136000
     37 HAA1       -3.3320   -1.6930   -2.4190 h1        1 3TN      0.084000
     38 HAA2       -3.5050   -0.2330   -1.7770 h1        1 3TN      0.084000
     39 HAA3       -3.3550   -0.3910   -3.3780 h1        1 3TN      0.084000
     40 HAB1       -1.7910   -4.5360    2.6830 hc        1 3TN      0.073333
     41 HAB2       -2.6960   -3.3260    2.1420 hc        1 3TN      0.073333
     42 HAB3       -1.7310   -4.1290    1.1270 hc        1 3TN      0.073333
     43 HAC1        0.7840   -4.2630    2.5820 hc        1 3TN      0.073333
     44 HAC2        1.3630   -2.8530    2.1300 hc        1 3TN      0.073333
     45 HAC3        0.6280   -3.7680    1.0710 hc        1 3TN      0.073333
     46 HAP1       -0.4650   -3.3330    4.2740 hc        1 3TN      0.076500
     47 HAP2       -1.6150   -2.2420    4.0330 hc        1 3TN      0.076500
     48 HAQ1        1.2210   -1.6830    3.9890 hc        1 3TN      0.077000
     49 HAQ2        0.1680   -1.1320    5.1050 hc        1 3TN      0.077000
     50 HAD1       -1.3660    0.4000    4.7630 hc        1 3TN      0.074667
     51 HAD2       -1.9910    0.0370    3.3300 hc        1 3TN      0.074667
     52 HAD3       -1.2520    1.4560    3.5370 hc        1 3TN      0.074667
     53 HAE1        0.9900    1.6940    3.2600 hc        1 3TN      0.074667
     54 HAE2        1.3110    0.9190    4.6170 hc        1 3TN      0.074667
     55 HAE3        2.0370    0.4890    3.2720 hc        1 3TN      0.074667
@<TRIPOS>BOND
     1    1    2 1   
     2    1   37 1   
     3    1   38 1   
     4    1   39 1   
     5    2    3 1   
     6    3    4 1   
     7    3   16 1   
     8    4   36 1   
     9    5    6 1   
    10    5   14 1   
    11    6    7 1   
    12    6    8 1   
    13    6    9 1   
    14    7   40 1   
    15    7   41 1   
    16    7   42 1   
    17    8   43 1   
    18    8   44 1   
    19    8   45 1   
    20    9   10 1   
    21    9   46 1   
    22    9   47 1   
    23   10   11 1   
    24   10   48 1   
    25   10   49 1   
    26   11   12 1   
    27   11   13 1   
    28   11   14 1   
    29   12   50 1   
    30   12   51 1   
    31   12   52 1   
    32   13   53 1   
    33   13   54 1   
    34   13   55 1   
    35   14   15 1   
    36   15   16 1   
    37   15   35 1   
    38   16   17 1   
    39   17   18 1   
    40   17   19 1   
    41   18   23 1   
    42   18   31 1   
    43   19   21 1   
    44   20   32 1   
    45   21   22 1   
    46   21   33 1   
    47   22   34 1   
    48   23   24 1   
    49   24   25 1   
    50   24   30 1   
    51   25   29 1   
    52   26   27 1   
    53   26   28 1   
@<TRIPOS>SUBSTRUCTURE
     1 3TN         1 TEMP              0 ****  ****    0 ROOT
