@<TRIPOS>MOLECULE
3TO
   47    44     1     0     0
SMALL
bcc


@<TRIPOS>ATOM
      1 C1         -0.3140    1.6350    0.1530 c2        1 3TO     -0.187000
      2 N1          3.1400    0.1700    5.1410 n2        1 3TO     -0.357000
      3 O1          2.0380    4.9940   10.4980 os        1 3TO     -0.173000
      4 C2          3.0140    0.4630    6.2870 c1        1 3TO      0.134000
      5 C3          3.0120   -0.1420    3.8080 c1        1 3TO      0.098000
      6 N3          1.2340    2.3800    9.2630 n3        1 3TO     -0.107000
      7 C4         -0.1200    0.6880    2.5670 c2        1 3TO     -0.131000
      8 C5         -0.2360    1.1660    1.3600 c1        1 3TO     -0.170000
      9 C6         -1.2160    0.5860    3.5620 c3        1 3TO     -0.117000
     10 C7         -2.5000    1.2690    3.1190 c3        1 3TO     -0.057000
     11 C8         -3.5100    1.2260    4.1330 c1        1 3TO     -0.147000
     12 C9         -1.3800    1.3620    7.1330 c1        1 3TO     -0.186000
     13 C10        -0.4450    1.2730    7.8730 c1        1 3TO     -0.201000
     14 C11        -5.1740    1.1600    7.2560 c2        1 3TO     -0.197000
     15 C12        -5.3860    1.1710    5.9360 c2        1 3TO     -0.061000
     16 C13        -4.3640    1.2010    4.9740 c1        1 3TO     -0.148000
     17 C14         0.6790    1.1140    8.7650 c3        1 3TO      0.063000
     18 C15         1.5330    3.8240   11.2860 c3        1 3TO     -0.061000
     19 C16         1.0640    2.6480   10.5280 c1        1 3TO     -0.153000
     20 C17         0.4190    4.4440   12.0980 c2        1 3TO     -0.104000
     21 C18         0.3430    5.7650   11.8090 c2        1 3TO     -0.291000
     22 C19         1.3840    6.0940   10.7900 c1        1 3TO      0.056000
     23 C20         1.8900    3.1910    8.2570 c3        1 3TO     -0.166000
     24 H1         -0.1370    2.6960   -0.0790 ha        1 3TO      0.126500
     25 H2         -0.5640    1.0010   -0.7100 ha        1 3TO      0.126500
     26 HN2         5.0230   -0.4410    3.2990 hn        1 3TO      0.217500
     27 HN2A        3.8580   -0.6290    2.0900 hn        1 3TO      0.217500
     28 H5          0.8630    0.3110    2.9250 ha        1 3TO      0.171000
     29 H6         -1.4190   -0.5020    3.7600 hc        1 3TO      0.098000
     30 H6A        -0.8670    1.0390    4.5310 hc        1 3TO      0.098000
     31 H7         -2.8860    0.7730    2.1840 hc        1 3TO      0.106500
     32 H7A        -2.2810    2.3430    2.8560 hc        1 3TO      0.106500
     33 H9         -2.2110    1.4320    6.4700 ha        1 3TO      0.235000
     34 H11        -4.1690    1.1750    7.7010 ha        1 3TO      0.120000
     35 H12        -6.0040    1.1360    7.9730 ha        1 3TO      0.120000
     36 H13        -6.4120    1.1570    5.5220 ha        1 3TO      0.136000
     37 H14         0.3580    0.4950    9.6580 h1        1 3TO      0.136000
     38 H14A        1.5090    0.5690    8.2160 h1        1 3TO      0.136000
     39 H16         0.1000    0.0290   12.0890 ha        1 3TO      0.000000
     40 H16A        0.2820    0.6410   11.8590 ha        1 3TO      0.000000
     41 H17         2.4000    3.5110   11.9310 h1        1 3TO      0.158000
     42 H18        -0.1790    3.8370   12.7770 ha        1 3TO      0.172000
     43 H19        -0.3360    6.5120   12.2170 ha        1 3TO      0.166000
     44 H20         2.6580    3.8550    8.7330 h1        1 3TO      0.104667
     45 H20A        1.1330    3.8280    7.7280 h1        1 3TO      0.104667
     46 H20B        2.3980    2.5290    7.5030 h1        1 3TO      0.104667
     47 N2          4.0590   -0.4200    3.0420 n3        1 3TO     -0.302000
@<TRIPOS>BOND
     1    1    8 1   
     2    1   24 1   
     3    1   25 1   
     4    2    4 1   
     5    2    5 1   
     6    3   18 1   
     7    3   22 1   
     8    5   47 1   
     9    6   17 1   
    10    6   19 1   
    11    6   23 1   
    12    7    8 1   
    13    7    9 1   
    14    7   28 1   
    15    9   10 1   
    16    9   29 1   
    17    9   30 1   
    18   10   11 1   
    19   10   31 1   
    20   10   32 1   
    21   11   16 1   
    22   12   13 1   
    23   12   33 1   
    24   13   17 1   
    25   14   15 1   
    26   14   34 1   
    27   14   35 1   
    28   15   16 1   
    29   15   36 1   
    30   17   37 1   
    31   17   38 1   
    32   18   19 1   
    33   18   20 1   
    34   18   41 1   
    35   20   21 1   
    36   20   42 1   
    37   21   22 1   
    38   21   43 1   
    39   23   44 1   
    40   23   45 1   
    41   23   46 1   
    42   26   47 1   
    43   27   47 1   
    44   39   40 1   
@<TRIPOS>SUBSTRUCTURE
     1 3TO         1 TEMP              0 ****  ****    0 ROOT
