@<TRIPOS>MOLECULE
3TO
   47    49     1     0     0
SMALL
bcc


@<TRIPOS>ATOM
      1 C1          7.2750    0.3250    0.6110 ca        1 3TO     -0.293300
      2 N1          6.6370   -1.5360   -0.8080 nb        1 3TO     -0.725000
      3 O1         -6.3060   -1.4740    0.3770 os        1 3TO     -0.367800
      4 C2          7.5370   -0.8780   -0.0670 ca        1 3TO      0.434200
      5 C3          5.3680   -1.0130   -0.8960 ca        1 3TO      0.632200
      6 N3         -3.3750   -0.0970   -0.1970 n3        1 3TO     -0.730600
      7 C4          5.0170    0.2200   -0.2520 ca        1 3TO     -0.247600
      8 C5          5.9980    0.8690    0.5030 ca        1 3TO     -0.059000
      9 C6          3.6650    0.8250   -0.3680 c3        1 3TO     -0.018100
     10 C7          2.6570    0.1580    0.5560 c3        1 3TO     -0.039100
     11 C8          1.3120    0.7860    0.4380 ca        1 3TO     -0.083300
     12 C9          0.2530    0.0860   -0.1490 ca        1 3TO     -0.125000
     13 C10        -1.0130    0.6710   -0.2530 ca        1 3TO     -0.085300
     14 C11        -1.2220    1.9630    0.2380 ca        1 3TO     -0.110000
     15 C12        -0.1700    2.6610    0.8300 ca        1 3TO     -0.132000
     16 C13         1.0910    2.0780    0.9300 ca        1 3TO     -0.128000
     17 C14        -2.1190   -0.0770   -0.9400 c3        1 3TO      0.214100
     18 C15        -5.8000   -0.4370   -0.4200 cc        1 3TO      0.242000
     19 C16        -4.4550   -0.6590   -1.0040 c3        1 3TO      0.139500
     20 C17        -6.7250    0.5840   -0.5080 cd        1 3TO     -0.240300
     21 C18        -7.8750    0.1720    0.2660 cd        1 3TO     -0.266300
     22 C19        -7.5800   -1.0740    0.7810 cc        1 3TO      0.237600
     23 C20        -3.2580   -0.7170    1.1030 c3        1 3TO      0.148100
     24 H1          8.0570    0.8160    1.2020 ha        1 3TO      0.143000
     25 H2          8.5370   -1.3470   -0.0220 h4        1 3TO      0.020100
     26 HN2         4.7360   -2.4900   -2.1590 hn        1 3TO      0.404300
     27 HN2A        3.6780   -1.2080   -1.9920 hn        1 3TO      0.404300
     28 H5          5.7560    1.8150    1.0110 ha        1 3TO      0.135000
     29 H6          3.7210    1.9180   -0.1080 hc        1 3TO      0.045200
     30 H6A         3.2970    0.7740   -1.4280 hc        1 3TO      0.045200
     31 H7          2.5950   -0.9380    0.3210 hc        1 3TO      0.058700
     32 H7A         3.0160    0.2480    1.6160 hc        1 3TO      0.058700
     33 H9          0.4190   -0.9340   -0.5290 ha        1 3TO      0.131000
     34 H11        -2.2190    2.4240    0.1620 ha        1 3TO      0.147000
     35 H12        -0.3380    3.6760    1.2200 ha        1 3TO      0.132000
     36 H13         1.9190    2.6300    1.3990 ha        1 3TO      0.130000
     37 H14        -1.7660   -1.1270   -1.1720 h1        1 3TO      0.037700
     38 H14A       -2.3140    0.4390   -1.9260 h1        1 3TO      0.037700
     39 H16        -4.4400   -0.1510   -2.0120 h1        1 3TO      0.051200
     40 H16A       -4.3180   -1.7710   -1.1690 h1        1 3TO      0.051200
     41 H17        -6.6230    1.5220   -1.0460 ha        1 3TO      0.163000
     42 H18        -8.7850    0.7490    0.4040 ha        1 3TO      0.161000
     43 H19        -8.0970   -1.7920    1.4090 h4        1 3TO      0.051100
     44 H20        -2.5050   -0.1420    1.7040 h1        1 3TO      0.040033
     45 H20A       -4.2530   -0.6720    1.6190 h1        1 3TO      0.040033
     46 H20B       -2.9320   -1.7930    1.0520 h1        1 3TO      0.040033
     47 N2          4.3940   -1.7580   -1.5750 nh        1 3TO     -0.926500
@<TRIPOS>BOND
     1    1    4 ar  
     2    1    8 ar  
     3    1   24 1   
     4    2    4 ar  
     5    2    5 ar  
     6    3   18 1   
     7    3   22 1   
     8    4   25 1   
     9    5    7 ar  
    10    5   47 1   
    11    6   17 1   
    12    6   19 1   
    13    6   23 1   
    14    7    8 ar  
    15    7    9 1   
    16    8   28 1   
    17    9   10 1   
    18    9   29 1   
    19    9   30 1   
    20   10   11 1   
    21   10   31 1   
    22   10   32 1   
    23   11   12 ar  
    24   11   16 ar  
    25   12   13 ar  
    26   12   33 1   
    27   13   14 ar  
    28   13   17 1   
    29   14   15 ar  
    30   14   34 1   
    31   15   16 ar  
    32   15   35 1   
    33   16   36 1   
    34   17   37 1   
    35   17   38 1   
    36   18   19 1   
    37   18   20 2   
    38   19   39 1   
    39   19   40 1   
    40   20   21 1   
    41   20   41 1   
    42   21   22 2   
    43   21   42 1   
    44   22   43 1   
    45   23   44 1   
    46   23   45 1   
    47   23   46 1   
    48   26   47 1   
    49   27   47 1   
@<TRIPOS>SUBSTRUCTURE
     1 3TO         1 TEMP              0 ****  ****    0 ROOT
