@<TRIPOS>MOLECULE
3TO
   47    40     1     0     0
SMALL
bcc


@<TRIPOS>ATOM
      1 C1          0.5920    1.1600   -6.6190 c1        1 3TO     -0.228000
      2 N1          1.9400   -0.7820   -6.8810 n1        1 3TO     -0.199000
      3 O1         -1.6450    0.8220    6.4210 os        1 3TO     -0.110000
      4 C2          1.4600    0.3380   -7.3920 c1        1 3TO     -0.032000
      5 N2          2.3490   -2.4820   -5.6230 n3        1 3TO     -0.323000
      6 C3          1.6130   -1.1470   -5.6380 c1        1 3TO      0.110000
      7 N3          0.3220    0.5790    3.6510 n3        1 3TO     -0.256000
      8 C4          0.7550   -0.3400   -4.8690 c1        1 3TO     -0.172000
      9 C5          0.2650    0.8000   -5.3830 c2        1 3TO     -0.060000
     10 C6          0.3370   -0.7920   -3.4310 c2        1 3TO     -0.114000
     11 C7          0.9230    0.2190   -2.3700 c3        1 3TO     -0.120000
     12 C8          0.2010    0.0580   -1.0950 c2        1 3TO     -0.078000
     13 C9          0.9170   -0.0010    0.1160 c2        1 3TO     -0.127000
     14 C10         0.2380    0.0070    1.3250 c1        1 3TO     -0.075000
     15 C11        -1.1830    0.0740    1.3460 c1        1 3TO     -0.120000
     16 C12        -1.9090    0.1340    0.1320 c1        1 3TO     -0.120000
     17 C13        -1.2380    0.1260   -1.0730 c1        1 3TO     -0.124000
     18 C14         0.9930   -0.1600    2.6010 c3        1 3TO     -0.030000
     19 C15        -1.3780    0.0130    5.3620 c1        1 3TO     -0.070000
     20 C16         0.0410   -0.3110    4.7860 c2        1 3TO     -0.003000
     21 C17        -2.5430   -0.5940    4.9960 c1        1 3TO     -0.187000
     22 C18        -3.5020   -0.1650    5.8120 c1        1 3TO     -0.187000
     23 C19        -2.9420    0.7180    6.7020 c1        1 3TO     -0.070000
     24 C20         1.1520    1.6480    4.0850 c3        1 3TO     -0.127000
     25 H1          0.2350    1.9950   -7.0010 ha        1 3TO      0.143000
     26 H2          1.7080    0.6090   -8.3300 ha        1 3TO      0.157000
     27 HN2         2.3370   -2.9630   -4.9280 hn        1 3TO      0.199000
     28 HN2A        2.6910   -2.8020   -6.3670 hn        1 3TO      0.199000
     29 H5         -0.3500    1.3780   -4.8320 ha        1 3TO      0.135000
     30 H6          0.7000   -1.7290   -3.2490 ha        1 3TO      0.095500
     31 H6A        -0.6290   -0.8040   -3.3650 ha        1 3TO      0.095500
     32 H7          1.8870    0.0350   -2.2290 hc        1 3TO      0.086500
     33 H7A         0.8110    1.1180   -2.6890 hc        1 3TO      0.086500
     34 H9          1.8740   -0.0460    0.1050 ha        1 3TO      0.127000
     35 H11        -1.6600    0.0810    2.2050 ha        1 3TO      0.140500
     36 H12        -2.9280    0.1800    0.1490 ha        1 3TO      0.140500
     37 H13        -1.7470    0.1690   -1.9250 ha        1 3TO      0.132000
     38 H14         1.9010    0.1860    2.4880 h1        1 3TO      0.078000
     39 H14A        1.0330   -1.2000    2.8600 h1        1 3TO      0.078000
     40 H16         0.0610   -1.2060    4.4980 h4        1 3TO      0.091000
     41 H16A        0.8130   -0.1580    5.5800 h4        1 3TO      0.091000
     42 H17        -2.6650   -1.2930    4.1870 DU        1 3TO      0.171000
     43 H18        -4.4120   -0.4240    5.7850 DU        1 3TO      0.171000
     44 H19        -3.4470    1.2200    7.4690 DU        1 3TO      0.171000
     45 H20         0.6020    2.2760    4.7710 h1        1 3TO      0.078333
     46 H20A        1.4400    2.1930    3.2920 h1        1 3TO      0.078333
     47 H20B        1.9860    1.2620    4.5640 h1        1 3TO      0.078333
@<TRIPOS>BOND
     1    1    9 1   
     2    1   25 1   
     3    2    4 1   
     4    3   19 1   
     5    3   23 1   
     6    4   26 1   
     7    5    6 1   
     8    5   27 1   
     9    5   28 1   
    10    6    8 1   
    11    7   18 1   
    12    7   20 1   
    13    7   24 1   
    14    8    9 1   
    15    9   29 1   
    16   10   11 1   
    17   10   30 1   
    18   10   31 1   
    19   11   12 1   
    20   11   32 1   
    21   11   33 1   
    22   12   13 1   
    23   12   17 1   
    24   13   14 1   
    25   13   34 1   
    26   14   18 1   
    27   15   16 1   
    28   15   35 1   
    29   16   36 1   
    30   17   37 1   
    31   18   38 1   
    32   18   39 1   
    33   19   21 1   
    34   20   40 1   
    35   20   41 1   
    36   21   22 1   
    37   22   23 1   
    38   24   45 1   
    39   24   46 1   
    40   24   47 1   
@<TRIPOS>SUBSTRUCTURE
     1 3TO         1 TEMP              0 ****  ****    0 ROOT
