@<TRIPOS>MOLECULE
3TP
   48    37     1     0     0
SMALL
bcc


@<TRIPOS>ATOM
      1 C2         -0.0680    1.3690   -2.1770 c3        1 3TP     -0.036000
      2 C3         -0.4660    2.8020   -2.5750 c2        1 3TP      0.309000
      3 O5         -0.6570    3.6640   -1.6970 o         1 3TP     -0.376000
      4 C10        -1.0470    4.3550   -4.4350 c1        1 3TP     -0.032500
      5 C11        -1.1150    4.2730   -5.8370 c1        1 3TP     -0.169500
      6 C12        -0.7600    2.9720   -6.1990 c1        1 3TP     -0.169500
      7 C13        -0.4780    2.2750   -5.0070 c1        1 3TP     -0.032500
      8 C20         0.0900   -0.0300   -0.1410 c1        1 3TP      0.022000
      9 C22        -0.2190   -1.6480    1.2860 c2        1 3TP     -0.061000
     10 C25        -0.2460   -2.4150    2.5150 c1        1 3TP      0.042000
     11 C26        -1.0620   -2.0040    3.5710 c1        1 3TP     -0.072500
     12 C27        -0.9920   -2.6530    4.8010 c1        1 3TP     -0.072500
     13 C29         0.7170   -4.1400    3.9380 c1        1 3TP     -0.029000
     14 C30         0.6470   -3.4850    2.6960 c1        1 3TP     -0.124000
     15 C1          0.3760    1.3440   -0.7280 c2        1 3TP     -0.069000
     16 N4         -0.6630    3.1390   -3.9890 n         1 3TP     -0.311000
     17 N6          0.9890    0.9290   -2.9950 n3        1 3TP     -0.336000
     18 N21         0.2590   -0.3940    1.1430 n2        1 3TP     -0.146000
     19 N23        -0.6800   -2.0550    0.0920 n2        1 3TP     -0.017000
     20 O24        -0.4890   -1.0550   -0.7910 os        1 3TP     -0.094000
     21 C28        -0.0950   -3.7300    4.9830 c1        1 3TP     -0.813000
     22 S34        -0.1040   -4.6120    6.4710 s4        1 3TP      2.076800
     23 O35        -1.4270   -4.7670    6.9670 o         1 3TP     -0.542400
     24 O36         0.2940   -6.0230    6.2630 o         1 3TP     -0.542400
     25 C37         0.9770   -3.7890    7.7020 c2        1 3TP     -0.938000
     26 C44         1.8690    1.6330   -0.6530 c3        1 3TP     -0.225000
     27 H2         -0.8460    0.7670   -2.2930 h1        1 3TP      0.118000
     28 H10        -1.8340    4.8210   -4.0560 DU        1 3TP      0.094625
     29 H11        -0.6360    4.9750   -6.2690 DU        1 3TP      0.094625
     30 H12        -1.3490    2.4940   -6.7900 DU        1 3TP      0.094625
     31 H13         0.3930    1.7770   -4.8880 DU        1 3TP      0.094625
     32 H26        -1.6960   -1.2470    3.4440 ha        1 3TP      0.162500
     33 H27        -1.5960   -2.3490    5.5800 ha        1 3TP      0.162500
     34 H29         1.3660   -4.9190    4.0700 ha        1 3TP      0.160000
     35 H30         1.1990   -3.7660    1.9810 ha        1 3TP      0.160000
     36 H1         -0.1200    2.0320   -0.2190 ha        1 3TP      0.148000
     37 HN61        1.7670    1.3200   -2.7230 hn        1 3TP      0.164500
     38 HN62        1.0660    0.0080   -2.9280 hn        1 3TP      0.164500
     39 H371        0.8970   -4.2460    8.5650 ha        1 3TP      0.154667
     40 H372        1.8770   -3.8290    7.4070 ha        1 3TP      0.154667
     41 H373        0.7010   -2.8320    7.8040 ha        1 3TP      0.154667
     42 H441        2.1870    1.5550    0.3260 hc        1 3TP      0.099667
     43 H442        2.3390    1.0050   -1.1890 hc        1 3TP      0.099667
     44 H443        2.0420    2.5280   -0.9780 hc        1 3TP      0.099667
     45 H10A       -0.3090    4.9840   -4.1510 DU        1 3TP      0.094625
     46 H11A       -2.0210    4.4500   -6.1500 DU        1 3TP      0.094625
     47 H12A        0.0750    3.0300   -6.7750 DU        1 3TP      0.094625
     48 H13A       -1.1540    1.4870   -4.9740 DU        1 3TP      0.094625
@<TRIPOS>BOND
     1    1    2 1   
     2    1   15 1   
     3    1   17 1   
     4    1   27 1   
     5    2    3 1   
     6    2   16 1   
     7    4    5 1   
     8    4   16 1   
     9    5    6 1   
    10    6    7 1   
    11    7   16 1   
    12    8   18 1   
    13    8   20 1   
    14    9   10 1   
    15    9   18 1   
    16    9   19 1   
    17   10   14 1   
    18   11   12 1   
    19   11   32 1   
    20   12   33 1   
    21   13   21 1   
    22   13   34 1   
    23   14   35 1   
    24   15   26 1   
    25   15   36 1   
    26   17   37 1   
    27   17   38 1   
    28   19   20 1   
    29   21   22 1   
    30   22   23 1   
    31   22   24 1   
    32   25   39 1   
    33   25   40 1   
    34   25   41 1   
    35   26   42 1   
    36   26   43 1   
    37   26   44 1   
@<TRIPOS>SUBSTRUCTURE
     1 3TP         1 TEMP              0 ****  ****    0 ROOT
