@<TRIPOS>MOLECULE
3TP
   49    51     1     0     0
SMALL
bcc


@<TRIPOS>ATOM
      1 C2          0.8320   -1.1740   -0.1500 c3        1 3TP      0.046500
      2 C3          0.5500    0.1140   -0.9790 c         1 3TP      0.639100
      3 O5          1.4970    0.9150   -1.1430 o         1 3TP     -0.608100
      4 C10        -1.0290    1.5190   -2.2330 c3        1 3TP      0.084000
      5 C11        -2.4900    1.3780   -2.6790 c3        1 3TP     -0.089900
      6 C12        -2.9940    0.0440   -2.1350 c3        1 3TP     -0.089900
      7 C13        -1.8160   -0.6050   -1.3880 c3        1 3TP      0.084000
      8 C20         0.4630   -2.2010    2.0750 cc        1 3TP      0.455700
      9 C22         0.7730   -4.1430    3.0060 cd        1 3TP      0.611500
     10 C25         1.3300   -5.4690    3.2630 ca        1 3TP     -0.100500
     11 C26         1.4460   -5.9300    4.5810 ca        1 3TP     -0.114500
     12 C27         1.9950   -7.1880    4.8230 ca        1 3TP     -0.025500
     13 C29         2.2970   -7.5290    2.4580 ca        1 3TP     -0.025500
     14 C30         1.7550   -6.2740    2.1980 ca        1 3TP     -0.114500
     15 C1          0.4260   -0.9250    1.3160 c3        1 3TP     -0.098000
     16 N4         -0.6950    0.3150   -1.4720 n         1 3TP     -0.432800
     17 N6          2.2850   -1.5200   -0.2850 n4        1 3TP     -0.831600
     18 N21         1.1970   -3.3030    1.9320 nd        1 3TP     -0.736000
     19 N23        -0.1930   -3.5150    3.7350 nc        1 3TP     -0.316300
     20 O24        -0.3990   -2.3390    3.1910 os        1 3TP     -0.097100
     21 C28         2.4250   -8.0010    3.7700 ca        1 3TP     -0.333500
     22 S34         3.1500   -9.5080    4.0720 sy        1 3TP      1.392300
     23 O35         3.9060   -9.8690    2.9510 o         1 3TP     -0.644300
     24 O36         3.7790   -9.4640    5.3190 o         1 3TP     -0.644300
     25 C37         1.7710  -10.4700    4.1630 c3        1 3TP     -0.371300
     26 C44         1.2870    0.1210    2.0010 c3        1 3TP     -0.127100
     27 H2          0.2440   -2.0500   -0.5590 hx        1 3TP      0.127700
     28 H12        -3.8530    0.1960   -1.4360 hc        1 3TP      0.075450
     29 H13        -2.0830   -0.7910   -0.3110 h1        1 3TP      0.062200
     30 H26         1.1130   -5.3070    5.4270 ha        1 3TP      0.151000
     31 H27         2.1120   -7.5410    5.8640 ha        1 3TP      0.170000
     32 H29         2.6510   -8.1590    1.6210 ha        1 3TP      0.170000
     33 H30         1.6620   -5.9250    1.1590 ha        1 3TP      0.151000
     34 H1         -0.6460   -0.5590    1.3020 hc        1 3TP      0.132700
     35 HN61        2.8420   -0.6830   -0.0480 hn        1 3TP      0.476467
     36 HN62        2.5370   -2.2970    0.3370 hn        1 3TP      0.476467
     37 H371        2.0350  -11.5300    4.4240 h1        1 3TP      0.123367
     38 H372        1.2020  -10.5270    3.2020 h1        1 3TP      0.123367
     39 H373        1.0440  -10.1390    4.9440 h1        1 3TP      0.123367
     40 H441        2.3020   -0.2750    2.2470 hc        1 3TP      0.078367
     41 H442        1.3920    1.0230    1.3460 hc        1 3TP      0.078367
     42 H443        0.8020    0.4340    2.9600 hc        1 3TP      0.078367
     43 H10A       -0.8810    2.4210   -1.5770 h1        1 3TP      0.062200
     44 H11A       -2.5560    1.4040   -3.7960 hc        1 3TP      0.075450
     45 H12A       -3.3370   -0.6240   -2.9630 hc        1 3TP      0.075450
     46 H13A       -1.5440   -1.5900   -1.8610 h1        1 3TP      0.062200
     47 H10        -0.3320    1.6090   -3.1110 h1        1 3TP      0.062200
     48 H63         2.4850   -1.7740   -1.2570 hn        1 3TP      0.476467
     49 H11        -3.0990    2.2270   -2.2810 hc        1 3TP      0.075450
@<TRIPOS>BOND
     1    1    2 1   
     2    1   15 1   
     3    1   17 1   
     4    1   27 1   
     5    2    3 2   
     6    2   16 1   
     7    4    5 1   
     8    4   16 1   
     9    4   43 1   
    10    4   47 1   
    11    5    6 1   
    12    5   44 1   
    13    5   49 1   
    14    6    7 1   
    15    6   28 1   
    16    6   45 1   
    17    7   16 1   
    18    7   29 1   
    19    7   46 1   
    20    8   15 1   
    21    8   18 2   
    22    8   20 1   
    23    9   10 1   
    24    9   18 1   
    25    9   19 2   
    26   10   11 ar  
    27   10   14 ar  
    28   11   12 ar  
    29   11   30 1   
    30   12   21 ar  
    31   12   31 1   
    32   13   14 ar  
    33   13   21 ar  
    34   13   32 1   
    35   14   33 1   
    36   15   26 1   
    37   15   34 1   
    38   17   35 1   
    39   17   36 1   
    40   17   48 1   
    41   19   20 1   
    42   21   22 1   
    43   22   23 2   
    44   22   24 2   
    45   22   25 1   
    46   25   37 1   
    47   25   38 1   
    48   25   39 1   
    49   26   40 1   
    50   26   41 1   
    51   26   42 1   
@<TRIPOS>SUBSTRUCTURE
     1 3TP         1 TEMP              0 ****  ****    0 ROOT
