@<TRIPOS>MOLECULE
3TP
   48    50     1     0     0
SMALL
bcc


@<TRIPOS>ATOM
      1 C2          0.1100   -2.6370    4.2080 c3        1 3TP      0.120500
      2 C3          0.8510   -3.9020    3.7010 c         1 3TP      0.605100
      3 O5          0.1830   -4.9100    3.3820 o         1 3TP     -0.615100
      4 C10         2.9370   -5.0590    3.0720 c3        1 3TP      0.089500
      5 C11         4.3790   -4.6120    2.7900 c3        1 3TP     -0.089900
      6 C12         4.4760   -3.1540    3.2270 c3        1 3TP     -0.089900
      7 C13         3.0760   -2.7470    3.7190 c3        1 3TP      0.089500
      8 C20         0.3520   -3.4070    6.5620 cc        1 3TP      0.511700
      9 C22         1.8800   -3.7250    8.0770 cd        1 3TP      0.564500
     10 C25         3.0850   -3.5120    8.8760 ca        1 3TP     -0.059500
     11 C26         3.5990   -4.5540    9.6620 ca        1 3TP     -0.122000
     12 C27         4.7470   -4.3460   10.4210 ca        1 3TP     -0.028500
     13 C29         4.8770   -2.0770    9.6320 ca        1 3TP     -0.028500
     14 C30         3.7290   -2.2660    8.8680 ca        1 3TP     -0.122000
     15 C1         -0.6310   -3.0350    5.5090 c3        1 3TP     -0.085000
     16 N4          2.2190   -3.9100    3.6030 n         1 3TP     -0.463800
     17 N6         -0.7970   -2.1190    3.2080 n3        1 3TP     -0.896800
     18 N21         1.4780   -2.8620    7.0110 nd        1 3TP     -0.685000
     19 N23         0.9860   -4.7430    8.2270 nc        1 3TP     -0.346300
     20 O24         0.0520   -4.5780    7.3260 os        1 3TP     -0.125100
     21 C28         5.4080   -3.1110   10.4110 ca        1 3TP     -0.372500
     22 S34         6.7820   -2.8640   11.3440 sy        1 3TP      1.396300
     23 O35         6.9470   -1.4960   11.6010 o         1 3TP     -0.654800
     24 O36         6.7840   -3.7390   12.4390 o         1 3TP     -0.654800
     25 C37         7.9670   -3.3620   10.2420 c3        1 3TP     -0.358300
     26 C44        -1.5060   -1.9080    6.0250 c3        1 3TP     -0.086100
     27 H2          0.8400   -1.8110    4.4560 h1        1 3TP      0.088700
     28 H11         4.6120   -4.7200    1.7030 hc        1 3TP      0.054200
     29 H12         5.2220   -3.0320    4.0510 hc        1 3TP      0.054200
     30 H13         3.1160   -2.4080    4.7900 h1        1 3TP      0.053700
     31 H26         3.1000   -5.5350    9.6890 ha        1 3TP      0.161000
     32 H27         5.1370   -5.1620   11.0550 ha        1 3TP      0.159000
     33 H29         5.3710   -1.0880    9.6390 ha        1 3TP      0.159000
     34 H30         3.3300   -1.4330    8.2680 ha        1 3TP      0.161000
     35 H1         -1.2670   -3.9450    5.2970 hc        1 3TP      0.106700
     36 HN61       -1.5020   -2.7950    2.9820 hn        1 3TP      0.365800
     37 HN62       -0.2940   -1.8730    2.3780 hn        1 3TP      0.365800
     38 H371        7.9950   -2.7390    9.3160 h1        1 3TP      0.114367
     39 H372        8.9890   -3.2950   10.6950 h1        1 3TP      0.114367
     40 H373        7.8430   -4.4220    9.9120 h1        1 3TP      0.114367
     41 H441       -0.9230   -0.9590    6.1000 hc        1 3TP      0.055033
     42 H442       -1.9090   -2.1670    7.0340 hc        1 3TP      0.055033
     43 H443       -2.3660   -1.7440    5.3320 hc        1 3TP      0.055033
     44 H10A        2.9090   -5.8900    3.8290 h1        1 3TP      0.053700
     45 H11A        5.0990   -5.2500    3.3590 hc        1 3TP      0.054200
     46 H12A        4.7920   -2.5010    2.3780 hc        1 3TP      0.054200
     47 H13A        2.6740   -1.8990    3.0980 h1        1 3TP      0.053700
     48 H10         2.4300   -5.4300    2.1390 h1        1 3TP      0.053700
@<TRIPOS>BOND
     1    1    2 1   
     2    1   15 1   
     3    1   17 1   
     4    1   27 1   
     5    2    3 2   
     6    2   16 1   
     7    4    5 1   
     8    4   16 1   
     9    4   44 1   
    10    4   48 1   
    11    5    6 1   
    12    5   28 1   
    13    5   45 1   
    14    6    7 1   
    15    6   29 1   
    16    6   46 1   
    17    7   16 1   
    18    7   30 1   
    19    7   47 1   
    20    8   15 1   
    21    8   18 2   
    22    8   20 1   
    23    9   10 1   
    24    9   18 1   
    25    9   19 2   
    26   10   11 ar  
    27   10   14 ar  
    28   11   12 ar  
    29   11   31 1   
    30   12   21 ar  
    31   12   32 1   
    32   13   14 ar  
    33   13   21 ar  
    34   13   33 1   
    35   14   34 1   
    36   15   26 1   
    37   15   35 1   
    38   17   36 1   
    39   17   37 1   
    40   19   20 1   
    41   21   22 1   
    42   22   23 2   
    43   22   24 2   
    44   22   25 1   
    45   25   38 1   
    46   25   39 1   
    47   25   40 1   
    48   26   41 1   
    49   26   42 1   
    50   26   43 1   
@<TRIPOS>SUBSTRUCTURE
     1 3TP         1 TEMP              0 ****  ****    0 ROOT
