@<TRIPOS>MOLECULE
3TP
   49    51     1     0     0
SMALL
bcc


@<TRIPOS>ATOM
      1 C2          0.8040   -1.1810   -0.1640 c3        1 3TP      0.046500
      2 C3          0.5040    0.1010   -0.9970 c         1 3TP      0.639100
      3 O5          1.4460    0.9030   -1.1820 o         1 3TP     -0.608100
      4 C10        -1.0990    1.4930   -2.2340 c3        1 3TP      0.084000
      5 C11        -2.5670    1.3450   -2.6550 c3        1 3TP     -0.089900
      6 C12        -3.0580    0.0130   -2.0930 c3        1 3TP     -0.089900
      7 C13        -1.8660   -0.6280   -1.3620 c3        1 3TP      0.084000
      8 C20         0.4750   -2.1940    2.0730 cc        1 3TP      0.455700
      9 C22         0.8060   -4.1290    3.0120 cd        1 3TP      0.611500
     10 C25         1.3710   -5.4520    3.2690 ca        1 3TP     -0.100500
     11 C26         1.5090   -5.9030    4.5880 ca        1 3TP     -0.114500
     12 C27         2.0660   -7.1590    4.8290 ca        1 3TP     -0.025500
     13 C29         2.3330   -7.5140    2.4620 ca        1 3TP     -0.025500
     14 C30         1.7830   -6.2620    2.2020 ca        1 3TP     -0.114500
     15 C1          0.4220   -0.9230    1.3070 c3        1 3TP     -0.098000
     16 N4         -0.7490    0.2950   -1.4710 n         1 3TP     -0.432800
     17 N6          2.2550   -1.5230   -0.3210 nz        1 3TP     -0.831600
     18 N21         1.2100   -3.2940    1.9260 nd        1 3TP     -0.736000
     19 N23        -0.1500   -3.4990    3.7520 nc        1 3TP     -0.316300
     20 O24        -0.3690   -2.3270    3.2040 os        1 3TP     -0.097100
     21 C28         2.4830   -7.9760    3.7750 ca        1 3TP     -0.333500
     22 S34         3.2170   -9.4790    4.0750 sy        1 3TP      1.392300
     23 O35         3.9580   -9.8450    2.9460 o         1 3TP     -0.644300
     24 O36         3.8650   -9.4250    5.3120 o         1 3TP     -0.644300
     25 C37         1.8430  -10.4460    4.1930 c3        1 3TP     -0.371300
     26 C44         1.2910    0.1300    1.9700 c3        1 3TP     -0.127100
     27 H2          0.2120   -2.0620   -0.5580 hx        1 3TP      0.127700
     28 H12        -3.4130   -0.6600   -2.9120 hc        1 3TP      0.075450
     29 H13        -2.1140   -0.8070   -0.2800 h1        1 3TP      0.062200
     30 H26         1.1870   -5.2760    5.4340 ha        1 3TP      0.151000
     31 H27         2.2000   -7.5040    5.8710 ha        1 3TP      0.170000
     32 H29         2.6760   -8.1480    1.6230 ha        1 3TP      0.170000
     33 H30         1.6720   -5.9200    1.1630 ha        1 3TP      0.151000
     34 H1         -0.6520   -0.5610    1.3080 hc        1 3TP      0.132700
     35 HN61        2.5200   -2.2960    0.3010 hn        1 3TP      0.476467
     36 HN62        2.4400   -1.7830   -1.2950 hn        1 3TP      0.476467
     37 H371        2.1140  -11.5020    4.4570 h1        1 3TP      0.123367
     38 H372        1.1260  -10.1110    4.9830 h1        1 3TP      0.123367
     39 H373        1.2600  -10.5110    3.2410 h1        1 3TP      0.123367
     40 H441        0.8210    0.4470    2.9350 hc        1 3TP      0.078367
     41 H442        2.3110   -0.2620    2.2010 hc        1 3TP      0.078367
     42 H443        1.3820    1.0270    1.3070 hc        1 3TP      0.078367
     43 H10A       -0.4170    1.5790   -3.1240 h1        1 3TP      0.062200
     44 H11A       -2.6510    1.3630   -3.7700 hc        1 3TP      0.075450
     45 H12A       -3.9060    0.1670   -1.3810 hc        1 3TP      0.075450
     46 H13A       -1.5990   -1.6150   -1.8330 h1        1 3TP      0.062200
     47 H10        -0.9430    2.3990   -1.5860 h1        1 3TP      0.062200
     48 H63         2.8140   -0.6840   -0.1000 hn        1 3TP      0.476467
     49 H11        -3.1710    2.1950   -2.2520 hc        1 3TP      0.075450
@<TRIPOS>BOND
     1    1    2 1   
     2    1   15 1   
     3    1   17 1   
     4    1   27 1   
     5    2    3 2   
     6    2   16 1   
     7    4    5 1   
     8    4   16 1   
     9    4   43 1   
    10    4   47 1   
    11    5    6 1   
    12    5   44 1   
    13    5   49 1   
    14    6    7 1   
    15    6   28 1   
    16    6   45 1   
    17    7   16 1   
    18    7   29 1   
    19    7   46 1   
    20    8   15 1   
    21    8   18 2   
    22    8   20 1   
    23    9   10 1   
    24    9   18 1   
    25    9   19 2   
    26   10   11 ar  
    27   10   14 ar  
    28   11   12 ar  
    29   11   30 1   
    30   12   21 ar  
    31   12   31 1   
    32   13   14 ar  
    33   13   21 ar  
    34   13   32 1   
    35   14   33 1   
    36   15   26 1   
    37   15   34 1   
    38   17   35 1   
    39   17   36 1   
    40   17   48 1   
    41   19   20 1   
    42   21   22 1   
    43   22   23 2   
    44   22   24 2   
    45   22   25 1   
    46   25   37 1   
    47   25   38 1   
    48   25   39 1   
    49   26   40 1   
    50   26   41 1   
    51   26   42 1   
@<TRIPOS>SUBSTRUCTURE
     1 3TP         1 TEMP              0 ****  ****    0 ROOT
