@<TRIPOS>MOLECULE
3TQ
   61    64     1     0     0
SMALL
bcc


@<TRIPOS>ATOM
      1 C4         -0.5740    0.4090    0.6010 c3        1 3TQ      0.173800
      2 C6         -1.7450   -1.4330    1.6100 c3        1 3TQ      0.176300
      3 C7         -1.6800   -2.8630    2.1450 c3        1 3TQ     -0.061900
      4 C8         -1.1590   -3.8160    1.0850 c3        1 3TQ     -0.058400
      5 C10         0.0920   -1.8730    0.0910 c3        1 3TQ      0.176300
      6 C13        -1.1290   -6.4530    0.4490 ca        1 3TQ     -0.067500
      7 C15        -0.1330   -8.2940   -0.7750 ca        1 3TQ     -0.117000
      8 C17        -2.2550   -7.3700   -1.4940 ca        1 3TQ     -0.117000
      9 C21        -0.3110   -9.9330   -4.9950 c         1 3TQ      0.592300
     10 C24         1.1210  -10.5840   -7.0220 cc        1 3TQ      0.049800
     11 C26         3.2170  -10.3430   -8.6010 ca        1 3TQ     -0.153300
     12 C1          0.4850    2.4950   -0.2110 c3        1 3TQ     -0.090600
     13 C2          0.7640    1.0830    0.2650 c3        1 3TQ     -0.064700
     14 C3          1.6960    1.1010    1.4560 c3        1 3TQ     -0.090600
     15 N5         -0.4730   -0.9650    1.0760 n3        1 3TQ     -0.726600
     16 C9          0.1760   -3.3210    0.5720 c3        1 3TQ     -0.061900
     17 S11        -1.1200   -5.4150    1.8410 sx        1 3TQ      0.321400
     18 O12         0.2310   -5.5830    2.4280 o         1 3TQ     -0.480200
     19 C14        -0.0920   -7.3750    0.2700 ca        1 3TQ     -0.057000
     20 C16        -1.2160   -8.2900   -1.6630 ca        1 3TQ     -0.162300
     21 C18        -2.2080   -6.4610   -0.4360 ca        1 3TQ     -0.057000
     22 C19        -1.2760   -9.2960   -2.7610 c3        1 3TQ      0.174100
     23 N20        -0.3190   -8.9370   -3.8600 ny        1 3TQ     -0.666800
     24 O22        -1.2470  -10.7200   -5.0620 o         1 3TQ     -0.419100
     25 C23         0.8140   -9.8420   -5.8930 cd        1 3TQ     -0.143100
     26 C25         2.3720  -10.0600   -7.5270 ca        1 3TQ     -0.123800
     27 C27         4.3740   -9.5520   -8.7160 ca        1 3TQ      0.390200
     28 N28         4.7190   -8.5530   -7.8680 nb        1 3TQ     -0.597000
     29 C29         3.9230   -8.2640   -6.8290 ca        1 3TQ      0.420200
     30 C30         2.7430   -9.0030   -6.6350 ca        1 3TQ     -0.021200
     31 O31         1.7970   -8.8520   -5.6230 os        1 3TQ     -0.214200
     32 H1         -1.2350    0.4760   -0.3150 h1        1 3TQ      0.033200
     33 H2         -1.0650    1.0100    1.4190 h1        1 3TQ      0.033200
     34 H3         -2.5670   -1.3810    0.8360 h1        1 3TQ      0.034450
     35 H4         -2.0300   -0.7500    2.4600 h1        1 3TQ      0.034450
     36 H5         -2.7120   -3.1620    2.4660 hc        1 3TQ      0.059450
     37 H6         -1.0060   -2.8950    3.0440 hc        1 3TQ      0.059450
     38 H7         -1.8870   -3.8380    0.2310 h1        1 3TQ      0.077700
     39 H8          1.1380   -1.5190   -0.1320 h1        1 3TQ      0.034450
     40 H9         -0.4930   -1.8520   -0.8770 h1        1 3TQ      0.034450
     41 H10         0.6780   -9.0310   -0.8860 ha        1 3TQ      0.141000
     42 H11        -3.1180   -7.3700   -2.1770 ha        1 3TQ      0.141000
     43 H14        -0.1910    2.4860   -1.1000 hc        1 3TQ      0.038367
     44 H15         1.4400    2.9980   -0.4960 hc        1 3TQ      0.038367
     45 H16        -0.0010    3.0950    0.5970 hc        1 3TQ      0.038367
     46 H17         1.2610    0.5230   -0.5760 hc        1 3TQ      0.041700
     47 H18         1.2040    1.5870    2.3320 hc        1 3TQ      0.038367
     48 H19         1.9860    0.0630    1.7460 hc        1 3TQ      0.038367
     49 H20         2.6240    1.6730    1.2090 hc        1 3TQ      0.038367
     50 H22         0.5160   -3.9550   -0.2870 hc        1 3TQ      0.059450
     51 H23         0.9420   -3.4090    1.3900 hc        1 3TQ      0.059450
     52 H25         0.7640   -7.3650    0.9730 ha        1 3TQ      0.171500
     53 H26        -3.0400   -5.7470   -0.3060 ha        1 3TQ      0.171500
     54 H27        -2.3100   -9.3590   -3.2110 hx        1 3TQ      0.117200
     55 H28        -0.9910  -10.3210   -2.3850 hx        1 3TQ      0.117200
     56 H29        -0.5640   -8.0150   -4.2420 hn        1 3TQ      0.466800
     57 H30         5.0890   -9.7230   -9.5460 h4        1 3TQ      0.056100
     58 H31         4.2310   -7.4450   -6.1560 h4        1 3TQ      0.058100
     59 H12         0.5400  -11.4040   -7.4520 ha        1 3TQ      0.204000
     60 H202        0.6330   -8.8640   -3.4740 hn        1 3TQ      0.466800
     61 H13         2.9960  -11.1400   -9.3250 ha        1 3TQ      0.174000
@<TRIPOS>BOND
     1    1   13 1   
     2    1   15 1   
     3    1   32 1   
     4    1   33 1   
     5    2    3 1   
     6    2   15 1   
     7    2   34 1   
     8    2   35 1   
     9    3    4 1   
    10    3   36 1   
    11    3   37 1   
    12    4   16 1   
    13    4   17 1   
    14    4   38 1   
    15    5   15 1   
    16    5   16 1   
    17    5   39 1   
    18    5   40 1   
    19    6   17 1   
    20    6   19 ar  
    21    6   21 ar  
    22    7   19 ar  
    23    7   20 ar  
    24    7   41 1   
    25    8   20 ar  
    26    8   21 ar  
    27    8   42 1   
    28    9   23 1   
    29    9   24 2   
    30    9   25 1   
    31   10   25 2   
    32   10   26 1   
    33   10   59 1   
    34   11   26 ar  
    35   11   27 ar  
    36   11   61 1   
    37   12   13 1   
    38   12   43 1   
    39   12   44 1   
    40   12   45 1   
    41   13   14 1   
    42   13   46 1   
    43   14   47 1   
    44   14   48 1   
    45   14   49 1   
    46   16   50 1   
    47   16   51 1   
    48   17   18 2   
    49   19   52 1   
    50   20   22 1   
    51   21   53 1   
    52   22   23 1   
    53   22   54 1   
    54   22   55 1   
    55   23   56 1   
    56   23   60 1   
    57   25   31 1   
    58   26   30 ar  
    59   27   28 ar  
    60   27   57 1   
    61   28   29 ar  
    62   29   30 ar  
    63   29   58 1   
    64   30   31 1   
@<TRIPOS>SUBSTRUCTURE
     1 3TQ         1 TEMP              0 ****  ****    0 ROOT
