@<TRIPOS>MOLECULE
3TR
   11    11     1     0     0
SMALL
bcc


@<TRIPOS>ATOM
      1 N1          0.0230    0.1430    0.0060 na        1 3TR     -0.111400
      2 N2          1.3370    0.2120   -0.0800 nc        1 3TR     -0.421800
      3 C3          1.7620    0.0270    1.2300 cd        1 3TR      0.504900
      4 N4          0.6860   -0.1600    2.1400 nd        1 3TR     -0.624000
      5 C5         -0.3950   -0.0810    1.3380 cc        1 3TR      0.468400
      6 N3A         3.1520    0.0190    1.6570 n4        1 3TR     -0.769300
      7 HN1        -0.5440    0.2460   -0.8150 hn        1 3TR      0.375700
      8 H5         -1.4500   -0.1730    1.6440 h5        1 3TR      0.123100
      9 H3A1        3.3610   -0.8910    2.0920 hn        1 3TR      0.485133
     10 H3A2        3.2910    0.7690    2.3500 hn        1 3TR      0.485133
     11 H3A3        3.7730    0.1710    0.8510 hn        1 3TR      0.485133
@<TRIPOS>BOND
     1    1    2 1   
     2    1    5 1   
     3    1    7 1   
     4    2    3 2   
     5    3    4 1   
     6    3    6 1   
     7    4    5 2   
     8    5    8 1   
     9    6    9 1   
    10    6   10 1   
    11    6   11 1   
@<TRIPOS>SUBSTRUCTURE
     1 3TR         1 TEMP              0 ****  ****    0 ROOT
