@<TRIPOS>MOLECULE
3TR
   10    10     1     0     0
SMALL
bcc


@<TRIPOS>ATOM
      1 N1          0.0460    0.0180    0.0060 na        1 3TR     -0.167400
      2 N2          1.3810   -0.0260   -0.0660 nc        1 3TR     -0.570800
      3 C3          1.7950   -0.0610    1.2610 cd        1 3TR      0.707900
      4 N4          0.6790   -0.0260    2.1620 nd        1 3TR     -0.711000
      5 C5         -0.3860    0.0110    1.3370 cc        1 3TR      0.420400
      6 N3A         3.1220   -0.2230    1.6850 nv        1 3TR     -0.875500
      7 HN1        -0.4970    0.0130   -0.8230 hn        1 3TR      0.325700
      8 H5         -1.4380    0.0400    1.6370 h5        1 3TR      0.069100
      9 H3A1        3.7850    0.1630    1.0460 hn        1 3TR      0.399800
     10 H3A2        3.2670    0.0820    2.6250 hn        1 3TR      0.399800
@<TRIPOS>BOND
     1    1    2 1   
     2    1    5 1   
     3    1    7 1   
     4    2    3 2   
     5    3    4 1   
     6    3    6 1   
     7    4    5 2   
     8    5    8 1   
     9    6    9 1   
    10    6   10 1   
@<TRIPOS>SUBSTRUCTURE
     1 3TR         1 TEMP              0 ****  ****    0 ROOT
