@<TRIPOS>MOLECULE
3TR
   10     7     1     0     0
SMALL
bcc


@<TRIPOS>ATOM
      1 N1         -1.1670   -0.0020   -1.0880 n2        1 3TR     -0.168500
      2 N2          0.1770   -0.0020   -1.0880 n2        1 3TR     -0.168500
      3 C3          0.5910   -0.0020    0.1880 c1        1 3TR     -0.039500
      4 N4         -0.4950   -0.0020    0.9770 n2        1 3TR     -0.185000
      5 C5         -1.5810   -0.0020    0.1880 c1        1 3TR     -0.039500
      6 N3A         1.9400    0.0030    0.6260 n2        1 3TR     -0.273000
      7 HN1        -1.7030   -0.0020   -1.8250 DU        1 3TR      0.241000
      8 H5         -2.5100   -0.0020    0.4890 DU        1 3TR      0.241000
      9 H3A1        2.6180    0.0040    0.0160 hn        1 3TR      0.195000
     10 H3A2        2.1300    0.0040    1.5180 hn        1 3TR      0.195000
@<TRIPOS>BOND
     1    1    2 1   
     2    1    5 1   
     3    2    3 1   
     4    3    4 1   
     5    4    5 1   
     6    6    9 1   
     7    6   10 1   
@<TRIPOS>SUBSTRUCTURE
     1 3TR         1 TEMP              0 ****  ****    0 ROOT
