@<TRIPOS>MOLECULE
3TR
   10    10     1     0     0
SMALL
bcc


@<TRIPOS>ATOM
      1 N1          0.0450    0.0150    0.0070 na        1 3TR     -0.167400
      2 N2          1.3800   -0.0260   -0.0670 nc        1 3TR     -0.570800
      3 C3          1.7960   -0.0600    1.2600 cd        1 3TR      0.707900
      4 N4          0.6800   -0.0270    2.1620 nd        1 3TR     -0.711000
      5 C5         -0.3860    0.0080    1.3390 cc        1 3TR      0.420400
      6 N3A         3.1230   -0.2190    1.6830 nh        1 3TR     -0.875500
      7 HN1        -0.4990    0.0100   -0.8220 hn        1 3TR      0.325700
      8 H5         -1.4380    0.0350    1.6400 h5        1 3TR      0.069100
      9 H3A1        3.2680    0.0860    2.6230 hn        1 3TR      0.399800
     10 H3A2        3.7850    0.1680    1.0430 hn        1 3TR      0.399800
@<TRIPOS>BOND
     1    1    2 1   
     2    1    5 1   
     3    1    7 1   
     4    2    3 2   
     5    3    4 1   
     6    3    6 1   
     7    4    5 2   
     8    5    8 1   
     9    6    9 1   
    10    6   10 1   
@<TRIPOS>SUBSTRUCTURE
     1 3TR         1 TEMP              0 ****  ****    0 ROOT
