@<TRIPOS>MOLECULE
3TR
   10    10     1     0     0
SMALL
bcc


@<TRIPOS>ATOM
      1 N1         -1.3560    0.6350    0.0140 na        1 3TR     -0.167400
      2 N2         -0.1140    1.1290   -0.0320 nc        1 3TR     -0.570800
      3 C3          0.7020    0.0030   -0.0590 cd        1 3TR      0.707900
      4 N4         -0.0700   -1.2070   -0.0170 nd        1 3TR     -0.711000
      5 C5         -1.3420   -0.7640    0.0160 cc        1 3TR      0.420400
      6 N3A         2.0950    0.0220   -0.2190 nh        1 3TR     -0.875500
      7 HN1        -2.1350    1.2480    0.0040 hn        1 3TR      0.325700
      8 H5         -2.2440   -1.3830    0.0480 h5        1 3TR      0.069100
      9 H3A1        2.5190    0.8410    0.1610 hn        1 3TR      0.399800
     10 H3A2        2.5310   -0.8210    0.0910 hn        1 3TR      0.399800
@<TRIPOS>BOND
     1    1    2 1   
     2    1    5 1   
     3    1    7 1   
     4    2    3 2   
     5    3    4 1   
     6    3    6 1   
     7    4    5 2   
     8    5    8 1   
     9    6    9 1   
    10    6   10 1   
@<TRIPOS>SUBSTRUCTURE
     1 3TR         1 TEMP              0 ****  ****    0 ROOT
