@<TRIPOS>MOLECULE
3TT
   40    41     1     0     0
SMALL
bcc


@<TRIPOS>ATOM
      1 O3G         0.0000    0.0000    0.0000 o         1 3TT     -0.519500
      2 PG          1.6110    0.0000    0.0000 p5        1 3TT      0.618800
      3 O1G         2.1470    0.0000    1.5180 o         1 3TT     -0.519500
      4 O2G         2.1030   -1.2090   -0.6970 o         1 3TT     -0.519500
      5 N3B         2.1720    1.3740   -0.7930 ny        1 3TT     -0.209200
      6 PB          3.8550    1.4120   -0.8160 p5        1 3TT      0.784700
      7 O2B         4.4110    1.4250    0.6950 o         1 3TT     -0.519500
      8 O1B         4.3650    0.2150   -1.5200 o         1 3TT     -0.519500
      9 O3A         4.3500    2.7380   -1.5810 os        1 3TT     -0.523800
     10 PA          5.7970    3.3500   -1.9350 p5        1 3TT      0.960800
     11 O1A         6.3960    2.6020   -3.2280 o         1 3TT     -0.657000
     12 O2A         6.7100    3.1540   -0.7850 o         1 3TT     -0.657000
     13 O5'         5.6540    4.9240   -2.2440 os        1 3TT     -0.496200
     14 C5'         6.7750    5.7740   -2.4890 c3        1 3TT      0.316400
     15 C4'         6.2870    7.2010   -2.7460 c3        1 3TT      0.303200
     16 O4'         5.4920    7.6680   -1.6380 os        1 3TT     -0.393600
     17 S3'         5.1400    7.2390   -4.1780 ss        1 3TT     -0.438200
     18 C2'         3.7250    7.9680   -3.2560 c3        1 3TT      0.060700
     19 C1'         4.4790    8.5970   -2.0500 c3        1 3TT      0.224500
     20 N1          3.5440    8.8320   -0.9460 n         1 3TT      0.057000
     21 C2          2.4920    9.6520   -1.1240 c         1 3TT      0.728900
     22 O2          2.3290   10.1930   -2.2050 o         1 3TT     -0.755500
     23 N3          1.6260    9.8830   -0.1390 nc        1 3TT     -0.696100
     24 C4          1.7790    9.3080    1.0460 cd        1 3TT      0.005500
     25 N4          0.8780    9.5540    2.0560 nz        1 3TT      0.294400
     26 C5          2.8710    8.4420    1.2660 cd        1 3TT     -0.303600
     27 C6          3.7400    8.2140    0.2520 cc        1 3TT     -0.093400
     28 H3          1.8310    1.3720   -1.7340 hn        1 3TT      0.285800
     29 H6          7.3170    5.4170   -3.3560 h1        1 3TT     -0.003800
     30 H7          7.4300    5.7670   -1.6260 h1        1 3TT     -0.003800
     31 H8          7.1230    7.8690   -2.9160 h2        1 3TT      0.014700
     32 H9          3.0360    7.2000   -2.9270 h1        1 3TT      0.070200
     33 H10         3.2270    8.7290   -3.8440 h1        1 3TT      0.070200
     34 H11         4.9400    9.5300   -2.3520 h2        1 3TT      0.027700
     35 H12         1.3710    9.7990    2.8910 hn        1 3TT      0.148467
     36 H13         0.2760   10.3080    1.7890 hn        1 3TT      0.148467
     37 H14         2.9040    7.8280    2.1570 ha        1 3TT      0.112000
     38 H15         4.6620    7.6770    0.4410 h4        1 3TT      0.161000
     39 H3B2        1.8310    2.1880   -0.3210 hn        1 3TT      0.285800
     40 H43         0.3300    8.7320    2.2210 hn        1 3TT      0.148467
@<TRIPOS>BOND
     1    1    2 1   
     2    2    3 1   
     3    2    4 1   
     4    2    5 1   
     5    5    6 1   
     6    5   28 1   
     7    5   39 1   
     8    6    7 1   
     9    6    8 1   
    10    6    9 1   
    11    9   10 1   
    12   10   11 1   
    13   10   12 1   
    14   10   13 1   
    15   13   14 1   
    16   14   15 1   
    17   14   29 1   
    18   14   30 1   
    19   15   16 1   
    20   15   17 1   
    21   15   31 1   
    22   16   19 1   
    23   17   18 1   
    24   18   19 1   
    25   18   32 1   
    26   18   33 1   
    27   19   20 1   
    28   19   34 1   
    29   20   21 1   
    30   20   27 1   
    31   21   22 2   
    32   21   23 1   
    33   23   24 2   
    34   24   25 1   
    35   24   26 1   
    36   25   35 1   
    37   25   36 1   
    38   25   40 1   
    39   26   27 2   
    40   26   37 1   
    41   27   38 1   
@<TRIPOS>SUBSTRUCTURE
     1 3TT         1 TEMP              0 ****  ****    0 ROOT
