@<TRIPOS>MOLECULE
3TU
   55    51     1     0     0
SMALL
bcc


@<TRIPOS>ATOM
      1 C          -3.0840   -4.1750    3.7330 c1        1 3TU      0.323500
      2 N          -1.0970   -3.0160    3.0690 n         1 3TU     -0.258000
      3 O          -3.7200   -4.9940    3.0080 o         1 3TU     -0.605250
      4 N1         -1.2610    5.4090   -3.9240 n3        1 3TU     -0.310000
      5 C2         -1.0760    5.9170   -5.2700 c2        1 3TU      0.285000
      6 N3         -0.0400    5.3560   -6.1230 n1        1 3TU     -0.296000
      7 C4          0.8010    4.2990   -5.6350 c1        1 3TU     -0.098000
      8 C5          0.6210    3.7970   -4.3120 c1        1 3TU     -0.306000
      9 C6         -0.4330    4.3690   -3.4410 c1        1 3TU      0.385000
     10 O6         -0.5370    3.9940   -2.2820 o         1 3TU     -0.370000
     11 CA         -1.5750   -4.1820    3.7300 c2        1 3TU     -0.034000
     12 CB         -1.0620   -4.2010    5.1650 c3        1 3TU     -0.134000
     13 CD         -0.9620   -5.6470    7.1740 c1        1 3TU      0.323500
     14 CG         -0.9970   -5.6350    5.6590 c2        1 3TU     -0.209000
     15 NAA        -1.9420    6.9290   -5.7720 n3        1 3TU     -0.315000
     16 OAD        -1.7860   -1.3110    4.5740 o         1 3TU     -0.329000
     17 CAH         3.7530    0.7240   -4.1790 c1        1 3TU     -0.128500
     18 CAI         0.3140    1.2420    1.4250 c1        1 3TU     -0.214000
     19 CAJ         2.9810    0.8680   -3.0070 c1        1 3TU     -0.111000
     20 CAK        -0.3440    0.6490    2.5060 c1        1 3TU     -0.051000
     21 CAL         3.4980    1.5350   -5.2910 c1        1 3TU     -0.128500
     22 CAM         0.6350   -0.9310    0.4320 c1        1 3TU     -0.147000
     23 CAP         0.9060    1.5450   -1.8750 c3        1 3TU     -0.048000
     24 CAQ        -0.3780   -2.9860    1.8350 c3        1 3TU     -0.041000
     25 NAT         1.5640    1.1230   -0.6540 n3        1 3TU     -0.266000
     26 SAU         1.9710    3.5100   -6.2900 ss        1 3TU      0.446000
     27 CAX        -1.2250   -1.6650    3.5410 c2        1 3TU      0.342000
     28 CAZ         0.8010    0.4530    0.3910 c1        1 3TU      0.037000
     29 CBB        -0.0290   -1.5300    1.5220 c2        1 3TU     -0.044000
     30 CBC         1.9590    1.8220   -2.9550 c2        1 3TU     -0.045000
     31 CBD        -0.5120   -0.7490    2.5470 c2        1 3TU     -0.156000
     32 CBE         2.4870    2.4800   -5.2420 c1        1 3TU     -0.331000
     33 CBH         1.7050    2.6280   -4.0590 c2        1 3TU      0.061000
     34 OE1        -2.0350   -5.6290    7.8270 o         1 3TU     -0.605250
     35 OE2         0.1360   -5.7550    7.7740 o         1 3TU     -0.605250
     36 OXT        -3.7100   -3.2760    4.3680 o         1 3TU     -0.605250
     37 HN1        -1.9490    5.7250   -3.4050 hn        1 3TU      0.317000
     38 HA         -1.2530   -4.9780    3.2580 h4        1 3TU      0.081000
     39 HB         -0.1660   -3.8030    5.1970 hc        1 3TU      0.107500
     40 HBA        -1.6680   -3.6880    5.7350 hc        1 3TU      0.107500
     41 HG         -1.7830   -6.1210    5.3490 ha        1 3TU      0.057500
     42 HGA        -0.1920   -6.0620    5.3120 ha        1 3TU      0.057500
     43 HNAA       -2.5530    7.3230   -5.2190 hn        1 3TU      0.252500
     44 HNAB       -1.9010    7.1700   -6.6550 hn        1 3TU      0.252500
     45 HAH         4.4660    0.0590   -4.2140 ha        1 3TU      0.117500
     46 HAI         0.4400    2.2210    1.4000 ha        1 3TU      0.109000
     47 HAJ         3.1880    0.3360   -2.2220 ha        1 3TU      0.121000
     48 HAK        -0.6890    1.2070    3.2370 ha        1 3TU      0.138000
     49 HAL         4.0980    1.5010   -6.0690 ha        1 3TU      0.117500
     50 HAM         0.9760   -1.4840   -0.2930 ha        1 3TU      0.148000
     51 HAP         0.3930    2.3590   -1.7040 h1        1 3TU      0.105000
     52 HAPA        0.3030    0.8380   -2.1820 h1        1 3TU      0.105000
     53 HAQ        -0.9380   -3.3550    1.1160 h1        1 3TU      0.119000
     54 HAQA        0.4440   -3.5140    1.9180 h1        1 3TU      0.119000
     55 HNAT        2.4530    1.3000   -0.5290 hn        1 3TU      0.157000
@<TRIPOS>BOND
     1    1    3 1   
     2    1   36 1   
     3    2   11 1   
     4    2   24 1   
     5    2   27 1   
     6    4    5 1   
     7    4    9 1   
     8    4   37 1   
     9    5    6 1   
    10    5   15 1   
    11    7    8 1   
    12    7   26 1   
    13    8   33 1   
    14    9   10 1   
    15   11   12 1   
    16   11   38 1   
    17   12   14 1   
    18   12   39 1   
    19   12   40 1   
    20   13   34 1   
    21   13   35 1   
    22   14   41 1   
    23   14   42 1   
    24   15   43 1   
    25   15   44 1   
    26   16   27 1   
    27   17   21 1   
    28   17   45 1   
    29   18   28 1   
    30   18   46 1   
    31   19   30 1   
    32   19   47 1   
    33   20   31 1   
    34   20   48 1   
    35   21   49 1   
    36   22   29 1   
    37   22   50 1   
    38   23   25 1   
    39   23   30 1   
    40   23   51 1   
    41   23   52 1   
    42   24   29 1   
    43   24   53 1   
    44   24   54 1   
    45   25   28 1   
    46   25   55 1   
    47   26   32 1   
    48   27   31 1   
    49   29   31 1   
    50   30   33 1   
    51   32   33 1   
@<TRIPOS>SUBSTRUCTURE
     1 3TU         1 TEMP              0 ****  ****    0 ROOT
