@<TRIPOS>MOLECULE
3TU
   55    59     1     0     0
SMALL
bcc


@<TRIPOS>ATOM
      1 C          -6.4030    1.5290    0.9500 c         1 3TU      0.894600
      2 N          -4.4070    0.4510   -0.1270 n         1 3TU     -0.400800
      3 O          -5.9450    2.7080    1.0930 o         1 3TU     -0.845800
      4 N1          4.4250   -2.8410   -0.0300 n         1 3TU     -0.498400
      5 C2          5.4410   -3.0380   -0.9760 cc        1 3TU      0.677800
      6 N3          6.2120   -2.0300   -1.4560 nd        1 3TU     -0.672300
      7 C4          5.9200   -0.7720   -0.9960 cd        1 3TU      0.218200
      8 C5          4.8660   -0.4530   -0.1160 cc        1 3TU     -0.233400
      9 C6          4.1550   -1.5550    0.5140 c         1 3TU      0.740700
     10 O6          3.3860   -1.5270    1.4880 o         1 3TU     -0.605500
     11 CA         -5.8360    0.7130   -0.2600 c3        1 3TU     -0.016300
     12 CB         -6.6700   -0.5250   -0.5970 c3        1 3TU     -0.054400
     13 CD         -7.4020   -1.9800   -2.5710 c         1 3TU      0.904600
     14 CG         -6.3070   -1.1110   -1.9420 c3        1 3TU     -0.177400
     15 NAA         5.7140   -4.3640   -1.3860 nh        1 3TU     -0.890800
     16 OAD        -4.2800   -1.5950    1.0970 o         1 3TU     -0.622500
     17 CAH         5.0380    3.7480    0.2930 ca        1 3TU     -0.128000
     18 CAI        -0.1270   -0.0270    1.7240 ca        1 3TU     -0.196000
     19 CAJ         3.9290    3.1040    0.8600 ca        1 3TU     -0.123000
     20 CAK        -1.3660   -0.6780    1.6450 ca        1 3TU     -0.056000
     21 CAL         5.9670    3.0300   -0.4420 ca        1 3TU     -0.106000
     22 CAM        -1.0210    1.8850    0.4870 ca        1 3TU     -0.178000
     23 CAP         2.4760    1.0720    1.2130 c3        1 3TU      0.200100
     24 CAQ        -3.5320    1.6300   -0.2340 c3        1 3TU      0.084300
     25 NAT         1.3030    1.9290    1.2750 nh        1 3TU     -0.704600
     26 SAU         6.8050    0.6030   -1.4470 ss        1 3TU      0.055500
     27 CAX        -3.8190   -0.5110    0.7070 c         1 3TU      0.704100
     28 CAZ         0.0610    1.2460    1.1520 ca        1 3TU      0.099600
     29 CBB        -2.2320    1.2300    0.4150 ca        1 3TU     -0.040300
     30 CBC         3.7330    1.7310    0.7260 ca        1 3TU     -0.036300
     31 CBD        -2.4040   -0.0570    0.9850 ca        1 3TU     -0.167600
     32 CBE         5.8120    1.6480   -0.5570 ca        1 3TU     -0.098100
     33 CBH         4.7320    0.9690    0.0810 ca        1 3TU     -0.000800
     34 OE1        -7.0690   -3.1120   -3.0430 o         1 3TU     -0.875300
     35 OE2        -8.5850   -1.5360   -2.6650 o         1 3TU     -0.875300
     36 OXT        -7.2750    1.0310    1.7050 o         1 3TU     -0.845800
     37 HN1         3.9300   -3.6140    0.3600 hn        1 3TU      0.339500
     38 HA         -5.9090    1.4160   -1.1480 h1        1 3TU      0.035700
     39 HB         -6.5550   -1.2940    0.2100 hc        1 3TU      0.067700
     40 HBA        -7.7460   -0.2010   -0.6020 hc        1 3TU      0.067700
     41 HG         -6.0970   -0.2840   -2.6710 hc        1 3TU      0.013700
     42 HGA        -5.3730   -1.7230   -1.8480 hc        1 3TU      0.013700
     43 HNAA        4.9200   -4.9630   -1.4400 hn        1 3TU      0.417800
     44 HNAB        6.3260   -4.4330   -2.1710 hn        1 3TU      0.417800
     45 HAH         5.1540    4.8340    0.4200 ha        1 3TU      0.130000
     46 HAI         0.7030   -0.5310    2.2410 ha        1 3TU      0.128000
     47 HAJ         3.2010    3.7140    1.4200 ha        1 3TU      0.153000
     48 HAK        -1.5040   -1.6710    2.0970 ha        1 3TU      0.141000
     49 HAL         6.8120    3.5350   -0.9310 ha        1 3TU      0.129000
     50 HAM        -0.8990    2.8830    0.0430 ha        1 3TU      0.123000
     51 HAP         2.6610    0.6790    2.2570 h1        1 3TU      0.070200
     52 HAPA        2.2750    0.1750    0.5520 h1        1 3TU      0.070200
     53 HAQ        -3.3850    1.8730   -1.3200 h1        1 3TU      0.091700
     54 HAQA       -4.0040    2.5170    0.2900 h1        1 3TU      0.091700
     55 HNAT        1.3590    2.6780    0.6100 hn        1 3TU      0.365800
@<TRIPOS>BOND
     1    1    3 1   
     2    1   11 1   
     3    1   36 1   
     4    2   11 1   
     5    2   24 1   
     6    2   27 1   
     7    4    5 1   
     8    4    9 1   
     9    4   37 1   
    10    5    6 2   
    11    5   15 1   
    12    6    7 1   
    13    7    8 2   
    14    7   26 1   
    15    8    9 1   
    16    8   33 1   
    17    9   10 2   
    18   11   12 1   
    19   11   38 1   
    20   12   14 1   
    21   12   39 1   
    22   12   40 1   
    23   13   14 1   
    24   13   34 1   
    25   13   35 1   
    26   14   41 1   
    27   14   42 1   
    28   15   43 1   
    29   15   44 1   
    30   16   27 2   
    31   17   19 ar  
    32   17   21 ar  
    33   17   45 1   
    34   18   20 ar  
    35   18   28 ar  
    36   18   46 1   
    37   19   30 ar  
    38   19   47 1   
    39   20   31 ar  
    40   20   48 1   
    41   21   32 ar  
    42   21   49 1   
    43   22   28 ar  
    44   22   29 ar  
    45   22   50 1   
    46   23   25 1   
    47   23   30 1   
    48   23   51 1   
    49   23   52 1   
    50   24   29 1   
    51   24   53 1   
    52   24   54 1   
    53   25   28 1   
    54   25   55 1   
    55   26   32 1   
    56   27   31 1   
    57   29   31 ar  
    58   30   33 ar  
    59   32   33 ar  
@<TRIPOS>SUBSTRUCTURE
     1 3TU         1 TEMP              0 ****  ****    0 ROOT
