@<TRIPOS>MOLECULE
3TV
   28    28     1     0     0
SMALL
bcc


@<TRIPOS>ATOM
      1 F18        -0.0050   -0.6140    0.4500 f         1 3TV     -0.091400
      2 C7          1.2550   -0.1280    0.3760 ca        1 3TV      0.046900
      3 C6          2.1330   -0.3910    1.4320 ca        1 3TV      0.258900
      4 F17         1.6980   -1.1460    2.4670 f         1 3TV     -0.088900
      5 C8          1.6620    0.6320   -0.7750 ca        1 3TV      0.016900
      6 S11         0.5020    0.9190   -1.8990 ss        1 3TV      0.152000
      7 C12         1.1590    1.8660   -3.2280 c3        1 3TV     -0.095300
      8 C13        -0.0220    2.0800   -4.1490 c3        1 3TV     -0.079400
      9 C14         0.3920    2.8740   -5.3640 c3        1 3TV     -0.092100
     10 C9          3.0270    1.0350   -0.7890 ca        1 3TV      0.046900
     11 F15         3.5330    1.7030   -1.8550 f         1 3TV     -0.091400
     12 C10         3.9020    0.7670    0.2810 ca        1 3TV      0.258900
     13 F16         5.1760    1.1890    0.1800 f         1 3TV     -0.088900
     14 C5          3.4830    0.0850    1.4620 ca        1 3TV     -0.624500
     15 S1          4.4060   -0.0490    2.7750 sy        1 3TV      1.497200
     16 O3          5.7250    0.2970    2.5990 o         1 3TV     -0.552800
     17 O4          3.7640    0.1510    3.9740 o         1 3TV     -0.552800
     18 N2          4.5410   -1.9580    2.8000 n4        1 3TV     -0.787500
     19 H1          1.5710    2.8470   -2.8820 h1        1 3TV      0.103200
     20 H2          1.9820    1.3270   -3.7610 h1        1 3TV      0.103200
     21 H3         -0.4370    1.0870   -4.4750 hc        1 3TV      0.064700
     22 H4         -0.8380    2.6270   -3.6040 hc        1 3TV      0.064700
     23 H5         -0.4900    3.0250   -6.0330 hc        1 3TV      0.052367
     24 H6          1.1850    2.3370   -5.9380 hc        1 3TV      0.052367
     25 H7          0.7870    3.8760   -5.0660 hc        1 3TV      0.052367
     26 H8          3.9970   -2.3940    2.0620 hn        1 3TV      0.458467
     27 H9          5.5110   -2.2520    2.6930 hn        1 3TV      0.458467
     28 H23         4.1990   -2.3200    3.6890 hn        1 3TV      0.458467
@<TRIPOS>BOND
     1    1    2 1   
     2    2    3 ar  
     3    2    5 ar  
     4    3    4 1   
     5    3   14 ar  
     6    5    6 1   
     7    5   10 ar  
     8    6    7 1   
     9    7    8 1   
    10    7   19 1   
    11    7   20 1   
    12    8    9 1   
    13    8   21 1   
    14    8   22 1   
    15    9   23 1   
    16    9   24 1   
    17    9   25 1   
    18   10   11 1   
    19   10   12 ar  
    20   12   13 1   
    21   12   14 ar  
    22   14   15 1   
    23   15   16 2   
    24   15   17 2   
    25   15   18 1   
    26   18   26 1   
    27   18   27 1   
    28   18   28 1   
@<TRIPOS>SUBSTRUCTURE
     1 3TV         1 TEMP              0 ****  ****    0 ROOT
