@<TRIPOS>MOLECULE
3TV
   28    28     1     0     0
SMALL
bcc


@<TRIPOS>ATOM
      1 F18         0.8040    1.7880   -0.2430 f         1 3TV     -0.091400
      2 C7          1.9510    1.0720   -0.1540 ca        1 3TV      0.046900
      3 C6          2.4600    0.8250    1.1370 ca        1 3TV      0.258900
      4 F17         1.7810    1.3130    2.1910 f         1 3TV     -0.088900
      5 C8          2.5980    0.6000   -1.3300 ca        1 3TV      0.016900
      6 S11         2.1780    0.8520   -2.8960 ss        1 3TV      0.152000
      7 C12         0.7390    1.8610   -2.9890 c3        1 3TV     -0.095300
      8 C13         0.5040    2.0340   -4.4730 c3        1 3TV     -0.079400
      9 C14        -0.7230    2.8770   -4.7190 c3        1 3TV     -0.092100
     10 C9          3.7690   -0.2040   -1.1090 ca        1 3TV      0.046900
     11 F15         4.4160   -0.7550   -2.1630 f         1 3TV     -0.091400
     12 C10         4.2650   -0.4460    0.1750 ca        1 3TV      0.258900
     13 F16         5.3480   -1.2440    0.3160 f         1 3TV     -0.088900
     14 C5          3.6670    0.0970    1.3580 ca        1 3TV     -0.624500
     15 S1          4.3710   -0.0190    2.8010 sy        1 3TV      1.497200
     16 O3          5.7390    0.1210    2.8060 o         1 3TV     -0.552800
     17 O4          3.6020    0.3970    3.8620 o         1 3TV     -0.552800
     18 N2          4.2460   -1.9180    2.9960 nz        1 3TV     -0.787500
     19 H1         -0.1440    1.3760   -2.5030 h1        1 3TV      0.103200
     20 H2          0.8890    2.8540   -2.4950 h1        1 3TV      0.103200
     21 H3          0.3720    1.0290   -4.9590 hc        1 3TV      0.064700
     22 H4          1.3970    2.5250   -4.9470 hc        1 3TV      0.064700
     23 H5         -1.6290    2.3950   -4.2790 hc        1 3TV      0.052367
     24 H6         -0.8830    2.9960   -5.8180 hc        1 3TV      0.052367
     25 H7         -0.6050    3.8900   -4.2650 hc        1 3TV      0.052367
     26 H8          3.8390   -2.3650    2.1800 hn        1 3TV      0.458467
     27 H9          3.6760   -2.1610    3.8050 hn        1 3TV      0.458467
     28 H23         5.1740   -2.3170    3.1350 hn        1 3TV      0.458467
@<TRIPOS>BOND
     1    1    2 1   
     2    2    3 ar  
     3    2    5 ar  
     4    3    4 1   
     5    3   14 ar  
     6    5    6 1   
     7    5   10 ar  
     8    6    7 1   
     9    7    8 1   
    10    7   19 1   
    11    7   20 1   
    12    8    9 1   
    13    8   21 1   
    14    8   22 1   
    15    9   23 1   
    16    9   24 1   
    17    9   25 1   
    18   10   11 1   
    19   10   12 ar  
    20   12   13 1   
    21   12   14 ar  
    22   14   15 1   
    23   15   16 2   
    24   15   17 2   
    25   15   18 1   
    26   18   26 1   
    27   18   27 1   
    28   18   28 1   
@<TRIPOS>SUBSTRUCTURE
     1 3TV         1 TEMP              0 ****  ****    0 ROOT
