@<TRIPOS>MOLECULE
3TY
   39    40     1     0     0
SMALL
bcc


@<TRIPOS>ATOM
      1 N           3.5410   -4.0580   -0.4330 n3        1 3TY     -0.889800
      2 CA          3.9390   -2.7780    0.1440 c3        1 3TY      0.045500
      3 C           4.4490   -1.7790   -0.9340 c         1 3TY      0.877600
      4 O           5.2320   -2.1980   -1.8300 o         1 3TY     -0.858300
      5 OXT         4.0490   -0.5720   -0.8860 o         1 3TY     -0.858300
      6 CB          5.0090   -2.9780    1.2400 c3        1 3TY     -0.020200
      7 C1          5.2130   -1.7310    2.0250 cc        1 3TY     -0.179400
      8 C2          4.8900   -1.7090    3.4650 c         1 3TY      0.592500
      9 O2          4.4200   -2.6830    4.0790 o         1 3TY     -0.582100
     10 C3          5.2190   -0.4640    4.1670 cc        1 3TY     -0.392200
     11 C4          5.5830    0.6660    3.5070 cd        1 3TY      0.138500
     12 O4          5.9110    1.8310    4.1540 oh        1 3TY     -0.487100
     13 C5          5.6220    0.7040    2.0360 cd        1 3TY      0.322900
     14 N5          5.4540    1.8490    1.3840 n2        1 3TY     -0.349400
     15 NB1         5.4440    1.8990    0.0740 nh        1 3TY     -0.523300
     16 CT3         4.8040    3.0580   -0.5570 c3        1 3TY      0.258100
     17 CT4         4.9760    3.0500   -2.0490 ca        1 3TY     -0.101300
     18 CT5         5.4150    4.2170   -2.6860 ca        1 3TY     -0.117000
     19 CT6         5.5360    4.2560   -4.0730 ca        1 3TY     -0.140500
     20 CT7         5.2290    3.1260   -4.8320 ca        1 3TY     -0.139000
     21 CT8         4.8000    1.9600   -4.1990 ca        1 3TY     -0.140500
     22 CT9         4.6670    1.9160   -2.8100 ca        1 3TY     -0.117000
     23 C6          5.6800   -0.6210    1.4180 cd        1 3TY     -0.160600
     24 HN1         2.8640   -3.8750   -1.1520 hn        1 3TY      0.333300
     25 H           4.3430   -4.4640   -0.8840 hn        1 3TY      0.333300
     26 HA          3.0240   -2.3290    0.6260 h1        1 3TY      0.057700
     27 HB2         5.9740   -3.2790    0.7490 hc        1 3TY      0.054200
     28 HB1         4.6940   -3.8060    1.9300 hc        1 3TY      0.054200
     29 H3          5.1530   -0.4920    5.2630 ha        1 3TY      0.133000
     30 HD          5.7880    1.6870    5.1040 ho        1 3TY      0.410000
     31 HNB         5.2840    1.0360   -0.4530 hn        1 3TY      0.466800
     32 HT31        5.2490    4.0000   -0.1250 h1        1 3TY      0.049200
     33 HT32        3.6940    3.0680   -0.3370 h1        1 3TY      0.049200
     34 HB8         5.6680    5.1060   -2.0900 ha        1 3TY      0.167500
     35 HB7         5.8780    5.1750   -4.5680 ha        1 3TY      0.126500
     36 HB6         5.3310    3.1540   -5.9260 ha        1 3TY      0.116000
     37 HB5         4.5690    1.0620   -4.7900 ha        1 3TY      0.126500
     38 HB4         4.3270    0.9730   -2.3260 ha        1 3TY      0.167500
     39 H6          6.0480   -0.6870    0.3760 ha        1 3TY      0.175000
@<TRIPOS>BOND
     1    1    2 1   
     2    1   24 1   
     3    1   25 1   
     4    2    3 1   
     5    2    6 1   
     6    2   26 1   
     7    3    4 1   
     8    3    5 1   
     9    6    7 1   
    10    6   27 1   
    11    6   28 1   
    12    7    8 1   
    13    7   23 2   
    14    8    9 2   
    15    8   10 1   
    16   10   11 2   
    17   10   29 1   
    18   11   12 1   
    19   11   13 1   
    20   12   30 1   
    21   13   14 2   
    22   13   23 1   
    23   14   15 1   
    24   15   16 1   
    25   15   31 1   
    26   16   17 1   
    27   16   32 1   
    28   16   33 1   
    29   17   18 ar  
    30   17   22 ar  
    31   18   19 ar  
    32   18   34 1   
    33   19   20 ar  
    34   19   35 1   
    35   20   21 ar  
    36   20   36 1   
    37   21   22 ar  
    38   21   37 1   
    39   22   38 1   
    40   23   39 1   
@<TRIPOS>SUBSTRUCTURE
     1 3TY         1 TEMP              0 ****  ****    0 ROOT
