@<TRIPOS>MOLECULE
3TZ
   54    57     1     0     0
SMALL
bcc


@<TRIPOS>ATOM
      1 C          -6.4940    0.2710   -0.4710 c         1 3TZ      0.917600
      2 N          -4.2890   -0.7040    0.1160 n         1 3TZ     -0.502900
      3 OXT        -6.3770   -0.1030   -1.6730 o         1 3TZ     -0.848300
      4 N1          1.0110    2.0470   -0.6240 n         1 3TZ     -0.475400
      5 C2          1.3810    2.8710    0.4430 cc        1 3TZ      0.734800
      6 N3          2.5540    2.6560    1.1600 nd        1 3TZ     -0.727300
      7 C4          3.2360    1.5370    0.8550 cd        1 3TZ      0.301200
      8 C5          2.9050    0.5880   -0.1500 cc        1 3TZ     -0.324400
      9 C6          1.8230    0.9660   -1.0450 c         1 3TZ      0.753700
     10 O6          1.5700    0.4960   -2.1740 o         1 3TZ     -0.664500
     11 CA         -5.2090    0.3750    0.4220 c3        1 3TZ     -0.034300
     12 CB         -4.5940    1.7700    0.1930 c3        1 3TZ     -0.081400
     13 CG         -3.6350    2.1840    1.2860 c3        1 3TZ     -0.169400
     14 NAA         0.6280    3.9970    0.7080 nh        1 3TZ     -0.863800
     15 CAH         5.7660   -2.5140    0.3690 ca        1 3TZ     -0.171000
     16 CAI         4.7070   -2.7670   -0.5050 ca        1 3TZ     -0.128000
     17 CAJ        -0.1490   -3.1920    0.6470 ca        1 3TZ     -0.191500
     18 CAK        -0.3280   -1.7500   -1.2920 ca        1 3TZ     -0.191500
     19 CAL        -1.3750   -2.7200    1.1020 ca        1 3TZ     -0.067500
     20 CAM        -1.5450   -1.2730   -0.8160 ca        1 3TZ     -0.067500
     21 CAN         5.8040   -1.3130    1.0640 ca        1 3TZ     -0.093000
     22 CAQ         2.5850   -2.3090   -1.6480 c3        1 3TZ      0.198100
     23 SAV         4.6610    1.0880    1.6920 ss        1 3TZ     -0.041500
     24 CAY        -3.3210   -1.1490    0.9780 c         1 3TZ      0.663700
     25 CBA         0.4110   -2.7000   -0.5550 ca        1 3TZ      0.120600
     26 CBB        -2.0790   -1.7470    0.3860 ca        1 3TZ     -0.157600
     27 CBD         3.6920   -1.8350   -0.7420 ca        1 3TZ     -0.100300
     28 CBE         4.8030   -0.3730    0.8450 ca        1 3TZ     -0.106100
     29 CBG         3.7480   -0.5790   -0.1050 ca        1 3TZ      0.070200
     30 OE1        -2.0660    4.0120    1.4850 o         1 3TZ     -0.897300
     31 OE2        -1.7870    2.6790   -0.2320 o         1 3TZ     -0.897300
     32 O          -7.5890    0.5860    0.0730 o         1 3TZ     -0.848300
     33 HN         -4.1420   -0.8250   -0.8640 hn        1 3TZ      0.310500
     34 HN1         0.0910    2.1520   -1.0340 hn        1 3TZ      0.400500
     35 HA         -5.5160    0.2780    1.5010 h1        1 3TZ      0.066700
     36 HB         -4.0710    1.7960   -0.8000 hc        1 3TZ      0.050700
     37 HBA        -5.4450    2.4980    0.1410 hc        1 3TZ      0.050700
     38 HG         -4.1830    2.7690    2.0700 hc        1 3TZ      0.042700
     39 HGA        -3.2050    1.2780    1.7920 hc        1 3TZ      0.042700
     40 HNAA       -0.3470    4.0010    0.3890 hn        1 3TZ      0.471800
     41 HNAB        0.7530    4.4030    1.6100 hn        1 3TZ      0.471800
     42 HAH         6.5500   -3.2680    0.5190 ha        1 3TZ      0.113000
     43 HAI         4.6640   -3.7400   -1.0190 ha        1 3TZ      0.118000
     44 HAJ         0.3900   -3.9420    1.2440 ha        1 3TZ      0.131000
     45 HAK         0.0620   -1.3410   -2.2380 ha        1 3TZ      0.131000
     46 HAL        -1.7930   -3.0830    2.0540 ha        1 3TZ      0.151500
     47 HAM        -2.0590   -0.4800   -1.3880 ha        1 3TZ      0.151500
     48 HAN         6.6060   -1.1070    1.7870 ha        1 3TZ      0.118000
     49 HAQ         3.0630   -2.8930   -2.4920 h1        1 3TZ      0.077200
     50 HAQA        2.0550   -1.4380   -2.1160 h1        1 3TZ      0.077200
     51 HNAT        2.0850   -3.7850   -0.3380 hn        1 3TZ      0.366800
     52 NAT         1.6380   -3.2200   -1.0360 nh        1 3TZ     -0.708600
     53 CD         -2.4550    3.0050    0.8060 c         1 3TZ      0.908600
     54 OAD        -3.4520   -1.1260    2.2270 o         1 3TZ     -0.657100
@<TRIPOS>BOND
     1    1    3 1   
     2    1   11 1   
     3    1   32 1   
     4    2   11 1   
     5    2   24 1   
     6    2   33 1   
     7    4    5 1   
     8    4    9 1   
     9    4   34 1   
    10    5    6 2   
    11    5   14 1   
    12    6    7 1   
    13    7    8 2   
    14    7   23 1   
    15    8    9 1   
    16    8   29 1   
    17    9   10 2   
    18   11   12 1   
    19   11   35 1   
    20   12   13 1   
    21   12   36 1   
    22   12   37 1   
    23   13   38 1   
    24   13   39 1   
    25   13   53 1   
    26   14   40 1   
    27   14   41 1   
    28   15   16 ar  
    29   15   21 ar  
    30   15   42 1   
    31   16   27 ar  
    32   16   43 1   
    33   17   19 ar  
    34   17   25 ar  
    35   17   44 1   
    36   18   20 ar  
    37   18   25 ar  
    38   18   45 1   
    39   19   26 ar  
    40   19   46 1   
    41   20   26 ar  
    42   20   47 1   
    43   21   28 ar  
    44   21   48 1   
    45   22   27 1   
    46   22   49 1   
    47   22   50 1   
    48   22   52 1   
    49   23   28 1   
    50   24   26 1   
    51   24   54 2   
    52   25   52 1   
    53   27   29 ar  
    54   28   29 ar  
    55   30   53 1   
    56   31   53 1   
    57   51   52 1   
@<TRIPOS>SUBSTRUCTURE
     1 3TZ         1 TEMP              0 ****  ****    0 ROOT
