@<TRIPOS>MOLECULE
3TZ
   54    48     1     0     0
SMALL
bcc


@<TRIPOS>ATOM
      1 C          -1.6970   -6.1690    1.1250 c1        1 3TZ      0.317000
      2 N          -1.4400   -3.9290    1.9110 n         1 3TZ     -0.274000
      3 OXT        -1.1510   -7.2720    1.3920 os        1 3TZ     -0.559000
      4 N1         -0.7970    5.8590   -0.4060 n3        1 3TZ     -0.341000
      5 C2         -0.7120    7.1200   -1.1000 c2        1 3TZ      0.250000
      6 N3          0.2820    7.3130   -2.1440 n1        1 3TZ     -0.259000
      7 C4          1.1810    6.2500   -2.4830 c1        1 3TZ     -0.154000
      8 C5          1.1010    5.0020   -1.7940 c1        1 3TZ     -0.218000
      9 C6          0.0860    4.8070   -0.7400 c1        1 3TZ      0.400000
     10 O6          0.0290    3.7500   -0.1370 o         1 3TZ     -0.322000
     11 CA         -2.0040   -5.1990    2.2270 c3        1 3TZ     -0.081000
     12 CB         -3.5300   -5.0610    2.3790 c3        1 3TZ     -0.128000
     13 CD         -5.5180   -6.4740    2.9600 c1        1 3TZ      0.323000
     14 CG         -4.0640   -6.1920    3.2980 c2        1 3TZ     -0.210000
     15 NAA        -1.5570    8.2120   -0.7040 n3        1 3TZ     -0.348000
     16 OAD         0.6850   -4.5610    2.5490 o         1 3TZ     -0.399000
     17 CAH         4.2700    2.7290   -3.8430 c1        1 3TZ     -0.124500
     18 CAI         3.5710    2.0410   -2.8310 c1        1 3TZ     -0.124000
     19 CAJ         1.4050   -1.4140   -0.6110 c1        1 3TZ     -0.194000
     20 CAK         1.7050   -0.2860    1.5000 c1        1 3TZ     -0.124500
     21 CAL         0.7850   -2.4770    0.0430 c1        1 3TZ     -0.078000
     22 CAM         1.0860   -1.3470    2.1530 c1        1 3TZ     -0.124500
     23 CAN         3.9500    4.0640   -4.1350 c1        1 3TZ     -0.124500
     24 CAQ         1.6520    1.7400   -1.3000 c3        1 3TZ     -0.041000
     25 NAT         2.4770    0.7990   -0.5640 n3        1 3TZ     -0.260000
     26 SAV         2.3350    6.1420   -3.5430 ss        1 3TZ      0.499000
     27 CAY        -0.0110   -3.7410    1.9750 c2        1 3TZ      0.328000
     28 CBA         1.8650   -0.3180    0.1190 c1        1 3TZ      0.008000
     29 CBB         0.6240   -2.4450    1.4190 c1        1 3TZ     -0.132000
     30 CBD         2.5530    2.6880   -2.1140 c2        1 3TZ     -0.036000
     31 CBE         2.9460    4.7060   -3.4290 c1        1 3TZ     -0.328000
     32 CBG         2.2340    4.0060   -2.4000 c2        1 3TZ      0.035000
     33 OE1        -6.4340   -5.8900    3.5900 o         1 3TZ     -0.610000
     34 OE2        -5.8030   -7.2600    2.0200 o         1 3TZ     -0.610000
     35 O          -1.9560   -5.8670   -0.0690 o         1 3TZ     -0.626000
     36 HN         -1.9780   -3.2290    1.7300 hn        1 3TZ      0.201000
     37 HN1        -1.4530    5.7250    0.2170 hn        1 3TZ      0.255000
     38 HA         -1.6220   -5.5260    3.0640 h1        1 3TZ      0.107000
     39 HB         -3.7420   -4.1910    2.7750 hc        1 3TZ      0.090500
     40 HBA        -3.9580   -5.1300    1.4890 hc        1 3TZ      0.090500
     41 HG         -3.5330   -7.0030    3.1600 ha        1 3TZ      0.060000
     42 HGA        -3.9950   -5.9110    4.2360 ha        1 3TZ      0.060000
     43 HNAA       -1.4230    9.0400   -1.0550 hn        1 3TZ      0.222000
     44 HNAB       -2.2180    8.0790   -0.0750 hn        1 3TZ      0.222000
     45 HAH         5.0010    2.2900   -4.3140 ha        1 3TZ      0.131750
     46 HAI         3.7930    1.1160   -2.6310 ha        1 3TZ      0.138000
     47 HAJ         1.5180   -1.4370   -1.5780 ha        1 3TZ      0.120000
     48 HAK         2.0270    0.4820    2.0130 ha        1 3TZ      0.131750
     49 HAL         0.4650   -3.2400   -0.4660 ha        1 3TZ      0.216000
     50 HAM         0.9730   -1.3240    3.1220 ha        1 3TZ      0.131750
     51 HAN         4.4380    4.5430   -4.8400 ha        1 3TZ      0.131750
     52 HAQ         1.1150    2.2590   -0.6740 h1        1 3TZ      0.099000
     53 HAQA        1.0600    1.2490   -1.9090 h1        1 3TZ      0.099000
     54 HNAT        3.3840    0.8820   -0.5760 hn        1 3TZ      0.162000
@<TRIPOS>BOND
     1    1   11 1   
     2    1   35 1   
     3    2   11 1   
     4    2   27 1   
     5    2   36 1   
     6    4    5 1   
     7    4    9 1   
     8    4   37 1   
     9    5    6 1   
    10    5   15 1   
    11    7    8 1   
    12    7   26 1   
    13    8   32 1   
    14    9   10 1   
    15   11   12 1   
    16   11   38 1   
    17   12   14 1   
    18   12   39 1   
    19   12   40 1   
    20   13   33 1   
    21   13   34 1   
    22   14   41 1   
    23   14   42 1   
    24   15   43 1   
    25   15   44 1   
    26   16   27 1   
    27   17   23 1   
    28   17   45 1   
    29   18   30 1   
    30   18   46 1   
    31   19   28 1   
    32   19   47 1   
    33   20   22 1   
    34   20   48 1   
    35   21   29 1   
    36   21   49 1   
    37   22   50 1   
    38   23   51 1   
    39   24   25 1   
    40   24   30 1   
    41   24   52 1   
    42   24   53 1   
    43   25   28 1   
    44   25   54 1   
    45   26   31 1   
    46   27   29 1   
    47   30   32 1   
    48   31   32 1   
@<TRIPOS>SUBSTRUCTURE
     1 3TZ         1 TEMP              0 ****  ****    0 ROOT
