@<TRIPOS>MOLECULE
3U1
   53    58     1     0     0
SMALL
bcc


@<TRIPOS>ATOM
      1 F01        -0.4420   -0.4920   -0.3820 f         1 3U1     -0.131900
      2 C02         0.8900   -0.5890   -0.1600 ca        1 3U1      0.159400
      3 C03         1.3340   -0.8600    1.1480 ca        1 3U1     -0.181500
      4 C04         2.6950   -0.9690    1.4080 ca        1 3U1     -0.081000
      5 C05         3.6240   -0.8160    0.3850 ca        1 3U1     -0.181500
      6 C06         3.1840   -0.5480   -0.9240 ca        1 3U1      0.159400
      7 F07         4.1130   -0.4010   -1.8990 f         1 3U1     -0.131900
      8 C08         1.8070   -0.4290   -1.2250 cp        1 3U1     -0.095000
      9 C09         1.3480   -0.1500   -2.5860 cp        1 3U1     -0.077000
     10 C10         1.8250   -0.9530   -3.6500 ca        1 3U1     -0.072000
     11 C11         1.4280   -0.7460   -4.9590 ca        1 3U1     -0.147000
     12 C12         0.5310    0.3050   -5.2000 ca        1 3U1     -0.051200
     13 N13        -0.0710    0.7840   -6.3740 na        1 3U1     -0.008100
     14 N14        -0.8660    1.8250   -6.1390 nc        1 3U1     -0.497100
     15 C15        -0.8530    2.0860   -4.8010 cd        1 3U1      0.276900
     16 C16        -1.6280    3.1620   -4.1890 ca        1 3U1      0.344700
     17 C17        -2.5460    3.9200   -4.9700 ca        1 3U1      0.262900
     18 N18        -3.2800    4.9250   -4.4450 nb        1 3U1     -0.608000
     19 C19        -3.1180    5.1890   -3.1450 ca        1 3U1      0.271900
     20 C20        -2.1940    4.4260   -2.3490 ca        1 3U1      0.524300
     21 O21        -2.1310    4.8150   -1.0320 os        1 3U1     -0.444100
     22 C22        -1.3150    4.0480   -0.1200 c3        1 3U1      0.186100
     23 C23         0.1400    4.5440   -0.2400 c3        1 3U1      0.139800
     24 N24         0.9920    4.0130    0.8040 n7        1 3U1     -0.817200
     25 C25         0.4830    4.2290    2.1440 c3        1 3U1      0.162800
     26 C26        -0.9500    3.7280    2.3200 c3        1 3U1     -0.045400
     27 C27        -1.8630    4.2900    1.2690 cx        1 3U1     -0.128000
     28 C28        -3.3530    4.2170    1.5030 cx        1 3U1     -0.115900
     29 C29        -2.6550    5.5390    1.5800 cx        1 3U1     -0.115900
     30 N30        -1.4490    3.4200   -2.8620 nb        1 3U1     -0.701000
     31 C31         0.0360    1.1380   -4.1280 ca        1 3U1     -0.179900
     32 C32         0.4530    0.8950   -2.8210 ca        1 3U1     -0.020000
     33 H1          0.5940   -0.9800    1.9530 ha        1 3U1      0.152500
     34 H2          3.0400   -1.1780    2.4320 ha        1 3U1      0.143000
     35 H3          4.7020   -0.8980    0.5840 ha        1 3U1      0.152500
     36 H4          2.5400   -1.7590   -3.4210 ha        1 3U1      0.142000
     37 H5          1.8020   -1.3770   -5.7760 ha        1 3U1      0.142000
     38 H6          0.0810    0.4660   -7.3010 hn        1 3U1      0.329700
     39 H7         -2.6990    3.7180   -6.0440 h4        1 3U1      0.051100
     40 H8         -3.7050    6.0050   -2.6950 h4        1 3U1      0.047100
     41 H9         -1.3840    2.9510   -0.3560 h1        1 3U1      0.085700
     42 H10         0.5630    4.1980   -1.2250 h1        1 3U1      0.046700
     43 H11         0.1150    5.6730   -0.2500 h1        1 3U1      0.046700
     44 H12         1.9130    4.4020    0.7190 hn        1 3U1      0.367800
     45 H14         1.1550    3.6650    2.8510 h1        1 3U1      0.030200
     46 H15         0.5140    5.3190    2.4410 h1        1 3U1      0.030200
     47 H16        -1.3080    4.0250    3.3400 hc        1 3U1      0.052700
     48 H17        -0.9720    2.6080    2.2610 hc        1 3U1      0.052700
     49 H18        -4.0100    4.0120    0.6390 hc        1 3U1      0.075200
     50 H19        -3.7190    3.7430    2.4310 hc        1 3U1      0.075200
     51 H20        -2.5150    6.0200    2.5640 hc        1 3U1      0.075200
     52 H21        -2.8160    6.2760    0.7730 hc        1 3U1      0.075200
     53 H22         0.0840    1.5080   -1.9830 ha        1 3U1      0.168000
@<TRIPOS>BOND
     1    1    2 1   
     2    2    3 ar  
     3    2    8 ar  
     4    3    4 ar  
     5    3   33 1   
     6    4    5 ar  
     7    4   34 1   
     8    5    6 ar  
     9    5   35 1   
    10    6    7 1   
    11    6    8 ar  
    12    8    9 1   
    13    9   10 ar  
    14    9   32 ar  
    15   10   11 ar  
    16   10   36 1   
    17   11   12 ar  
    18   11   37 1   
    19   12   13 1   
    20   12   31 ar  
    21   13   14 1   
    22   13   38 1   
    23   14   15 2   
    24   15   16 1   
    25   15   31 1   
    26   16   17 ar  
    27   16   30 ar  
    28   17   18 ar  
    29   17   39 1   
    30   18   19 ar  
    31   19   20 ar  
    32   19   40 1   
    33   20   21 1   
    34   20   30 ar  
    35   21   22 1   
    36   22   23 1   
    37   22   27 1   
    38   22   41 1   
    39   23   24 1   
    40   23   42 1   
    41   23   43 1   
    42   24   25 1   
    43   24   44 1   
    44   25   26 1   
    45   25   45 1   
    46   25   46 1   
    47   26   27 1   
    48   26   47 1   
    49   26   48 1   
    50   27   28 1   
    51   27   29 1   
    52   28   29 1   
    53   28   49 1   
    54   28   50 1   
    55   29   51 1   
    56   29   52 1   
    57   31   32 ar  
    58   32   53 1   
@<TRIPOS>SUBSTRUCTURE
     1 3U1         1 TEMP              0 ****  ****    0 ROOT
