@<TRIPOS>MOLECULE
3U1
   53    58     1     0     0
SMALL
bcc


@<TRIPOS>ATOM
      1 F01        -0.4280   -0.4780   -0.3690 f         1 3U1     -0.131900
      2 C02         0.9050   -0.5760   -0.1540 ca        1 3U1      0.159400
      3 C03         1.3570   -0.8400    1.1530 ca        1 3U1     -0.181500
      4 C04         2.7190   -0.9490    1.4050 ca        1 3U1     -0.081000
      5 C05         3.6420   -0.8020    0.3760 ca        1 3U1     -0.181500
      6 C06         3.1950   -0.5400   -0.9320 ca        1 3U1      0.159400
      7 F07         4.1190   -0.3990   -1.9130 f         1 3U1     -0.131900
      8 C08         1.8160   -0.4210   -1.2260 cp        1 3U1     -0.095000
      9 C09         1.3500   -0.1490   -2.5850 cp        1 3U1     -0.077000
     10 C10         1.8190   -0.9570   -3.6480 ca        1 3U1     -0.072000
     11 C11         1.4150   -0.7570   -4.9560 ca        1 3U1     -0.147000
     12 C12         0.5170    0.2930   -5.1970 ca        1 3U1     -0.051200
     13 N13        -0.0900    0.7660   -6.3700 na        1 3U1     -0.008100
     14 N14        -0.8840    1.8080   -6.1360 nc        1 3U1     -0.497100
     15 C15        -0.8620    2.0780   -4.7990 cd        1 3U1      0.276900
     16 C16        -1.6330    3.1570   -4.1880 ca        1 3U1      0.344700
     17 C17        -2.5470    3.9180   -4.9710 ca        1 3U1      0.262900
     18 N18        -3.2760    4.9280   -4.4480 nb        1 3U1     -0.608000
     19 C19        -3.1140    5.1920   -3.1470 ca        1 3U1      0.271900
     20 C20        -2.1950    4.4250   -2.3500 ca        1 3U1      0.524300
     21 O21        -2.1310    4.8160   -1.0340 os        1 3U1     -0.444100
     22 C22        -1.3190    4.0450   -0.1200 c3        1 3U1      0.186100
     23 C23         0.1390    4.5340   -0.2390 c3        1 3U1      0.139800
     24 N24         0.9870    4.0000    0.8060 n3        1 3U1     -0.817200
     25 C25         0.4780    4.2200    2.1450 c3        1 3U1      0.162800
     26 C26        -0.9580    3.7270    2.3210 c3        1 3U1     -0.045400
     27 C27        -1.8670    4.2920    1.2690 cx        1 3U1     -0.128000
     28 C28        -3.3580    4.2260    1.5010 cx        1 3U1     -0.115900
     29 C29        -2.6530    5.5450    1.5770 cx        1 3U1     -0.115900
     30 N30        -1.4540    3.4150   -2.8610 nb        1 3U1     -0.701000
     31 C31         0.0290    1.1320   -4.1260 ca        1 3U1     -0.178900
     32 C32         0.4540    0.8960   -2.8200 ca        1 3U1     -0.020000
     33 H1          0.6210   -0.9550    1.9620 ha        1 3U1      0.152500
     34 H2          3.0700   -1.1530    2.4280 ha        1 3U1      0.143000
     35 H3          4.7210   -0.8840    0.5690 ha        1 3U1      0.152500
     36 H4          2.5350   -1.7630   -3.4190 ha        1 3U1      0.142000
     37 H5          1.7840   -1.3930   -5.7710 ha        1 3U1      0.141000
     38 H6          0.0540    0.4420   -7.2960 hn        1 3U1      0.329700
     39 H7         -2.7000    3.7170   -6.0450 h4        1 3U1      0.051100
     40 H8         -3.6980    6.0110   -2.6990 h4        1 3U1      0.047100
     41 H9         -1.3940    2.9480   -0.3550 h1        1 3U1      0.085700
     42 H10         0.1190    5.6630   -0.2510 h1        1 3U1      0.046700
     43 H11         0.5600    4.1840   -1.2230 h1        1 3U1      0.046700
     44 H12         1.9090    4.3850    0.7210 hn        1 3U1      0.367800
     45 H14         1.1470    3.6540    2.8540 h1        1 3U1      0.030200
     46 H15         0.5130    5.3110    2.4410 h1        1 3U1      0.030200
     47 H16        -0.9850    2.6060    2.2640 hc        1 3U1      0.052700
     48 H17        -1.3160    4.0260    3.3410 hc        1 3U1      0.052700
     49 H18        -3.7270    3.7550    2.4290 hc        1 3U1      0.075200
     50 H19        -4.0150    4.0230    0.6370 hc        1 3U1      0.075200
     51 H20        -2.5120    6.0270    2.5610 hc        1 3U1      0.075200
     52 H21        -2.8100    6.2820    0.7690 hc        1 3U1      0.075200
     53 H22         0.0910    1.5130   -1.9830 ha        1 3U1      0.168000
@<TRIPOS>BOND
     1    1    2 1   
     2    2    3 ar  
     3    2    8 ar  
     4    3    4 ar  
     5    3   33 1   
     6    4    5 ar  
     7    4   34 1   
     8    5    6 ar  
     9    5   35 1   
    10    6    7 1   
    11    6    8 ar  
    12    8    9 1   
    13    9   10 ar  
    14    9   32 ar  
    15   10   11 ar  
    16   10   36 1   
    17   11   12 ar  
    18   11   37 1   
    19   12   13 1   
    20   12   31 ar  
    21   13   14 1   
    22   13   38 1   
    23   14   15 2   
    24   15   16 1   
    25   15   31 1   
    26   16   17 ar  
    27   16   30 ar  
    28   17   18 ar  
    29   17   39 1   
    30   18   19 ar  
    31   19   20 ar  
    32   19   40 1   
    33   20   21 1   
    34   20   30 ar  
    35   21   22 1   
    36   22   23 1   
    37   22   27 1   
    38   22   41 1   
    39   23   24 1   
    40   23   42 1   
    41   23   43 1   
    42   24   25 1   
    43   24   44 1   
    44   25   26 1   
    45   25   45 1   
    46   25   46 1   
    47   26   27 1   
    48   26   47 1   
    49   26   48 1   
    50   27   28 1   
    51   27   29 1   
    52   28   29 1   
    53   28   49 1   
    54   28   50 1   
    55   29   51 1   
    56   29   52 1   
    57   31   32 ar  
    58   32   53 1   
@<TRIPOS>SUBSTRUCTURE
     1 3U1         1 TEMP              0 ****  ****    0 ROOT
