@<TRIPOS>MOLECULE
3U2
   38    39     1     0     0
SMALL
bcc


@<TRIPOS>ATOM
      1 CAK         0.1110    0.4280   -0.1490 c3        1 3U2     -0.086100
      2 CAB         1.6010    0.1770   -0.0690 c3        1 3U2     -0.067700
      3 CAC         2.0410    0.1840    1.4010 c3        1 3U2      0.153100
      4 OAJ         1.3180   -0.8250    2.0890 oh        1 3U2     -0.600800
      5 CAD         3.5580   -0.0410    1.5170 c3        1 3U2      0.110100
      6 OAI         3.8480   -0.0900    2.9050 oh        1 3U2     -0.613800
      7 CAE         3.9490   -1.3590    0.8300 c3        1 3U2      0.109100
      8 OAH         5.3610   -1.4600    0.9640 oh        1 3U2     -0.614800
      9 CAF         3.5270   -1.3430   -0.6300 c3        1 3U2     -0.132400
     10 CAA         2.0010   -1.1600   -0.7320 c3        1 3U2      0.114700
     11 NAG         1.5310   -1.2550   -2.0960 n         1 3U2     -0.568900
     12 CAL         1.3650   -2.4710   -2.7290 c         1 3U2      0.672700
     13 OAM         1.6170   -3.5450   -2.1440 o         1 3U2     -0.605100
     14 CAN         0.8790   -2.4450   -4.1390 ca        1 3U2     -0.142600
     15 CAO         1.3880   -3.4000   -5.0290 ca        1 3U2     -0.091500
     16 CAP         0.9540   -3.4170   -6.3530 ca        1 3U2     -0.138500
     17 CAQ         0.0060   -2.4910   -6.7900 ca        1 3U2     -0.109000
     18 CAR        -0.5110   -1.5500   -5.9010 ca        1 3U2     -0.138500
     19 CAS        -0.0770   -1.5230   -4.5760 ca        1 3U2     -0.091500
     20 H1         -0.2140    0.5950   -1.2030 hc        1 3U2      0.042367
     21 H2         -0.4470   -0.4450    0.2700 hc        1 3U2      0.042367
     22 H3         -0.1560    1.3350    0.4460 hc        1 3U2      0.042367
     23 H4          2.1500    1.0170   -0.5800 hc        1 3U2      0.048700
     24 H5          1.7940    1.1850    1.8590 h1        1 3U2      0.050700
     25 H6          1.7040   -0.8840    2.9740 ho        1 3U2      0.423000
     26 H7          4.1150    0.8140    1.0460 h1        1 3U2      0.056700
     27 H8          4.7650   -0.3850    2.9860 ho        1 3U2      0.428000
     28 H9          3.4580   -2.2170    1.3710 h1        1 3U2      0.063700
     29 H10         5.6270   -2.2720    0.5160 ho        1 3U2      0.413000
     30 H11         4.0620   -0.5190   -1.1670 hc        1 3U2      0.058700
     31 H12         3.8160   -2.3150   -1.1090 hc        1 3U2      0.058700
     32 H13         1.5120   -2.0000   -0.1450 h1        1 3U2      0.098700
     33 H14         1.4420   -0.4160   -2.6150 hn        1 3U2      0.310500
     34 H15         2.1200   -4.1390   -4.6660 ha        1 3U2      0.145000
     35 H16         1.3560   -4.1660   -7.0510 ha        1 3U2      0.137000
     36 H17        -0.3370   -2.5070   -7.8350 ha        1 3U2      0.135000
     37 H18        -1.2670   -0.8270   -6.2430 ha        1 3U2      0.137000
     38 H19        -0.5070   -0.7870   -3.8800 ha        1 3U2      0.145000
@<TRIPOS>BOND
     1    1    2 1   
     2    1   20 1   
     3    1   21 1   
     4    1   22 1   
     5    2    3 1   
     6    2   10 1   
     7    2   23 1   
     8    3    4 1   
     9    3    5 1   
    10    3   24 1   
    11    4   25 1   
    12    5    6 1   
    13    5    7 1   
    14    5   26 1   
    15    6   27 1   
    16    7    8 1   
    17    7    9 1   
    18    7   28 1   
    19    8   29 1   
    20    9   10 1   
    21    9   30 1   
    22    9   31 1   
    23   10   11 1   
    24   10   32 1   
    25   11   12 1   
    26   11   33 1   
    27   12   13 2   
    28   12   14 1   
    29   14   15 ar  
    30   14   19 ar  
    31   15   16 ar  
    32   15   34 1   
    33   16   17 ar  
    34   16   35 1   
    35   17   18 ar  
    36   17   36 1   
    37   18   19 ar  
    38   18   37 1   
    39   19   38 1   
@<TRIPOS>SUBSTRUCTURE
     1 3U2         1 TEMP              0 ****  ****    0 ROOT
