@<TRIPOS>MOLECULE
3U2
   39    40     1     0     0
SMALL
bcc


@<TRIPOS>ATOM
      1 CAK        -0.0070    0.2320   -0.0620 c3        1 3U2     -0.118100
      2 CAB         1.4990    0.1340    0.0440 c3        1 3U2     -0.081700
      3 CAC         1.8990   -0.0790    1.5140 c3        1 3U2      0.156100
      4 OAJ         1.3310   -1.3080    1.9340 oh        1 3U2     -0.613800
      5 CAD         3.4300   -0.0960    1.6580 c3        1 3U2      0.109100
      6 OAI         3.6830   -0.3840    3.0200 oh        1 3U2     -0.597800
      7 CAE         4.0440   -1.1900    0.7660 c3        1 3U2      0.115100
      8 OAH         5.4470   -1.0330    0.8790 oh        1 3U2     -0.588800
      9 CAF         3.6150   -1.0120   -0.6900 c3        1 3U2     -0.135400
     10 CAA         2.0870   -1.0350   -0.7740 c3        1 3U2      0.130500
     11 NAG         1.6200   -0.9980   -2.2060 n4        1 3U2     -0.677800
     12 CAL         1.7270   -2.3210   -2.9420 c         1 3U2      0.572700
     13 OAM         2.3380   -3.2160   -2.3740 o         1 3U2     -0.426100
     14 CAN         1.0610   -2.3820   -4.2440 ca        1 3U2     -0.211600
     15 CAO         0.8240   -3.6660   -4.7680 ca        1 3U2     -0.066500
     16 CAP         0.1990   -3.8060   -6.0060 ca        1 3U2     -0.123000
     17 CAQ        -0.1830   -2.6770   -6.7290 ca        1 3U2     -0.049000
     18 CAR         0.0620   -1.3990   -6.2140 ca        1 3U2     -0.123000
     19 CAS         0.6800   -1.2460   -4.9780 ca        1 3U2     -0.066500
     20 H1         -0.3280    0.6630   -1.0410 hc        1 3U2      0.059033
     21 H2         -0.3960    0.9080    0.7410 hc        1 3U2      0.059033
     22 H3         -0.4790   -0.7710    0.0860 hc        1 3U2      0.059033
     23 H4          1.9670    1.1000   -0.2960 hc        1 3U2      0.072700
     24 H5          1.4850    0.7620    2.1390 h1        1 3U2      0.081700
     25 H6          1.6200   -1.4510    2.8480 ho        1 3U2      0.448000
     26 H7          3.8610    0.9050    1.3850 h1        1 3U2      0.068700
     27 H8          4.6450   -0.4040    3.1300 ho        1 3U2      0.440000
     28 H9          3.7210   -2.2000    1.1450 h1        1 3U2      0.074700
     29 H10         5.8570   -1.8510    0.5720 ho        1 3U2      0.422000
     30 H11         4.0550   -1.8460   -1.2980 hc        1 3U2      0.074700
     31 H12         4.0240   -0.0420   -1.0770 hc        1 3U2      0.074700
     32 H13         1.7010   -2.0070   -0.3300 hx        1 3U2      0.141700
     33 H14         0.6330   -0.7110   -2.2250 hn        1 3U2      0.457300
     34 H15         1.1350   -4.5580   -4.1970 ha        1 3U2      0.148000
     35 H16         0.0130   -4.8140   -6.4120 ha        1 3U2      0.169000
     36 H17        -0.6760   -2.7880   -7.7100 ha        1 3U2      0.169000
     37 H18        -0.2340   -0.5080   -6.7930 ha        1 3U2      0.169000
     38 H19         0.8730   -0.2260   -4.6150 ha        1 3U2      0.148000
     39 HAG2        2.1700   -0.3010   -2.7190 hn        1 3U2      0.457300
@<TRIPOS>BOND
     1    1    2 1   
     2    1   20 1   
     3    1   21 1   
     4    1   22 1   
     5    2    3 1   
     6    2   10 1   
     7    2   23 1   
     8    3    4 1   
     9    3    5 1   
    10    3   24 1   
    11    4   25 1   
    12    5    6 1   
    13    5    7 1   
    14    5   26 1   
    15    6   27 1   
    16    7    8 1   
    17    7    9 1   
    18    7   28 1   
    19    8   29 1   
    20    9   10 1   
    21    9   30 1   
    22    9   31 1   
    23   10   11 1   
    24   10   32 1   
    25   11   12 1   
    26   11   33 1   
    27   11   39 1   
    28   12   13 2   
    29   12   14 1   
    30   14   15 ar  
    31   14   19 ar  
    32   15   16 ar  
    33   15   34 1   
    34   16   17 ar  
    35   16   35 1   
    36   17   18 ar  
    37   17   36 1   
    38   18   19 ar  
    39   18   37 1   
    40   19   38 1   
@<TRIPOS>SUBSTRUCTURE
     1 3U2         1 TEMP              0 ****  ****    0 ROOT
