@<TRIPOS>MOLECULE
3U2
   39    40     1     0     0
SMALL
bcc


@<TRIPOS>ATOM
      1 CAK        -0.0080    0.2300   -0.0670 c3        1 3U2     -0.118100
      2 CAB         1.4980    0.1340    0.0410 c3        1 3U2     -0.081700
      3 CAC         1.8960   -0.0790    1.5120 c3        1 3U2      0.156100
      4 OAJ         1.3300   -1.3090    1.9310 oh        1 3U2     -0.613800
      5 CAD         3.4260   -0.0930    1.6590 c3        1 3U2      0.109100
      6 OAI         3.6780   -0.3810    3.0220 oh        1 3U2     -0.597800
      7 CAE         4.0450   -1.1850    0.7670 c3        1 3U2      0.115100
      8 OAH         5.4470   -1.0260    0.8830 oh        1 3U2     -0.588800
      9 CAF         3.6170   -1.0080   -0.6890 c3        1 3U2     -0.135400
     10 CAA         2.0890   -1.0330   -0.7760 c3        1 3U2      0.130500
     11 NAG         1.6250   -0.9970   -2.2090 ny        1 3U2     -0.677800
     12 CAL         1.7340   -2.3210   -2.9440 c         1 3U2      0.572700
     13 OAM         2.3490   -3.2130   -2.3770 o         1 3U2     -0.426100
     14 CAN         1.0630   -2.3840   -4.2430 ca        1 3U2     -0.211600
     15 CAO         0.8250   -3.6690   -4.7640 ca        1 3U2     -0.066500
     16 CAP         0.1970   -3.8110   -6.0010 ca        1 3U2     -0.123000
     17 CAQ        -0.1870   -2.6840   -6.7250 ca        1 3U2     -0.049000
     18 CAR         0.0590   -1.4050   -6.2130 ca        1 3U2     -0.123000
     19 CAS         0.6800   -1.2500   -4.9790 ca        1 3U2     -0.066500
     20 H1         -0.4780   -0.7730    0.0790 hc        1 3U2      0.059033
     21 H2         -0.4000    0.9050    0.7360 hc        1 3U2      0.059033
     22 H3         -0.3280    0.6610   -1.0460 hc        1 3U2      0.059033
     23 H4          1.9650    1.1010   -0.2970 hc        1 3U2      0.072700
     24 H5          1.4790    0.7620    2.1370 h1        1 3U2      0.081700
     25 H6          1.6170   -1.4510    2.8450 ho        1 3U2      0.448000
     26 H7          3.8570    0.9090    1.3870 h1        1 3U2      0.068700
     27 H8          4.6390   -0.4000    3.1330 ho        1 3U2      0.440000
     28 H9          3.7220   -2.1960    1.1450 h1        1 3U2      0.074700
     29 H10         5.8590   -1.8430    0.5760 ho        1 3U2      0.422000
     30 H11         4.0250   -0.0370   -1.0750 hc        1 3U2      0.074700
     31 H12         4.0600   -1.8410   -1.2970 hc        1 3U2      0.074700
     32 H13         1.7050   -2.0060   -0.3330 hx        1 3U2      0.141700
     33 H14         0.6380   -0.7100   -2.2290 hn        1 3U2      0.457300
     34 H15         1.1380   -4.5600   -4.1930 ha        1 3U2      0.148000
     35 H16         0.0100   -4.8210   -6.4040 ha        1 3U2      0.169000
     36 H17        -0.6830   -2.7970   -7.7040 ha        1 3U2      0.169000
     37 H18        -0.2380   -0.5150   -6.7930 ha        1 3U2      0.169000
     38 H19         0.8750   -0.2290   -4.6180 ha        1 3U2      0.148000
     39 HAG2        2.1760   -0.3000   -2.7200 hn        1 3U2      0.457300
@<TRIPOS>BOND
     1    1    2 1   
     2    1   20 1   
     3    1   21 1   
     4    1   22 1   
     5    2    3 1   
     6    2   10 1   
     7    2   23 1   
     8    3    4 1   
     9    3    5 1   
    10    3   24 1   
    11    4   25 1   
    12    5    6 1   
    13    5    7 1   
    14    5   26 1   
    15    6   27 1   
    16    7    8 1   
    17    7    9 1   
    18    7   28 1   
    19    8   29 1   
    20    9   10 1   
    21    9   30 1   
    22    9   31 1   
    23   10   11 1   
    24   10   32 1   
    25   11   12 1   
    26   11   33 1   
    27   11   39 1   
    28   12   13 2   
    29   12   14 1   
    30   14   15 ar  
    31   14   19 ar  
    32   15   16 ar  
    33   15   34 1   
    34   16   17 ar  
    35   16   35 1   
    36   17   18 ar  
    37   17   36 1   
    38   18   19 ar  
    39   18   37 1   
    40   19   38 1   
@<TRIPOS>SUBSTRUCTURE
     1 3U2         1 TEMP              0 ****  ****    0 ROOT
