@<TRIPOS>MOLECULE
3U3
   31    31     1     0     0
SMALL
bcc


@<TRIPOS>ATOM
      1 CAK        -0.0460    0.1050   -0.0400 c3        1 3U3     -0.086100
      2 CAB         1.4660    0.0540   -0.0050 c3        1 3U3     -0.067700
      3 CAC         1.9430    0.0640    1.4520 c3        1 3U3      0.154100
      4 OAJ         1.3810   -1.0580    2.1150 oh        1 3U3     -0.600800
      5 CAD         3.4790    0.0400    1.5230 c3        1 3U3      0.110100
      6 OAI         3.8130   -0.0220    2.9010 oh        1 3U3     -0.613800
      7 CAE         4.0230   -1.1850    0.7730 c3        1 3U3      0.109100
      8 OAH         5.4390   -1.1010    0.8690 oh        1 3U3     -0.614800
      9 CAF         3.5600   -1.1700   -0.6750 c3        1 3U3     -0.131400
     10 CAA         2.0210   -1.1910   -0.7340 c3        1 3U3      0.114700
     11 NAG         1.5300   -1.3000   -2.0880 n         1 3U3     -0.575900
     12 CAL         1.5190   -2.5000   -2.7710 c         1 3U3      0.658100
     13 OAM         1.9250   -3.5520   -2.2380 o         1 3U3     -0.610100
     14 CAN         0.9820   -2.4860   -4.1820 c3        1 3U3     -0.175100
     15 H1         -0.4700   -0.8540    0.3460 hc        1 3U3      0.042700
     16 H2         -0.4220    0.2770   -1.0760 hc        1 3U3      0.042700
     17 H3         -0.4150    0.9380    0.6070 hc        1 3U3      0.042700
     18 H4          1.8820    0.9790   -0.4940 hc        1 3U3      0.048700
     19 H5          1.5790    1.0040    1.9580 h1        1 3U3      0.050700
     20 H6          1.7980   -1.0990    2.9870 ho        1 3U3      0.423000
     21 H7          3.9040    0.9800    1.0760 h1        1 3U3      0.055700
     22 H8          4.7630   -0.1950    2.9480 ho        1 3U3      0.428000
     23 H9          3.6660   -2.1220    1.2890 h1        1 3U3      0.063700
     24 H10         5.7980   -1.8530    0.3830 ho        1 3U3      0.413000
     25 H11         3.9630   -2.0750   -1.2020 hc        1 3U3      0.058700
     26 H12         3.9650   -0.2620   -1.1900 hc        1 3U3      0.058700
     27 H13         1.6680   -2.1100   -0.1690 h1        1 3U3      0.097700
     28 H14         1.2800   -0.4660   -2.5590 hn        1 3U3      0.307500
     29 H15         1.5830   -1.8000   -4.8260 hc        1 3U3      0.065367
     30 H16        -0.0840   -2.1560   -4.1910 hc        1 3U3      0.065367
     31 H17         1.0440   -3.5220   -4.5980 hc        1 3U3      0.065367
@<TRIPOS>BOND
     1    1    2 1   
     2    1   15 1   
     3    1   16 1   
     4    1   17 1   
     5    2    3 1   
     6    2   10 1   
     7    2   18 1   
     8    3    4 1   
     9    3    5 1   
    10    3   19 1   
    11    4   20 1   
    12    5    6 1   
    13    5    7 1   
    14    5   21 1   
    15    6   22 1   
    16    7    8 1   
    17    7    9 1   
    18    7   23 1   
    19    8   24 1   
    20    9   10 1   
    21    9   25 1   
    22    9   26 1   
    23   10   11 1   
    24   10   27 1   
    25   11   12 1   
    26   11   28 1   
    27   12   13 2   
    28   12   14 1   
    29   14   29 1   
    30   14   30 1   
    31   14   31 1   
@<TRIPOS>SUBSTRUCTURE
     1 3U3         1 TEMP              0 ****  ****    0 ROOT
