@<TRIPOS>MOLECULE
3U3
   32    32     1     0     0
SMALL
bcc


@<TRIPOS>ATOM
      1 CAK        -0.1680    0.2300    0.2880 c3        1 3U3     -0.120100
      2 CAB         1.3270    0.1090    0.0950 c3        1 3U3     -0.080700
      3 CAC         2.0260    0.0580    1.4640 c3        1 3U3      0.155100
      4 OAJ         1.5670   -1.1050    2.1310 oh        1 3U3     -0.612800
      5 CAD         3.5530    0.0230    1.2830 c3        1 3U3      0.109100
      6 OAI         4.0910   -0.1070    2.5850 oh        1 3U3     -0.594800
      7 CAE         3.9660   -1.1870    0.4240 c3        1 3U3      0.115100
      8 OAH         5.3590   -1.0520    0.2100 oh        1 3U3     -0.585800
      9 CAF         3.2370   -1.1750   -0.9210 c3        1 3U3     -0.135400
     10 CAA         1.7280   -1.1630   -0.6790 c3        1 3U3      0.126500
     11 NAG         0.9630   -1.2810   -1.9760 n4        1 3U3     -0.686800
     12 CAL         1.2010   -2.6150   -2.6570 c         1 3U3      0.551100
     13 OAM         0.7340   -3.5900   -2.0920 o         1 3U3     -0.395100
     14 CAN         1.9570   -2.5620   -3.9400 c3        1 3U3     -0.190100
     15 H1         -0.3850    1.0270    1.0430 hc        1 3U3      0.061700
     16 H2         -0.6850    0.5190   -0.6590 hc        1 3U3      0.061700
     17 H3         -0.5950   -0.7270    0.6780 hc        1 3U3      0.061700
     18 H4          1.7150    1.0160   -0.4490 hc        1 3U3      0.074700
     19 H5          1.7500    0.9740    2.0600 h1        1 3U3      0.085700
     20 H6          2.0150   -1.1300    2.9900 ho        1 3U3      0.449000
     21 H7          3.9150    0.9730    0.8030 h1        1 3U3      0.070700
     22 H8          5.0550   -0.1030    2.4950 ho        1 3U3      0.440000
     23 H9          3.7300   -2.1340    0.9860 h1        1 3U3      0.075700
     24 H10         5.7140   -1.9310    0.0270 ho        1 3U3      0.422000
     25 H11         3.5600   -0.2710   -1.5000 hc        1 3U3      0.067200
     26 H12         3.5400   -2.0860   -1.5010 hc        1 3U3      0.067200
     27 H13         1.4320   -2.0660   -0.0540 hx        1 3U3      0.144700
     28 H14        -0.0380   -1.1920   -1.7530 hn        1 3U3      0.458800
     29 H15         2.9450   -2.0520   -3.8060 hc        1 3U3      0.114700
     30 H16         1.3650   -2.0210   -4.7220 hc        1 3U3      0.114700
     31 H17         2.1360   -3.6130   -4.2930 hc        1 3U3      0.114700
     32 HAG2        1.2330   -0.5160   -2.6000 hn        1 3U3      0.458800
@<TRIPOS>BOND
     1    1    2 1   
     2    1   15 1   
     3    1   16 1   
     4    1   17 1   
     5    2    3 1   
     6    2   10 1   
     7    2   18 1   
     8    3    4 1   
     9    3    5 1   
    10    3   19 1   
    11    4   20 1   
    12    5    6 1   
    13    5    7 1   
    14    5   21 1   
    15    6   22 1   
    16    7    8 1   
    17    7    9 1   
    18    7   23 1   
    19    8   24 1   
    20    9   10 1   
    21    9   25 1   
    22    9   26 1   
    23   10   11 1   
    24   10   27 1   
    25   11   12 1   
    26   11   28 1   
    27   11   32 1   
    28   12   13 2   
    29   12   14 1   
    30   14   29 1   
    31   14   30 1   
    32   14   31 1   
@<TRIPOS>SUBSTRUCTURE
     1 3U3         1 TEMP              0 ****  ****    0 ROOT
