@<TRIPOS>MOLECULE
3U3
   32    32     1     0     0
SMALL
bcc


@<TRIPOS>ATOM
      1 CAK        -0.1800    0.2100    0.2800 c3        1 3U3     -0.120100
      2 CAB         1.3170    0.1000    0.0950 c3        1 3U3     -0.080700
      3 CAC         2.0080    0.0450    1.4680 c3        1 3U3      0.155100
      4 OAJ         1.5520   -1.1250    2.1250 oh        1 3U3     -0.612800
      5 CAD         3.5360    0.0210    1.2960 c3        1 3U3      0.109100
      6 OAI         4.0670   -0.1130    2.6000 oh        1 3U3     -0.594800
      7 CAE         3.9620   -1.1810    0.4320 c3        1 3U3      0.115100
      8 OAH         5.3550   -1.0360    0.2260 oh        1 3U3     -0.585800
      9 CAF         3.2400   -1.1660   -0.9170 c3        1 3U3     -0.135400
     10 CAA         1.7290   -1.1650   -0.6840 c3        1 3U3      0.126500
     11 NAG         0.9730   -1.2800   -1.9860 ny        1 3U3     -0.686800
     12 CAL         1.2230   -2.6080   -2.6740 c         1 3U3      0.551100
     13 OAM         0.7580   -3.5890   -2.1180 o         1 3U3     -0.395100
     14 CAN         1.9870   -2.5430   -3.9510 c3        1 3U3     -0.190100
     15 H1         -0.4070    1.0020    1.0390 hc        1 3U3      0.061700
     16 H2         -0.6940    0.5020   -0.6680 hc        1 3U3      0.061700
     17 H3         -0.6030   -0.7520    0.6620 hc        1 3U3      0.061700
     18 H4          1.7010    1.0130   -0.4410 hc        1 3U3      0.074700
     19 H5          1.7230    0.9560    2.0670 h1        1 3U3      0.085700
     20 H6          1.9960   -1.1520    2.9870 ho        1 3U3      0.449000
     21 H7          3.8950    0.9760    0.8230 h1        1 3U3      0.070700
     22 H8          5.0320   -0.1020    2.5150 ho        1 3U3      0.440000
     23 H9          3.7280   -2.1330    0.9870 h1        1 3U3      0.075700
     24 H10         5.7170   -1.9110    0.0400 ho        1 3U3      0.422000
     25 H11         3.5520   -2.0710   -1.5010 hc        1 3U3      0.067200
     26 H12         3.5610   -0.2560   -1.4890 hc        1 3U3      0.067200
     27 H13         1.4360   -2.0730   -0.0660 hx        1 3U3      0.144700
     28 H14         1.2420   -0.5100   -2.6040 hn        1 3U3      0.458800
     29 H15         2.1760   -3.5910   -4.3090 hc        1 3U3      0.114700
     30 H16         2.9710   -2.0270   -3.8090 hc        1 3U3      0.114700
     31 H17         1.3960   -2.0020   -4.7340 hc        1 3U3      0.114700
     32 HAG2       -0.0300   -1.1980   -1.7680 hn        1 3U3      0.458800
@<TRIPOS>BOND
     1    1    2 1   
     2    1   15 1   
     3    1   16 1   
     4    1   17 1   
     5    2    3 1   
     6    2   10 1   
     7    2   18 1   
     8    3    4 1   
     9    3    5 1   
    10    3   19 1   
    11    4   20 1   
    12    5    6 1   
    13    5    7 1   
    14    5   21 1   
    15    6   22 1   
    16    7    8 1   
    17    7    9 1   
    18    7   23 1   
    19    8   24 1   
    20    9   10 1   
    21    9   25 1   
    22    9   26 1   
    23   10   11 1   
    24   10   27 1   
    25   11   12 1   
    26   11   28 1   
    27   11   32 1   
    28   12   13 2   
    29   12   14 1   
    30   14   29 1   
    31   14   30 1   
    32   14   31 1   
@<TRIPOS>SUBSTRUCTURE
     1 3U3         1 TEMP              0 ****  ****    0 ROOT
