@<TRIPOS>MOLECULE
3U5
   38    42     1     0     0
SMALL
bcc


@<TRIPOS>ATOM
      1 C12         0.0320   -0.1180    0.0220 ca        1 3U5     -0.078000
      2 C11         1.4530   -0.1210    0.0970 ca        1 3U5     -0.145300
      3 C16         2.1380   -0.3330    1.3210 ca        1 3U5     -0.112000
      4 C15         3.5110   -0.3270    1.3580 ca        1 3U5     -0.123000
      5 C14         4.2560   -0.1090    0.1750 ca        1 3U5     -0.120000
      6 C13         3.6270    0.1010   -1.0280 ca        1 3U5     -0.163300
      7 C10         2.1980    0.1020   -1.1020 ca        1 3U5      0.396600
      8 N3          1.5690    0.3150   -2.3170 nb        1 3U5     -0.650000
      9 C9          0.2530    0.3090   -2.3460 ca        1 3U5      0.430200
     10 C8         -0.5850    0.0960   -1.1930 ca        1 3U5     -0.147100
     11 C7         -2.0180    0.1170   -1.3520 cc        1 3U5     -0.060300
     12 C2         -2.8450    0.8910   -2.2140 ca        1 3U5     -0.102000
     13 C3         -2.6260    1.8970   -3.1720 ca        1 3U5     -0.086000
     14 N2         -2.9000   -0.6900   -0.6230 na        1 3U5      0.060800
     15 N1         -4.1760   -0.5180   -0.9290 nc        1 3U5     -0.260400
     16 C1         -4.2080    0.4510   -1.9070 ca        1 3U5     -0.082000
     17 C6         -5.3020    1.0370   -2.6030 ca        1 3U5     -0.085000
     18 C5         -5.0420    2.0020   -3.5350 ca        1 3U5     -0.112000
     19 C4         -3.7100    2.4480   -3.8280 ca        1 3U5     -0.001000
     20 C17        -3.5240    3.4790   -4.8180 cc        1 3U5     -0.157400
     21 S1         -2.1260    3.6400   -5.7570 ss        1 3U5     -0.121300
     22 C19        -4.4380    4.4750   -5.1560 cd        1 3U5      0.368200
     23 N4         -4.0550    5.3370   -6.1580 nd        1 3U5     -0.692000
     24 C18        -2.8130    5.0120   -6.5860 cc        1 3U5      0.604300
     25 N5         -2.0460    5.7300   -7.5030 nh        1 3U5     -0.887500
     26 H1         -0.5460   -0.2750    0.9450 ha        1 3U5      0.137000
     27 H2          1.5490   -0.4990    2.2350 ha        1 3U5      0.135000
     28 H3          4.0470   -0.4900    2.3050 ha        1 3U5      0.138000
     29 H4          5.3550   -0.1100    0.2310 ha        1 3U5      0.138000
     30 H5          4.2090    0.2710   -1.9470 ha        1 3U5      0.153000
     31 H6         -0.2230    0.4760   -3.3320 h4        1 3U5      0.033100
     32 H7         -1.6010    2.2410   -3.3790 ha        1 3U5      0.140000
     33 H8         -2.6380   -1.3630    0.0630 hn        1 3U5      0.324700
     34 H9         -6.3260    0.7050   -2.3820 ha        1 3U5      0.148000
     35 H10        -5.8720    2.4650   -4.0930 ha        1 3U5      0.137000
     36 H11        -5.4220    4.6220   -4.6950 h4        1 3U5      0.045100
     37 H12        -1.6560    5.1480   -8.2160 hn        1 3U5      0.398300
     38 H13        -2.5070    6.5330   -7.8820 hn        1 3U5      0.398300
@<TRIPOS>BOND
     1    1    2 ar  
     2    1   10 ar  
     3    1   26 1   
     4    2    3 ar  
     5    2    7 ar  
     6    3    4 ar  
     7    3   27 1   
     8    4    5 ar  
     9    4   28 1   
    10    5    6 ar  
    11    5   29 1   
    12    6    7 ar  
    13    6   30 1   
    14    7    8 ar  
    15    8    9 ar  
    16    9   10 ar  
    17    9   31 1   
    18   10   11 1   
    19   11   12 2   
    20   11   14 1   
    21   12   13 ar  
    22   12   16 ar  
    23   13   19 ar  
    24   13   32 1   
    25   14   15 1   
    26   14   33 1   
    27   15   16 2   
    28   16   17 ar  
    29   17   18 ar  
    30   17   34 1   
    31   18   19 ar  
    32   18   35 1   
    33   19   20 1   
    34   20   21 1   
    35   20   22 2   
    36   21   24 1   
    37   22   23 1   
    38   22   36 1   
    39   23   24 2   
    40   24   25 1   
    41   25   37 1   
    42   25   38 1   
@<TRIPOS>SUBSTRUCTURE
     1 3U5         1 TEMP              0 ****  ****    0 ROOT
