@<TRIPOS>MOLECULE
3U6
   47    51     1     0     0
SMALL
bcc


@<TRIPOS>ATOM
      1 C17        -0.3710   -1.1000    0.6840 c3        1 3U6     -0.095900
      2 C18         1.1230   -1.2590    0.4490 c3        1 3U6     -0.079400
      3 C19         1.8490   -0.4540    1.5190 c3        1 3U6     -0.079400
      4 C20         0.7980    0.1540    2.4340 c3        1 3U6     -0.095900
      5 C16        -0.5380    0.0870    1.6600 c3        1 3U6      0.185500
      6 N6         -1.6830    0.0260    2.5520 nh        1 3U6     -0.808900
      7 C15        -2.9550    0.2760    1.9680 ca        1 3U6      0.622200
      8 N5         -3.9540   -0.6390    2.1610 nb        1 3U6     -0.718000
      9 C14        -3.1870    1.5080    1.2860 ca        1 3U6     -0.270300
     10 C13        -4.4650    1.7780    0.8130 ca        1 3U6     -0.072000
     11 C12        -5.4880    0.8550    1.0140 ca        1 3U6     -0.282300
     12 C9         -5.1940   -0.3470    1.7020 ca        1 3U6      0.532100
     13 C8         -6.2620   -1.3100    1.9170 cc        1 3U6     -0.197000
     14 C2         -6.1450   -2.7430    2.1160 ca        1 3U6     -0.069800
     15 C3         -5.0740   -3.6360    2.1610 ca        1 3U6     -0.014000
     16 C7         -7.6260   -0.9990    1.9720 cd        1 3U6     -0.088100
     17 N1         -8.3720   -2.1570    2.1850 na        1 3U6     -0.184400
     18 C1         -7.4950   -3.2380    2.2810 ca        1 3U6     -0.044200
     19 C6         -7.7460   -4.6040    2.4900 ca        1 3U6     -0.146000
     20 C5         -6.6610   -5.4600    2.5320 ca        1 3U6     -0.104000
     21 C4         -5.3340   -4.9930    2.3680 ca        1 3U6     -0.167500
     22 C10        -4.2500   -5.9550    2.4220 cc        1 3U6      0.423900
     23 S1         -4.5190   -7.6110    2.8500 ss        1 3U6     -0.219800
     24 N3         -2.9470   -5.6950    2.1560 nd        1 3U6     -0.304000
     25 N2         -2.1640   -6.7240    2.2490 nd        1 3U6     -0.375000
     26 C11        -2.8110   -7.8770    2.6200 cc        1 3U6      0.560300
     27 N4         -2.2130   -9.0960    2.9130 nh        1 3U6     -0.882500
     28 H1         -0.7950   -2.0400    1.1200 hc        1 3U6      0.051950
     29 H2         -0.9140   -0.8980   -0.2710 hc        1 3U6      0.051950
     30 H3          1.4000   -0.8880   -0.5700 hc        1 3U6      0.042450
     31 H4          1.4130   -2.3380    0.4990 hc        1 3U6      0.042450
     32 H5          2.5460   -1.1060    2.1030 hc        1 3U6      0.042450
     33 H6          2.4660    0.3510    1.0460 hc        1 3U6      0.042450
     34 H7          0.7400   -0.4220    3.3920 hc        1 3U6      0.051950
     35 H8          1.0410    1.2130    2.6920 hc        1 3U6      0.051950
     36 H9         -0.6310    1.0310    1.0470 h1        1 3U6      0.058700
     37 H10        -1.6670   -0.8150    3.1030 hn        1 3U6      0.399800
     38 H11        -2.3770    2.2370    1.1520 ha        1 3U6      0.147000
     39 H12        -4.6680    2.7210    0.2840 ha        1 3U6      0.134000
     40 H13        -6.5010    1.0450    0.6400 ha        1 3U6      0.137000
     41 H14        -4.0430   -3.2690    2.0380 ha        1 3U6      0.177000
     42 H15        -8.1170   -0.0280    1.8810 h4        1 3U6      0.170000
     43 H16        -9.3500   -2.2020    2.2930 hn        1 3U6      0.301700
     44 H17        -8.7700   -4.9800    2.6170 ha        1 3U6      0.135000
     45 H18        -6.8330   -6.5360    2.6960 ha        1 3U6      0.129000
     46 H19        -2.6480   -9.8640    2.4450 hn        1 3U6      0.401300
     47 H20        -1.2180   -9.1010    2.8100 hn        1 3U6      0.401300
@<TRIPOS>BOND
     1    1    2 1   
     2    1    5 1   
     3    1   28 1   
     4    1   29 1   
     5    2    3 1   
     6    2   30 1   
     7    2   31 1   
     8    3    4 1   
     9    3   32 1   
    10    3   33 1   
    11    4    5 1   
    12    4   34 1   
    13    4   35 1   
    14    5    6 1   
    15    5   36 1   
    16    6    7 1   
    17    6   37 1   
    18    7    8 ar  
    19    7    9 ar  
    20    8   12 ar  
    21    9   10 ar  
    22    9   38 1   
    23   10   11 ar  
    24   10   39 1   
    25   11   12 ar  
    26   11   40 1   
    27   12   13 1   
    28   13   14 1   
    29   13   16 2   
    30   14   15 ar  
    31   14   18 ar  
    32   15   21 ar  
    33   15   41 1   
    34   16   17 1   
    35   16   42 1   
    36   17   18 1   
    37   17   43 1   
    38   18   19 ar  
    39   19   20 ar  
    40   19   44 1   
    41   20   21 ar  
    42   20   45 1   
    43   21   22 1   
    44   22   23 1   
    45   22   24 2   
    46   23   26 1   
    47   24   25 1   
    48   25   26 2   
    49   26   27 1   
    50   27   46 1   
    51   27   47 1   
@<TRIPOS>SUBSTRUCTURE
     1 3U6         1 TEMP              0 ****  ****    0 ROOT
