@<TRIPOS>MOLECULE
3U6
   47    51     1     0     0
SMALL
bcc


@<TRIPOS>ATOM
      1 C17        -0.3760   -1.0920    0.6730 c3        1 3U6     -0.095900
      2 C18         1.1160   -1.2510    0.4320 c3        1 3U6     -0.079400
      3 C19         1.8470   -0.4560    1.5060 c3        1 3U6     -0.079400
      4 C20         0.7990    0.1470    2.4280 c3        1 3U6     -0.095900
      5 C16        -0.5390    0.0870    1.6570 c3        1 3U6      0.185500
      6 N6         -1.6820    0.0210    2.5520 nu        1 3U6     -0.808900
      7 C15        -2.9550    0.2750    1.9730 ca        1 3U6      0.622200
      8 N5         -3.9530   -0.6420    2.1630 nb        1 3U6     -0.718000
      9 C14        -3.1890    1.5100    1.2980 ca        1 3U6     -0.270300
     10 C13        -4.4680    1.7820    0.8290 ca        1 3U6     -0.072000
     11 C12        -5.4910    0.8580    1.0280 ca        1 3U6     -0.282300
     12 C9         -5.1950   -0.3470    1.7090 ca        1 3U6      0.532100
     13 C8         -6.2620   -1.3120    1.9210 cc        1 3U6     -0.197000
     14 C2         -6.1450   -2.7450    2.1160 ca        1 3U6     -0.069800
     15 C3         -5.0730   -3.6380    2.1580 ca        1 3U6     -0.014000
     16 C7         -7.6260   -1.0020    1.9780 cd        1 3U6     -0.088100
     17 N1         -8.3720   -2.1600    2.1880 na        1 3U6     -0.184400
     18 C1         -7.4940   -3.2420    2.2800 ca        1 3U6     -0.044200
     19 C6         -7.7440   -4.6090    2.4860 ca        1 3U6     -0.146000
     20 C5         -6.6590   -5.4630    2.5250 ca        1 3U6     -0.104000
     21 C4         -5.3320   -4.9950    2.3620 ca        1 3U6     -0.167500
     22 C10        -4.2470   -5.9560    2.4150 cc        1 3U6      0.423900
     23 S1         -4.5050   -7.6000    2.8960 ss        1 3U6     -0.219800
     24 N3         -2.9510   -5.7040    2.1100 nd        1 3U6     -0.303000
     25 N2         -2.1660   -6.7310    2.2120 nd        1 3U6     -0.375000
     26 C11        -2.8040   -7.8730    2.6310 cc        1 3U6      0.561300
     27 N4         -2.1990   -9.0840    2.9430 nv        1 3U6     -0.882500
     28 H1         -0.8000   -2.0350    1.1030 hc        1 3U6      0.051950
     29 H2         -0.9220   -0.8830   -0.2800 hc        1 3U6      0.051950
     30 H3          1.4060   -2.3310    0.4720 hc        1 3U6      0.042700
     31 H4          1.3910   -0.8730   -0.5850 hc        1 3U6      0.042700
     32 H5          2.5440   -1.1130    2.0830 hc        1 3U6      0.042700
     33 H6          2.4640    0.3520    1.0380 hc        1 3U6      0.042700
     34 H7          1.0440    1.2040    2.6940 hc        1 3U6      0.051950
     35 H8          0.7430   -0.4360    3.3820 hc        1 3U6      0.051950
     36 H9         -0.6320    1.0360    1.0520 h1        1 3U6      0.058700
     37 H10        -1.6650   -0.8220    3.0990 hn        1 3U6      0.399800
     38 H11        -2.3790    2.2390    1.1650 ha        1 3U6      0.147000
     39 H12        -4.6720    2.7280    0.3050 ha        1 3U6      0.134000
     40 H13        -6.5050    1.0490    0.6570 ha        1 3U6      0.137000
     41 H14        -4.0420   -3.2710    2.0350 ha        1 3U6      0.177000
     42 H15        -8.1180   -0.0310    1.8900 h4        1 3U6      0.170000
     43 H16        -9.3500   -2.2070    2.2960 hn        1 3U6      0.301700
     44 H17        -8.7680   -4.9850    2.6120 ha        1 3U6      0.135000
     45 H18        -6.8300   -6.5410    2.6860 ha        1 3U6      0.129000
     46 H19        -2.6460   -9.8650    2.5090 hn        1 3U6      0.401300
     47 H20        -1.2060   -9.0940    2.8130 hn        1 3U6      0.401300
@<TRIPOS>BOND
     1    1    2 1   
     2    1    5 1   
     3    1   28 1   
     4    1   29 1   
     5    2    3 1   
     6    2   30 1   
     7    2   31 1   
     8    3    4 1   
     9    3   32 1   
    10    3   33 1   
    11    4    5 1   
    12    4   34 1   
    13    4   35 1   
    14    5    6 1   
    15    5   36 1   
    16    6    7 1   
    17    6   37 1   
    18    7    8 ar  
    19    7    9 ar  
    20    8   12 ar  
    21    9   10 ar  
    22    9   38 1   
    23   10   11 ar  
    24   10   39 1   
    25   11   12 ar  
    26   11   40 1   
    27   12   13 1   
    28   13   14 1   
    29   13   16 2   
    30   14   15 ar  
    31   14   18 ar  
    32   15   21 ar  
    33   15   41 1   
    34   16   17 1   
    35   16   42 1   
    36   17   18 1   
    37   17   43 1   
    38   18   19 ar  
    39   19   20 ar  
    40   19   44 1   
    41   20   21 ar  
    42   20   45 1   
    43   21   22 1   
    44   22   23 1   
    45   22   24 2   
    46   23   26 1   
    47   24   25 1   
    48   25   26 2   
    49   26   27 1   
    50   27   46 1   
    51   27   47 1   
@<TRIPOS>SUBSTRUCTURE
     1 3U6         1 TEMP              0 ****  ****    0 ROOT
