@<TRIPOS>MOLECULE
3U7
   39    40     1     0     0
SMALL
bcc


@<TRIPOS>ATOM
      1 C3         -0.2050    0.2620    0.4220 c         1 3U7      0.913600
      2 C4          1.3190    0.1950    0.1900 c3        1 3U7     -0.202400
      3 C5          2.0590    0.0060    1.4920 c3        1 3U7     -0.069400
      4 C6          3.5420    0.2490    1.2790 c3        1 3U7      0.124400
      5 C8          5.5510    0.0290    2.5560 ca        1 3U7      0.190100
      6 C9          6.3210    0.4940    1.4770 ca        1 3U7     -0.213000
      7 C10         7.6990    0.5990    1.5960 ca        1 3U7     -0.053000
      8 C11         8.3450    0.2360    2.7810 ca        1 3U7     -0.215600
      9 C12         7.5830   -0.2140    3.8680 ca        1 3U7      0.074400
     10 O1         -0.6320    0.9700    1.3770 o         1 3U7     -0.842300
     11 O2         -0.9420   -0.3810   -0.3770 o         1 3U7     -0.842300
     12 O7          4.1940   -0.1100    2.5170 os        1 3U7     -0.303900
     13 C13         6.1900   -0.3260    3.7730 ca        1 3U7     -0.030600
     14 Cl1         5.2900   -0.8750    5.0990 cl        1 3U7     -0.044400
     15 Cl2         8.3690   -0.6130    5.3260 cl        1 3U7     -0.082400
     16 C16         9.8230    0.3420    2.8510 c         1 3U7      0.605700
     17 O17        10.3970    1.4290    2.9850 o         1 3U7     -0.551100
     18 C18        10.5550   -0.9630    2.6980 c3        1 3U7     -0.185400
     19 C19        12.0240   -0.9020    3.0640 c3        1 3U7     -0.095700
     20 C20        12.8700   -0.3910    1.9480 cc        1 3U7      0.381800
     21 N21        12.8810    0.9610    1.5630 na        1 3U7     -0.298900
     22 C22        13.7780    1.0790    0.5090 cc        1 3U7     -0.263600
     23 C23        14.2960   -0.2140    0.2870 cd        1 3U7      0.281200
     24 N24        13.7300   -1.1160    1.1790 nd        1 3U7     -0.672000
     25 H1          1.5500   -0.6400   -0.5180 hc        1 3U7      0.022200
     26 H2          1.6280    1.1560   -0.2940 hc        1 3U7      0.022200
     27 H3          1.8990   -1.0320    1.8830 hc        1 3U7      0.067700
     28 H4          1.6530    0.7200    2.2570 hc        1 3U7      0.067700
     29 H5          3.7500    1.3280    1.0580 h1        1 3U7      0.034200
     30 H6          3.9470   -0.3970    0.4580 h1        1 3U7      0.034200
     31 H7          5.8360    0.7830    0.5320 ha        1 3U7      0.158000
     32 H8          8.2930    0.9750    0.7480 ha        1 3U7      0.140000
     33 H16        10.0480   -1.7250    3.3510 hc        1 3U7      0.086700
     34 H17        10.4310   -1.3020    1.6340 hc        1 3U7      0.086700
     35 H18        12.1630   -0.2440    3.9640 hc        1 3U7      0.071700
     36 H19        12.3740   -1.9350    3.3350 hc        1 3U7      0.071700
     37 H20        12.3210    1.6740    1.9600 hn        1 3U7      0.323700
     38 H21        13.9780    2.0260    0.0140 h4        1 3U7      0.173000
     39 H22        15.0280   -0.5290   -0.4530 h4        1 3U7      0.035100
@<TRIPOS>BOND
     1    1    2 1   
     2    1   10 1   
     3    1   11 1   
     4    2    3 1   
     5    2   25 1   
     6    2   26 1   
     7    3    4 1   
     8    3   27 1   
     9    3   28 1   
    10    4   12 1   
    11    4   29 1   
    12    4   30 1   
    13    5    6 ar  
    14    5   12 1   
    15    5   13 ar  
    16    6    7 ar  
    17    6   31 1   
    18    7    8 ar  
    19    7   32 1   
    20    8    9 ar  
    21    8   16 1   
    22    9   13 ar  
    23    9   15 1   
    24   13   14 1   
    25   16   17 2   
    26   16   18 1   
    27   18   19 1   
    28   18   33 1   
    29   18   34 1   
    30   19   20 1   
    31   19   35 1   
    32   19   36 1   
    33   20   21 1   
    34   20   24 2   
    35   21   22 1   
    36   21   37 1   
    37   22   23 2   
    38   22   38 1   
    39   23   24 1   
    40   23   39 1   
@<TRIPOS>SUBSTRUCTURE
     1 3U7         1 TEMP              0 ****  ****    0 ROOT
