@<TRIPOS>MOLECULE
3U8
   39    40     1     0     0
SMALL
bcc


@<TRIPOS>ATOM
      1 C11        -0.0360   -0.1660   -0.0670 ca        1 3U8     -0.233600
      2 C12         1.3500    0.0480   -0.0040 ca        1 3U8     -0.039000
      3 C13         2.0080    0.1300    1.2190 ca        1 3U8     -0.045600
      4 C8          1.2730   -0.0100    2.4240 ca        1 3U8      0.199100
      5 C5          2.1900    0.1840    5.9520 c3        1 3U8     -0.069400
      6 C6          1.2060   -0.0090    4.8120 c3        1 3U8      0.123400
      7 C4          1.4420    0.2820    7.2590 c3        1 3U8     -0.202400
      8 O1          3.2980   -0.7060    8.4420 o         1 3U8     -0.843300
      9 O2          2.2320    1.0060    9.4070 o         1 3U8     -0.843300
     10 C3          2.4070    0.1900    8.4600 c         1 3U8      0.913600
     11 O7          1.9710    0.0900    3.5910 os        1 3U8     -0.302900
     12 C9         -0.1130   -0.2410    2.3550 ca        1 3U8     -0.230000
     13 C10        -0.7540   -0.3160    1.1260 ca        1 3U8     -0.051000
     14 Cl1         3.6850    0.3980    1.2240 cl        1 3U8     -0.070400
     15 C16        -0.6830   -0.2200   -1.3880 c         1 3U8      0.587700
     16 O17        -0.0320   -0.2050   -2.4420 o         1 3U8     -0.554100
     17 C18        -2.1880   -0.2760   -1.4020 c3        1 3U8     -0.180400
     18 C19        -2.7440   -0.1970   -2.8110 c3        1 3U8     -0.101700
     19 C20        -4.2300   -0.0850   -2.7960 cc        1 3U8      0.395800
     20 N21        -4.8980    1.0910   -2.4050 na        1 3U8     -0.316900
     21 C22        -6.2640    0.8440   -2.5150 cc        1 3U8     -0.262600
     22 C23        -6.3840   -0.4820   -2.9740 cd        1 3U8      0.289200
     23 N24        -5.1250   -1.0470   -3.1440 nd        1 3U8     -0.665000
     24 H1          1.9140    0.1520   -0.9480 ha        1 3U8      0.162000
     25 H2          2.9080   -0.6770    5.9980 hc        1 3U8      0.067200
     26 H3          2.7910    1.1130    5.7780 hc        1 3U8      0.067200
     27 H4          0.4210    0.7910    4.8140 h1        1 3U8      0.034200
     28 H5          0.7250   -1.0200    4.8560 h1        1 3U8      0.034200
     29 H6          0.7100   -0.5600    7.3500 hc        1 3U8      0.022200
     30 H7          0.8730    1.2440    7.3150 hc        1 3U8      0.022200
     31 H9         -0.6990   -0.3650    3.2770 ha        1 3U8      0.153000
     32 H10        -1.8390   -0.5010    1.1050 ha        1 3U8      0.130000
     33 H14        -2.5170   -1.2360   -0.9210 hc        1 3U8      0.070700
     34 H15        -2.5820    0.5700   -0.7790 hc        1 3U8      0.070700
     35 H16        -2.4400   -1.1120   -3.3860 hc        1 3U8      0.078700
     36 H17        -2.3010    0.6880   -3.3440 hc        1 3U8      0.078700
     37 H18        -4.4750    1.9270   -2.1050 hn        1 3U8      0.299700
     38 H19        -7.0150    1.5910   -2.2700 h4        1 3U8      0.173000
     39 H20        -7.2920   -1.0440   -3.1840 h4        1 3U8      0.038100
@<TRIPOS>BOND
     1    1    2 ar  
     2    1   13 ar  
     3    1   15 1   
     4    2    3 ar  
     5    2   24 1   
     6    3    4 ar  
     7    3   14 1   
     8    4   11 1   
     9    4   12 ar  
    10    5    6 1   
    11    5    7 1   
    12    5   25 1   
    13    5   26 1   
    14    6   11 1   
    15    6   27 1   
    16    6   28 1   
    17    7   10 1   
    18    7   29 1   
    19    7   30 1   
    20    8   10 1   
    21    9   10 1   
    22   12   13 ar  
    23   12   31 1   
    24   13   32 1   
    25   15   16 2   
    26   15   17 1   
    27   17   18 1   
    28   17   33 1   
    29   17   34 1   
    30   18   19 1   
    31   18   35 1   
    32   18   36 1   
    33   19   20 1   
    34   19   23 2   
    35   20   21 1   
    36   20   37 1   
    37   21   22 2   
    38   21   38 1   
    39   22   23 1   
    40   22   39 1   
@<TRIPOS>SUBSTRUCTURE
     1 3U8         1 TEMP              0 ****  ****    0 ROOT
