@<TRIPOS>MOLECULE
3U9
   44    45     1     0     0
SMALL
bcc


@<TRIPOS>ATOM
      1 C14         0.3650    0.3030   -0.3450 c2        1 3U9     -0.103000
      2 C11         1.0940    1.0660    0.4290 c1        1 3U9      0.086000
      3 C6         -1.5040    1.0330    6.6900 c2        1 3U9     -0.052000
      4 C13         0.2760    0.4800    2.4870 c2        1 3U9      0.110000
      5 C4         -1.5460    2.9330    8.2240 c1        1 3U9     -0.047000
      6 C24        -4.4040    2.1030    8.8480 c2        1 3U9     -0.159000
      7 C5         -2.2280    1.8960    7.4900 c2        1 3U9     -0.125000
      8 C10        -0.7500   -0.2310    1.7960 c2        1 3U9     -0.248000
      9 C15        -1.0080    0.0540    0.3030 c3        1 3U9      0.113000
     10 C1         -0.1050    1.1980    6.5760 c2        1 3U9     -0.150000
     11 C12         1.2210    1.2780    1.7770 c2        1 3U9      0.047000
     12 C20        -3.6500    1.7980    7.6950 c2        1 3U9     -0.033000
     13 C2          0.5770    2.2160    7.2900 c2        1 3U9      0.127000
     14 C16        -1.5160   -1.5420    3.8210 c3        1 3U9     -0.271000
     15 C18        -2.3040   -0.8400   -1.4840 c3        1 3U9     -0.089000
     16 C9         -1.5840   -1.1160    2.4230 c2        1 3U9      0.108000
     17 N3         -0.2170    3.0530    8.0980 n3        1 3U9     -0.139000
     18 N23        -5.7500    1.8240    8.5440 n2        1 3U9     -0.084000
     19 N22        -5.8500    1.4040    7.3510 n2        1 3U9      0.013000
     20 N21        -4.6250    1.3530    6.7680 na        1 3U9     -0.182000
     21 N7          1.9520    2.3310    7.2430 n3        1 3U9     -0.361000
     22 O17        -1.5780   -1.0950   -0.2810 os        1 3U9     -0.253000
     23 O8          0.5970    0.3660    5.7160 oh        1 3U9     -0.311000
     24 F19         2.0050    2.1800    2.3830 f         1 3U9     -0.027000
     25 H14        -1.6860    0.9490    0.1970 h1        1 3U9      0.136000
     26 H11         0.6400   -0.2400   -1.2610 ha        1 3U9      0.238000
     27 H6         -1.9740    0.2030    6.1410 ha        1 3U9      0.129000
     28 H13         0.2560    0.5590    3.5970 ha        1 3U9      0.229000
     29 H4          0.2290    3.7700    8.6360 hn        1 3U9      0.269000
     30 H24        -4.0780    2.4920    9.8110 h4        1 3U9      0.210000
     31 H9         -2.3840   -1.5990    1.8180 ha        1 3U9      0.179000
     32 H71N        0.9900   -0.3280    6.2700 ho        1 3U9      0.222000
     33 H72N        2.4160    1.8570    6.5050 hn        1 3U9      0.234500
     34 H161       -0.8010   -0.9520    4.4500 hc        1 3U9      0.140667
     35 H162       -2.5380   -1.4770    4.2860 hc        1 3U9      0.140667
     36 H163       -1.2060   -2.6240    3.8590 hc        1 3U9      0.140667
     37 H251       -4.1280   -0.0880    5.3220 h1        1 3U9      0.087333
     38 H252       -3.5440    1.6180    4.9970 h1        1 3U9      0.087333
     39 H253       -5.3140    1.1930    4.7820 h1        1 3U9      0.087333
     40 H181       -3.1600   -0.1510   -1.2840 h1        1 3U9      0.105333
     41 H182       -1.6250   -0.4130   -2.2610 h1        1 3U9      0.105333
     42 H183       -2.6680   -1.8550   -1.7870 h1        1 3U9      0.105333
     43 C25        -4.3930    1.0020    5.3960 c3        1 3U9     -0.054000
     44 H73         2.3960    3.1330    7.6220 hn        1 3U9      0.234500
@<TRIPOS>BOND
     1    1    2 1   
     2    1    9 1   
     3    1   26 1   
     4    2   11 1   
     5    3    7 1   
     6    3   10 1   
     7    3   27 1   
     8    4    8 1   
     9    4   11 1   
    10    4   28 1   
    11    5    7 1   
    12    5   17 1   
    13    6   12 1   
    14    6   18 1   
    15    6   30 1   
    16    7   12 1   
    17    8    9 1   
    18    8   16 1   
    19    9   22 1   
    20    9   25 1   
    21   10   13 1   
    22   10   23 1   
    23   11   24 1   
    24   12   20 1   
    25   13   17 1   
    26   13   21 1   
    27   14   16 1   
    28   14   34 1   
    29   14   35 1   
    30   14   36 1   
    31   15   22 1   
    32   15   40 1   
    33   15   41 1   
    34   15   42 1   
    35   16   31 1   
    36   17   29 1   
    37   18   19 1   
    38   19   20 1   
    39   20   43 1   
    40   21   33 1   
    41   21   44 1   
    42   23   32 1   
    43   37   43 1   
    44   38   43 1   
    45   39   43 1   
@<TRIPOS>SUBSTRUCTURE
     1 3U9         1 TEMP              0 ****  ****    0 ROOT
