@<TRIPOS>MOLECULE
3U9
   43    44     1     0     0
SMALL
bcc


@<TRIPOS>ATOM
      1 C14         1.0730   -0.2980   -0.4680 c2        1 3U9     -0.192300
      2 C11         1.6810    0.3040    0.5320 c1        1 3U9     -0.059800
      3 C6         -2.6510    1.9850    6.4360 ce        1 3U9     -0.041000
      4 C13        -0.1760    0.6250    1.9100 ce        1 3U9     -0.168000
      5 C4         -1.1790    1.1920    8.2160 c1        1 3U9     -0.015900
      6 C24        -3.6910    0.4140    9.7130 cd        1 3U9      0.283200
      7 C5         -2.4900    1.5390    7.7360 ce        1 3U9     -0.188300
      8 C10        -0.8600   -0.2410    1.1160 cf        1 3U9     -0.019200
      9 C15        -0.2050   -1.0040   -0.0410 c3        1 3U9      0.192500
     10 C1         -1.5190    2.1230    5.6040 cf        1 3U9     -0.157500
     11 C12         1.2910    0.6510    1.7680 ce        1 3U9      0.123400
     12 C20        -3.5790    1.3470    8.6590 cc        1 3U9     -0.116400
     13 C2         -0.2210    1.8050    6.0730 cf        1 3U9      0.275100
     14 C16        -3.1110    0.1740    2.0550 c2        1 3U9     -0.181000
     15 C18         0.3530   -3.2220   -0.6570 c3        1 3U9      0.111700
     16 C9         -2.2670   -0.5440    1.3080 cf        1 3U9     -0.148000
     17 N3         -0.1290    1.3300    7.3930 nh        1 3U9     -0.221500
     18 N23        -4.9420    0.6230   10.3170 nd        1 3U9     -0.364000
     19 N22        -5.5530    1.5720    9.7330 nc        1 3U9     -0.174800
     20 N21        -4.7980    2.0620    8.7190 na        1 3U9      0.043400
     21 N7          0.9090    2.0380    5.2940 nh        1 3U9     -0.482100
     22 O17        -0.0560   -2.3520    0.3870 os        1 3U9     -0.397600
     23 O8         -1.6900    2.4800    4.2770 oh        1 3U9     -0.518100
     24 F19         2.0640    0.8920    2.8390 f         1 3U9     -0.156500
     25 H14        -0.8990   -0.9620   -0.9330 h1        1 3U9      0.066700
     26 H11         1.3040   -0.2080   -1.5330 ha        1 3U9      0.157000
     27 H6         -3.6380    2.2210    6.0070 ha        1 3U9      0.145000
     28 H13        -0.6490    1.2080    2.7130 ha        1 3U9      0.166000
     29 H4          0.7710    1.0930    7.7570 hn        1 3U9      0.309700
     30 H24        -2.9780   -0.3350   10.0510 h4        1 3U9      0.066100
     31 H9         -2.6130   -1.4550    0.7870 ha        1 3U9      0.137000
     32 H71N        0.7180    2.1380    4.3180 hn        1 3U9      0.266700
     33 H72N        1.7220    1.4970    5.4900 hn        1 3U9      0.266700
     34 H161       -1.6700    3.4500    4.2510 ho        1 3U9      0.413000
     35 H162       -2.8140    1.0810    2.6030 ha        1 3U9      0.124500
     36 H163       -4.1650   -0.1130    2.1640 ha        1 3U9      0.124500
     37 H251       -5.6610    2.7950    6.9470 h1        1 3U9      0.057367
     38 H252       -5.9050    3.8360    8.4290 h1        1 3U9      0.057367
     39 H253       -4.2600    3.7650    7.6260 h1        1 3U9      0.057367
     40 H181       -0.4270   -3.2700   -1.4570 h1        1 3U9      0.039700
     41 H182        0.4650   -4.2160   -0.1550 h1        1 3U9      0.039700
     42 H183        1.3270   -2.8850   -1.0900 h1        1 3U9      0.039700
     43 C25        -5.1770    3.1730    7.8880 c3        1 3U9      0.036600
@<TRIPOS>BOND
     1    1    2 2   
     2    1    9 1   
     3    1   26 1   
     4    2   11 2   
     5    3    7 1   
     6    3   10 2   
     7    3   27 1   
     8    4    8 2   
     9    4   11 1   
    10    4   28 1   
    11    5    7 2   
    12    5   17 2   
    13    6   12 2   
    14    6   18 1   
    15    6   30 1   
    16    7   12 1   
    17    8    9 1   
    18    8   16 1   
    19    9   22 1   
    20    9   25 1   
    21   10   13 1   
    22   10   23 1   
    23   11   24 1   
    24   12   20 1   
    25   13   17 1   
    26   13   21 2   
    27   14   16 2   
    28   14   35 1   
    29   14   36 1   
    30   15   22 1   
    31   15   40 1   
    32   15   41 1   
    33   15   42 1   
    34   16   31 1   
    35   17   29 1   
    36   18   19 2   
    37   19   20 1   
    38   20   43 1   
    39   21   32 1   
    40   21   33 1   
    41   23   34 1   
    42   37   43 1   
    43   38   43 1   
    44   39   43 1   
@<TRIPOS>SUBSTRUCTURE
     1 3U9         1 TEMP              0 ****  ****    0 ROOT
