@<TRIPOS>MOLECULE
3U9
   43    44     1     0     0
SMALL
bcc


@<TRIPOS>ATOM
      1 C14         1.0240   -0.5110   -0.4460 c2        1 3U9     -0.192300
      2 C11         1.6700    0.0510    0.5540 c1        1 3U9     -0.059800
      3 C6         -2.5640    2.0730    6.4200 ce        1 3U9     -0.041000
      4 C13        -0.1670    0.5210    1.9180 ce        1 3U9     -0.168000
      5 C4         -1.1690    1.1710    8.2110 c1        1 3U9     -0.015900
      6 C24        -3.7440    0.5840    9.6880 cd        1 3U9      0.283200
      7 C5         -2.4460    1.6160    7.7210 ce        1 3U9     -0.188300
      8 C10        -0.9090   -0.2980    1.1260 cf        1 3U9     -0.019200
      9 C15        -0.3060   -1.1160   -0.0220 c3        1 3U9      0.192500
     10 C1         -1.4180    2.1260    5.5970 cf        1 3U9     -0.157500
     11 C12         1.3000    0.4360    1.7850 ce        1 3U9      0.123400
     12 C20        -3.5540    1.5060    8.6350 cc        1 3U9     -0.116400
     13 C2         -0.1510    1.7110    6.0760 cf        1 3U9      0.275100
     14 C16        -3.1270    0.2920    2.0480 c2        1 3U9     -0.181000
     15 C18         0.0870   -3.3740   -0.6190 c3        1 3U9      0.111700
     16 C9         -2.3350   -0.4920    1.3110 cf        1 3U9     -0.148000
     17 N3         -0.1050    1.2300    7.3960 nu        1 3U9     -0.221500
     18 N23        -4.9800    0.8860   10.2820 nd        1 3U9     -0.364000
     19 N22        -5.5140    1.8790    9.6940 nc        1 3U9     -0.174800
     20 N21        -4.7160    2.3120    8.6870 na        1 3U9      0.043400
     21 N7          1.0000    1.8580    5.3060 nv        1 3U9     -0.482100
     22 O17        -0.2610   -2.4680    0.4170 os        1 3U9     -0.397600
     23 O8         -1.5510    2.4940    4.2690 oh        1 3U9     -0.518100
     24 F19         2.0820    0.6260    2.8600 f         1 3U9     -0.156500
     25 H14        -0.9900   -1.0290   -0.9180 h1        1 3U9      0.066700
     26 H11         1.2670   -0.4460   -1.5100 ha        1 3U9      0.157000
     27 H6         -3.5260    2.3830    5.9840 ha        1 3U9      0.145000
     28 H13        -0.5990    1.1430    2.7140 ha        1 3U9      0.166000
     29 H4          0.7720    0.9250    7.7670 hn        1 3U9      0.309700
     30 H24        -3.0930   -0.2170   10.0300 h4        1 3U9      0.066100
     31 H9         -2.7460   -1.3780    0.7930 ha        1 3U9      0.137000
     32 H71N        0.8240    1.9720    4.3280 hn        1 3U9      0.266700
     33 H72N        1.7670    1.2560    5.5080 hn        1 3U9      0.266700
     34 H161       -1.4570    3.4590    4.2440 ho        1 3U9      0.413000
     35 H162       -2.7670    1.1770    2.5930 ha        1 3U9      0.124500
     36 H163       -4.2010    0.0860    2.1530 ha        1 3U9      0.124500
     37 H251       -5.5080    3.1080    6.9090 h1        1 3U9      0.057367
     38 H252       -4.0430    3.9690    7.6000 h1        1 3U9      0.057367
     39 H253       -5.6840    4.1630    8.3900 h1        1 3U9      0.057367
     40 H181       -0.6900   -3.3690   -1.4230 h1        1 3U9      0.039700
     41 H182        1.0860   -3.1150   -1.0490 h1        1 3U9      0.039700
     42 H183        0.1210   -4.3690   -0.1090 h1        1 3U9      0.039700
     43 C25        -5.0040    3.4480    7.8540 c3        1 3U9      0.036600
@<TRIPOS>BOND
     1    1    2 2   
     2    1    9 1   
     3    1   26 1   
     4    2   11 2   
     5    3    7 1   
     6    3   10 2   
     7    3   27 1   
     8    4    8 2   
     9    4   11 1   
    10    4   28 1   
    11    5    7 2   
    12    5   17 2   
    13    6   12 2   
    14    6   18 1   
    15    6   30 1   
    16    7   12 1   
    17    8    9 1   
    18    8   16 1   
    19    9   22 1   
    20    9   25 1   
    21   10   13 1   
    22   10   23 1   
    23   11   24 1   
    24   12   20 1   
    25   13   17 1   
    26   13   21 2   
    27   14   16 2   
    28   14   35 1   
    29   14   36 1   
    30   15   22 1   
    31   15   40 1   
    32   15   41 1   
    33   15   42 1   
    34   16   31 1   
    35   17   29 1   
    36   18   19 2   
    37   19   20 1   
    38   20   43 1   
    39   21   32 1   
    40   21   33 1   
    41   23   34 1   
    42   37   43 1   
    43   38   43 1   
    44   39   43 1   
@<TRIPOS>SUBSTRUCTURE
     1 3U9         1 TEMP              0 ****  ****    0 ROOT
