@<TRIPOS>MOLECULE
3UB
   39    39     1     0     0
SMALL
bcc


@<TRIPOS>ATOM
      1 O2P        -3.0230   -1.8710    1.1270 o         1 3UB     -0.845000
      2 P          -2.6510   -0.8510    0.1270 p5        1 3UB      1.328600
      3 C1         -5.2310   -0.6370   -0.1360 c3        1 3UB      0.200100
      4 C2         -6.1610   -0.1470    0.9680 c3        1 3UB     -0.105600
      5 C3         -5.8820   -0.4150   -1.4970 c3        1 3UB     -0.105600
      6 C4         -1.5600    0.3180    0.8240 c3        1 3UB     -0.132500
      7 C5         -1.9290    1.6600    0.2330 c3        1 3UB     -0.110100
      8 C7          3.2270    0.7950    0.9420 c3        1 3UB      0.194700
      9 NC         -0.2220   -0.1400    0.5470 n         1 3UB     -0.453900
     10 O1C         0.9600    1.3170    2.0180 o         1 3UB     -0.611000
     11 O1P        -4.0240    0.0680   -0.0740 os        1 3UB     -0.591200
     12 O2C         2.0350    0.2890    0.3330 os        1 3UB     -0.462900
     13 O3P        -2.1430   -1.1700   -1.2270 o         1 3UB     -0.845000
     14 C71         4.4030    0.3260    0.1510 ca        1 3UB     -0.078300
     15 C72         5.6590    0.8750    0.4430 ca        1 3UB     -0.117500
     16 C73         6.7870    0.4560   -0.2590 ca        1 3UB     -0.136000
     17 C74         6.6700   -0.5110   -1.2580 ca        1 3UB     -0.141000
     18 C75         5.4220   -1.0570   -1.5520 ca        1 3UB     -0.136000
     19 C76         4.2900   -0.6420   -0.8510 ca        1 3UB     -0.117500
     20 H1         -5.0340   -1.7400    0.0140 h1        1 3UB      0.052700
     21 H2         -7.1480   -0.6600    0.8880 hc        1 3UB      0.026200
     22 H2A        -5.7140   -0.3690    1.9660 hc        1 3UB      0.026200
     23 H2B        -6.3140    0.9540    0.8830 hc        1 3UB      0.026200
     24 H3         -6.0760    0.6710   -1.6570 hc        1 3UB      0.026200
     25 H3A        -5.2090   -0.7760   -2.3100 hc        1 3UB      0.026200
     26 H3B        -6.8490   -0.9690   -1.5490 hc        1 3UB      0.026200
     27 H4         -1.6790    0.3610    1.9420 h1        1 3UB      0.094700
     28 H5         -2.0060    1.5660   -0.8790 hc        1 3UB      0.043033
     29 H5A        -2.9310    1.9590    0.6270 hc        1 3UB      0.043033
     30 H5B        -1.1870    2.4540    0.4890 hc        1 3UB      0.043033
     31 H7          3.1750    1.9170    0.9590 h1        1 3UB      0.057200
     32 H7A         3.2880    0.4200    2.0000 h1        1 3UB      0.057200
     33 HNC        -0.1180   -0.5370   -0.3740 hn        1 3UB      0.336500
     34 H72         5.7500    1.6390    1.2290 ha        1 3UB      0.145500
     35 H73         7.7690    0.8890   -0.0240 ha        1 3UB      0.124000
     36 H74         7.5610   -0.8400   -1.8110 ha        1 3UB      0.120000
     37 H75         5.3260   -1.8180   -2.3400 ha        1 3UB      0.124000
     38 H76         3.3010   -1.0710   -1.0830 ha        1 3UB      0.145500
     39 C6          0.8570    0.5650    1.0310 c         1 3UB      0.723100
@<TRIPOS>BOND
     1    1    2 1   
     2    2    6 1   
     3    2   11 1   
     4    2   13 1   
     5    3    4 1   
     6    3    5 1   
     7    3   11 1   
     8    3   20 1   
     9    4   21 1   
    10    4   22 1   
    11    4   23 1   
    12    5   24 1   
    13    5   25 1   
    14    5   26 1   
    15    6    7 1   
    16    6    9 1   
    17    6   27 1   
    18    7   28 1   
    19    7   29 1   
    20    7   30 1   
    21    8   12 1   
    22    8   14 1   
    23    8   31 1   
    24    8   32 1   
    25    9   33 1   
    26    9   39 1   
    27   10   39 2   
    28   12   39 1   
    29   14   15 ar  
    30   14   19 ar  
    31   15   16 ar  
    32   15   34 1   
    33   16   17 ar  
    34   16   35 1   
    35   17   18 ar  
    36   17   36 1   
    37   18   19 ar  
    38   18   37 1   
    39   19   38 1   
@<TRIPOS>SUBSTRUCTURE
     1 3UB         1 TEMP              0 ****  ****    0 ROOT
