@<TRIPOS>MOLECULE
3UB
   40    39     1     0     0
SMALL
bcc


@<TRIPOS>ATOM
      1 O2P         0.2450   -2.2660    0.1420 o         1 3UB     -0.766500
      2 P           1.1850   -1.4900   -0.6910 p5        1 3UB      1.209900
      3 C1          1.1050    1.0550   -1.3050 c3        1 3UB      0.172100
      4 C2          2.2730    1.9830   -1.0010 c3        1 3UB     -0.105100
      5 C3         -0.1970    1.8430   -1.3370 c3        1 3UB     -0.105100
      6 C4          2.7390   -2.3620    1.2700 c2        1 3UB      0.381200
      7 C5          3.9130   -2.7490    2.0850 c3        1 3UB     -0.224400
      8 C7         -1.1490   -1.7740    6.2980 c3        1 3UB      0.185600
      9 NC          2.7400   -1.8280    0.0930 nh        1 3UB     -0.194900
     10 O1C         0.0640    0.5810    6.7190 o         1 3UB     -0.536000
     11 O1P         1.0160    0.0780   -0.2890 os        1 3UB     -0.585200
     12 O2C        -1.6560   -0.5300    5.7960 os        1 3UB     -0.448900
     13 O3P         1.4910   -1.6150   -2.1230 o         1 3UB     -0.766500
     14 C71        -0.3100   -2.4740    5.3010 c2        1 3UB     -0.165500
     15 C72        -0.3290   -2.1090    3.8390 c3        1 3UB     -0.019000
     16 C73        -0.3090   -3.3540    2.9920 c2        1 3UB     -0.157200
     17 C74         0.1200   -4.5570    3.4400 ce        1 3UB     -0.175000
     18 C75         0.8070   -4.5780    4.7400 ce        1 3UB     -0.158100
     19 C76         0.3900   -3.5850    5.5170 c1        1 3UB     -0.050800
     20 H1          1.2700    0.5450   -2.3010 h1        1 3UB      0.077700
     21 H2          2.3040    2.8020   -1.7570 hc        1 3UB      0.038867
     22 H2A         3.2390    1.4260   -1.0350 hc        1 3UB      0.038867
     23 H2B         2.1560    2.4290    0.0150 hc        1 3UB      0.038867
     24 H3         -0.1260    2.6470   -2.1060 hc        1 3UB      0.038867
     25 H3A        -0.3920    2.3030   -0.3400 hc        1 3UB      0.038867
     26 H3B        -1.0520    1.1720   -1.5890 hc        1 3UB      0.038867
     27 H4          1.7170   -2.5650    1.7130 h4        1 3UB      0.106800
     28 H5          3.8680   -2.2040    3.0650 hc        1 3UB      0.091033
     29 H5A         3.8560   -3.8490    2.3010 hc        1 3UB      0.091033
     30 H5B         4.8920   -2.5290    1.5950 hc        1 3UB      0.091033
     31 H7         -0.5730   -1.6030    7.2480 h1        1 3UB      0.082700
     32 H7A        -2.0830   -2.3660    6.5130 h1        1 3UB      0.082700
     33 HNC        -1.4870    1.4870    5.6120 h5        1 3UB      0.082200
     34 H72        -1.2880   -1.5520    3.6500 hc        1 3UB      0.079200
     35 H73         0.5150   -1.4390    3.5300 hc        1 3UB      0.079200
     36 H74        -0.6470   -3.2050    1.9480 ha        1 3UB      0.199000
     37 H75         0.0760   -5.4730    2.8390 ha        1 3UB      0.141000
     38 H76         1.6290   -5.2720    4.9280 ha        1 3UB      0.149000
     39 C6         -0.9710    0.6170    6.0580 c         1 3UB      0.630900
     40 HC2         3.5920   -1.6340   -0.3910 hn        1 3UB      0.291700
@<TRIPOS>BOND
     1    1    2 1   
     2    2    9 1   
     3    2   11 1   
     4    2   13 1   
     5    3    4 1   
     6    3    5 1   
     7    3   11 1   
     8    3   20 1   
     9    4   21 1   
    10    4   22 1   
    11    4   23 1   
    12    5   24 1   
    13    5   25 1   
    14    5   26 1   
    15    6    7 1   
    16    6    9 2   
    17    6   27 1   
    18    7   28 1   
    19    7   29 1   
    20    7   30 1   
    21    8   12 1   
    22    8   14 1   
    23    8   31 1   
    24    8   32 1   
    25    9   40 1   
    26   10   39 2   
    27   12   39 1   
    28   14   15 1   
    29   14   19 2   
    30   15   16 1   
    31   15   34 1   
    32   15   35 1   
    33   16   17 2   
    34   16   36 1   
    35   17   18 1   
    36   17   37 1   
    37   18   19 2   
    38   18   38 1   
    39   33   39 1   
@<TRIPOS>SUBSTRUCTURE
     1 3UB         1 TEMP              0 ****  ****    0 ROOT
