@<TRIPOS>MOLECULE
3UB
   40    40     1     0     0
SMALL
bcc


@<TRIPOS>ATOM
      1 O2P        -0.2250    2.0850   -0.8130 o         1 3UB     -0.796000
      2 P          -0.0880    0.7560   -0.2160 p5        1 3UB      1.303600
      3 C1          2.1550    0.6300   -1.5530 c3        1 3UB      0.184100
      4 C2          2.4770   -0.5460   -2.4640 c3        1 3UB     -0.108100
      5 C3          3.4400    1.2900   -1.0720 c3        1 3UB     -0.108100
      6 C4          0.0310    0.9100    1.5740 c3        1 3UB     -0.077700
      7 C5          1.1640    1.8540    1.8320 c3        1 3UB     -0.119100
      8 C7          0.7190   -1.9930    5.3380 c3        1 3UB      0.206600
      9 NC          0.2050   -0.4770    2.0570 n4        1 3UB     -0.595800
     10 O1C        -0.9620   -0.2140    4.1360 o         1 3UB     -0.446000
     11 O1P         1.4290    0.1690   -0.4380 os        1 3UB     -0.620200
     12 O2C         1.0040   -1.3620    4.0690 os        1 3UB     -0.413900
     13 O3P        -0.9660   -0.4370   -0.3140 o         1 3UB     -0.796000
     14 C71        -0.0180   -3.2610    5.1620 c2        1 3UB     -0.188500
     15 C72         0.0600   -4.3260    6.2260 c3        1 3UB     -0.017000
     16 C73         0.1750   -5.6790    5.5700 c2        1 3UB     -0.145200
     17 C74        -0.2440   -5.9400    4.3110 ce        1 3UB     -0.149000
     18 C75        -1.0280   -4.8860    3.6440 ce        1 3UB     -0.104100
     19 C76        -0.6780   -3.6830    4.0890 c1        1 3UB     -0.067800
     20 H1          1.5300    1.3910   -2.1100 h1        1 3UB      0.065700
     21 H2          3.0580   -0.1870   -3.3460 hc        1 3UB      0.037533
     22 H2A         3.0800   -1.3060   -1.9130 hc        1 3UB      0.037533
     23 H2B         1.5390   -1.0340   -2.8200 hc        1 3UB      0.037533
     24 H3          4.0630    1.5820   -1.9500 hc        1 3UB      0.037533
     25 H3A         3.2080    2.2040   -0.4750 hc        1 3UB      0.037533
     26 H3B         4.0200    0.5850   -0.4320 hc        1 3UB      0.037533
     27 H4         -0.9290    1.3140    1.9920 hx        1 3UB      0.126700
     28 H5          1.2920    2.1020    2.9120 hc        1 3UB      0.069367
     29 H5A         0.9280    2.7940    1.2630 hc        1 3UB      0.069367
     30 H5B         2.1240    1.4430    1.4280 hc        1 3UB      0.069367
     31 H7          1.7540   -2.1640    5.7480 h1        1 3UB      0.091700
     32 H7A         0.1440   -1.2820    5.9920 h1        1 3UB      0.091700
     33 HNC         1.1490   -0.7940    1.7920 hn        1 3UB      0.502300
     34 H72         0.9720   -4.1340    6.8510 hc        1 3UB      0.078700
     35 H73        -0.8310   -4.3290    6.9090 hc        1 3UB      0.078700
     36 H74         0.6040   -6.4660    6.2070 ha        1 3UB      0.142000
     37 H75        -0.1290   -6.9140    3.8220 ha        1 3UB      0.150000
     38 H76        -1.8520   -5.1390    2.9700 ha        1 3UB      0.170000
     39 C6         -0.0170   -0.6610    3.4970 c         1 3UB      0.621100
     40 HC2        -0.5020   -1.0500    1.5060 hn        1 3UB      0.502300
@<TRIPOS>BOND
     1    1    2 1   
     2    2    6 1   
     3    2   11 1   
     4    2   13 1   
     5    3    4 1   
     6    3    5 1   
     7    3   11 1   
     8    3   20 1   
     9    4   21 1   
    10    4   22 1   
    11    4   23 1   
    12    5   24 1   
    13    5   25 1   
    14    5   26 1   
    15    6    7 1   
    16    6    9 1   
    17    6   27 1   
    18    7   28 1   
    19    7   29 1   
    20    7   30 1   
    21    8   12 1   
    22    8   14 1   
    23    8   31 1   
    24    8   32 1   
    25    9   33 1   
    26    9   39 1   
    27    9   40 1   
    28   10   39 2   
    29   12   39 1   
    30   14   15 1   
    31   14   19 2   
    32   15   16 1   
    33   15   34 1   
    34   15   35 1   
    35   16   17 2   
    36   16   36 1   
    37   17   18 1   
    38   17   37 1   
    39   18   19 2   
    40   18   38 1   
@<TRIPOS>SUBSTRUCTURE
     1 3UB         1 TEMP              0 ****  ****    0 ROOT
