@<TRIPOS>MOLECULE
3UB
   39    35     1     0     0
SMALL
bcc


@<TRIPOS>ATOM
      1 O2P        -2.0610   -1.2000   -2.5210 o         1 3UB     -1.167000
      2 P          -0.5520   -1.1340   -2.5230 p3        1 3UB      2.609000
      3 C1         -0.2480   -2.5700   -4.6310 c3        1 3UB      0.088000
      4 C2         -1.0690   -3.8250   -4.8310 c3        1 3UB     -0.223500
      5 C3          1.0500   -2.6880   -5.3990 c3        1 3UB     -0.223500
      6 C4          0.0540   -1.0990   -0.8120 c3        1 3UB     -0.616000
      7 C5         -0.3080   -2.3950   -0.1220 c3        1 3UB     -0.229000
      8 C6          0.2710    0.9200    0.5710 c1        1 3UB      0.376000
      9 C7         -0.0030    2.6850    2.1100 c3        1 3UB      0.029000
     10 NC         -0.5430   -0.0120   -0.1210 n3        1 3UB     -0.264000
     11 O1C         1.2670    1.3690    0.0390 o         1 3UB     -0.416000
     12 O1P         0.0300   -2.4050   -3.2620 os        1 3UB     -0.753000
     13 O2C        -0.0520    1.2960    1.8850 o         1 3UB     -0.299000
     14 O3P        -0.1030    0.1150   -3.2420 os        1 3UB     -1.162000
     15 C71         0.2210    2.9500    3.5820 c2        1 3UB     -0.086000
     16 C72         0.9960    4.0270    3.9810 c2        1 3UB     -0.129000
     17 C73         1.1580    4.3020    5.3300 c1        1 3UB     -0.138000
     18 C74         0.5440    3.5010    6.2790 c1        1 3UB     -0.136500
     19 C75        -0.2310    2.4230    5.8800 c1        1 3UB     -0.136500
     20 C76        -0.3930    2.1480    4.5310 c1        1 3UB     -0.104000
     21 H1         -0.7500   -1.7970   -4.9570 h1        1 3UB      0.092000
     22 H2         -1.9570   -3.7020   -4.4340 hc        1 3UB      0.065333
     23 H2A        -0.6200   -4.5810   -4.3990 hc        1 3UB      0.065333
     24 H2B        -1.1620   -4.0050   -5.7900 hc        1 3UB      0.065333
     25 H3          1.5520   -3.4650   -5.0740 hc        1 3UB      0.065333
     26 H3A         0.8560   -2.7990   -6.3530 hc        1 3UB      0.065333
     27 H3B         1.5830   -1.8760   -5.2660 hc        1 3UB      0.065333
     28 H4          1.0260   -0.9910   -0.8130 h1        1 3UB      0.134000
     29 H5         -1.2790   -2.5270   -0.1630 hc        1 3UB      0.082667
     30 H5A         0.1420   -3.1410   -0.5710 hc        1 3UB      0.082667
     31 H5B        -0.0230   -2.3580    0.8140 hc        1 3UB      0.082667
     32 H7         -0.8500    3.0910    1.8300 h1        1 3UB      0.107500
     33 H7A         0.7320    3.0740    1.5920 h1        1 3UB      0.107500
     34 HNC        -1.4500    0.0640   -0.0900 hn        1 3UB      0.250000
     35 H72         1.4290    4.5920    3.3120 ha        1 3UB      0.127000
     36 H73         1.7040    5.0610    5.6110 ha        1 3UB      0.120000
     37 H74         0.6580    3.6940    7.2290 ha        1 3UB      0.123500
     38 H75        -0.6640    1.8590    6.5490 ha        1 3UB      0.123500
     39 H76        -0.9540    1.4000    4.2490 ha        1 3UB      0.157000
@<TRIPOS>BOND
     1    1    2 1   
     2    2    6 1   
     3    2   12 1   
     4    3    4 1   
     5    3    5 1   
     6    3   12 1   
     7    3   21 1   
     8    4   22 1   
     9    4   23 1   
    10    4   24 1   
    11    5   25 1   
    12    5   26 1   
    13    5   27 1   
    14    6    7 1   
    15    6   10 1   
    16    6   28 1   
    17    7   29 1   
    18    7   30 1   
    19    7   31 1   
    20    8   10 1   
    21    8   11 1   
    22    9   13 1   
    23    9   15 1   
    24    9   32 1   
    25    9   33 1   
    26   10   34 1   
    27   15   16 1   
    28   15   20 1   
    29   16   17 1   
    30   16   35 1   
    31   17   36 1   
    32   18   19 1   
    33   18   37 1   
    34   19   38 1   
    35   20   39 1   
@<TRIPOS>SUBSTRUCTURE
     1 3UB         1 TEMP              0 ****  ****    0 ROOT
