@<TRIPOS>MOLECULE
3UB
   40    39     1     0     0
SMALL
bcc


@<TRIPOS>ATOM
      1 O2P        -0.3290    0.7610   -0.4880 o         1 3UB     -0.801000
      2 P           0.4380   -0.4170   -0.0820 p5        1 3UB      1.309600
      3 C1          2.4020    2.3460   -2.9730 c2        1 3UB     -0.192200
      4 C2          3.6750    2.9060   -3.4680 c3        1 3UB     -0.064900
      5 C3          1.5410    3.0040   -2.1980 c2        1 3UB     -0.229000
      6 C4          0.7520   -0.3620    1.6950 c3        1 3UB     -0.081700
      7 C5          1.3400    0.9870    1.9650 c3        1 3UB     -0.118100
      8 C7          0.6810   -2.7930    5.2290 c2        1 3UB     -0.049900
      9 NC          1.6310   -1.5270    1.9450 ny        1 3UB     -0.597800
     10 O1C         2.8240   -1.7720    3.9990 o         1 3UB     -0.466000
     11 O1P         1.9720   -0.1530   -0.5580 oh        1 3UB     -0.814400
     12 O2C         0.6200   -2.3700    3.8860 os        1 3UB     -0.315200
     13 O3P         0.1920   -1.8710   -0.2440 o         1 3UB     -0.801000
     14 C71        -0.1600   -3.7790    5.6130 ce        1 3UB     -0.029200
     15 C72        -0.1730   -4.1660    7.0580 c3        1 3UB     -0.021000
     16 C73        -1.1260   -5.2470    7.4040 c2        1 3UB     -0.146200
     17 C74        -1.9240   -5.8370    6.4980 cf        1 3UB     -0.144000
     18 C75        -1.8890   -5.4330    5.1100 cf        1 3UB     -0.086000
     19 C76        -1.0540   -4.4570    4.6950 ce        1 3UB     -0.148000
     20 H1          2.0950    0.6210   -1.1040 ho        1 3UB      0.466000
     21 H2          2.1910    1.3140   -3.3030 ha        1 3UB      0.118000
     22 H2A         4.5330    2.2700   -3.1350 hc        1 3UB      0.037033
     23 H2B         3.6750    2.9280   -4.5870 hc        1 3UB      0.037033
     24 H3          3.8430    3.9470   -3.0980 hc        1 3UB      0.037033
     25 H3A         1.7210    4.0340   -1.8630 ha        1 3UB      0.130000
     26 H3B         0.5960    2.5580   -1.8480 ha        1 3UB      0.130000
     27 H4         -0.2040   -0.5090    2.2620 hx        1 3UB      0.122700
     28 H5          1.4900    1.1910    3.0510 hc        1 3UB      0.070367
     29 H5A         2.3140    1.1120    1.4300 hc        1 3UB      0.070367
     30 H5B         0.6170    1.7380    1.5450 hc        1 3UB      0.070367
     31 H7         -1.0240   -4.1380    3.6410 ha        1 3UB      0.148000
     32 H7A         1.3940   -2.2510    5.8630 h4        1 3UB      0.175000
     33 HNC         1.1880   -2.3210    1.3950 hn        1 3UB      0.502300
     34 H72         0.8640   -4.4920    7.3580 hc        1 3UB      0.074700
     35 H73        -0.4210   -3.2580    7.6790 hc        1 3UB      0.074700
     36 H74        -1.1400   -5.5390    8.4650 ha        1 3UB      0.135000
     37 H75        -2.6250   -6.6380    6.7770 ha        1 3UB      0.140000
     38 H76        -2.5640   -5.9460    4.4080 ha        1 3UB      0.143000
     39 C6          1.7830   -1.8910    3.3600 c         1 3UB      0.612100
     40 HC2         2.5570   -1.3190    1.5430 hn        1 3UB      0.502300
@<TRIPOS>BOND
     1    1    2 1   
     2    2    6 1   
     3    2   11 1   
     4    2   13 1   
     5    3    4 1   
     6    3    5 2   
     7    3   21 1   
     8    4   22 1   
     9    4   23 1   
    10    4   24 1   
    11    5   25 1   
    12    5   26 1   
    13    6    7 1   
    14    6    9 1   
    15    6   27 1   
    16    7   28 1   
    17    7   29 1   
    18    7   30 1   
    19    8   12 1   
    20    8   14 2   
    21    8   32 1   
    22    9   33 1   
    23    9   39 1   
    24    9   40 1   
    25   10   39 2   
    26   11   20 1   
    27   12   39 1   
    28   14   15 1   
    29   14   19 1   
    30   15   16 1   
    31   15   34 1   
    32   15   35 1   
    33   16   17 2   
    34   16   36 1   
    35   17   18 1   
    36   17   37 1   
    37   18   19 2   
    38   18   38 1   
    39   19   31 1   
@<TRIPOS>SUBSTRUCTURE
     1 3UB         1 TEMP              0 ****  ****    0 ROOT
