@<TRIPOS>MOLECULE
3UF
   26    26     1     0     0
SMALL
bcc


@<TRIPOS>ATOM
      1 C6         -0.0280    0.1920    0.1020 ca        1 3UF      0.042500
      2 C5          1.3580   -0.0560   -0.1050 ca        1 3UF     -0.635500
      3 O4          3.2320   -0.6850   -1.6450 o         1 3UF     -0.578800
      4 S2          1.9720   -0.1330   -1.5490 sy        1 3UF      1.511200
      5 O1          1.0730   -0.2120   -2.5920 o         1 3UF     -0.578800
      6 N3          2.4620    1.7540   -1.7280 n4        1 3UF     -0.780500
      7 C10         2.1360   -0.3160    1.0550 ca        1 3UF      0.042500
      8 C9          1.5850   -0.3160    2.3150 ca        1 3UF     -0.183500
      9 C8          0.2080   -0.0570    2.5100 ca        1 3UF      0.065900
     10 C7         -0.5830    0.1960    1.3570 ca        1 3UF     -0.183500
     11 S11        -0.5820   -0.0190    3.9470 ss        1 3UF      0.077000
     12 C12         0.6020   -0.3600    5.2090 c3        1 3UF     -0.092300
     13 C13        -0.1020   -0.1040    6.5310 c3        1 3UF      0.143400
     14 O14         0.2550    1.2060    6.9390 oh        1 3UF     -0.600800
     15 H1         -0.6720    0.3670   -0.7810 ha        1 3UF      0.164500
     16 H2          3.4630    1.8430   -1.8780 hn        1 3UF      0.447800
     17 H3          2.2150    2.2910   -0.9050 hn        1 3UF      0.447800
     18 H4          3.2130   -0.5420    0.9310 ha        1 3UF      0.164500
     19 H5          2.2280   -0.5310    3.1850 ha        1 3UF      0.170000
     20 H6         -1.6630    0.3880    1.4830 ha        1 3UF      0.170000
     21 H7          0.9430   -1.4230    5.1550 h1        1 3UF      0.102200
     22 H8          1.5010    0.3030    5.1330 h1        1 3UF      0.102200
     23 H9         -1.2200   -0.1820    6.4160 h1        1 3UF      0.053200
     24 H10         0.2390   -0.8560    7.2930 h1        1 3UF      0.053200
     25 H11        -0.1310    1.3440    7.8130 ho        1 3UF      0.426000
     26 H33         1.9880    2.1630   -2.5290 hn        1 3UF      0.447800
@<TRIPOS>BOND
     1    1    2 ar  
     2    1   10 ar  
     3    1   15 1   
     4    2    4 1   
     5    2    7 ar  
     6    3    4 2   
     7    4    5 2   
     8    4    6 1   
     9    6   16 1   
    10    6   17 1   
    11    6   26 1   
    12    7    8 ar  
    13    7   18 1   
    14    8    9 ar  
    15    8   19 1   
    16    9   10 ar  
    17    9   11 1   
    18   10   20 1   
    19   11   12 1   
    20   12   13 1   
    21   12   21 1   
    22   12   22 1   
    23   13   14 1   
    24   13   23 1   
    25   13   24 1   
    26   14   25 1   
@<TRIPOS>SUBSTRUCTURE
     1 3UF         1 TEMP              0 ****  ****    0 ROOT
