@<TRIPOS>MOLECULE
3UF
   26    26     1     0     0
SMALL
bcc


@<TRIPOS>ATOM
      1 C6         -0.0090    0.1670    0.0930 ca        1 3UF      0.042500
      2 C5          1.3840   -0.0580   -0.1000 ca        1 3UF     -0.635500
      3 O4          3.2830   -0.6590   -1.6200 o         1 3UF     -0.578800
      4 S2          2.0120   -0.1280   -1.5380 sy        1 3UF      1.511200
      5 O1          1.1240   -0.2280   -2.5890 o         1 3UF     -0.578800
      6 N3          2.4700    1.7660   -1.7200 nz        1 3UF     -0.780500
      7 C10         2.1550   -0.2990    1.0680 ca        1 3UF      0.042500
      8 C9          1.5930   -0.3040    2.3230 ca        1 3UF     -0.183500
      9 C8          0.2100   -0.0690    2.5040 ca        1 3UF      0.065900
     10 C7         -0.5750    0.1650    1.3420 ca        1 3UF     -0.183500
     11 S11        -0.5950   -0.0400    3.9330 ss        1 3UF      0.077000
     12 C12         0.5830   -0.3550    5.2080 c3        1 3UF     -0.092300
     13 C13        -0.1370   -0.1070    6.5220 c3        1 3UF      0.143400
     14 O14         0.1920    1.2100    6.9280 oh        1 3UF     -0.600800
     15 H1         -0.6470    0.3280   -0.7970 ha        1 3UF      0.164500
     16 H2          2.2060    2.3010   -0.9020 hn        1 3UF      0.447800
     17 H3          3.4710    1.8720   -1.8610 hn        1 3UF      0.447800
     18 H4          3.2370   -0.5060    0.9550 ha        1 3UF      0.164500
     19 H5          2.2310   -0.5040    3.2000 ha        1 3UF      0.170000
     20 H6         -1.6600    0.3390    1.4580 ha        1 3UF      0.170000
     21 H7          0.9430   -1.4110    5.1610 h1        1 3UF      0.102200
     22 H8          1.4710    0.3240    5.1380 h1        1 3UF      0.102200
     23 H9         -1.2520   -0.2050    6.3970 h1        1 3UF      0.053200
     24 H10         0.2100   -0.8500    7.2900 h1        1 3UF      0.053200
     25 H11        -0.2040    1.3450    7.7990 ho        1 3UF      0.426000
     26 H33         1.9970    2.1640   -2.5270 hn        1 3UF      0.447800
@<TRIPOS>BOND
     1    1    2 ar  
     2    1   10 ar  
     3    1   15 1   
     4    2    4 1   
     5    2    7 ar  
     6    3    4 2   
     7    4    5 2   
     8    4    6 1   
     9    6   16 1   
    10    6   17 1   
    11    6   26 1   
    12    7    8 ar  
    13    7   18 1   
    14    8    9 ar  
    15    8   19 1   
    16    9   10 ar  
    17    9   11 1   
    18   10   20 1   
    19   11   12 1   
    20   12   13 1   
    21   12   21 1   
    22   12   22 1   
    23   13   14 1   
    24   13   23 1   
    25   13   24 1   
    26   14   25 1   
@<TRIPOS>SUBSTRUCTURE
     1 3UF         1 TEMP              0 ****  ****    0 ROOT
