@<TRIPOS>MOLECULE
3UG
   33    34     1     0     0
SMALL
bcc


@<TRIPOS>ATOM
      1 C11         0.3240   -0.2260   -0.1120 ca        1 3UG      0.273900
      2 C5          1.6940    0.1320    0.1050 ca        1 3UG     -0.669500
      3 C10        -0.6670   -0.1050    0.8580 ca        1 3UG     -0.010600
      4 C7          0.9730    0.8810    2.3690 ca        1 3UG     -0.010600
      5 C6          1.9420    0.7630    1.3650 ca        1 3UG      0.273900
      6 F14        -1.9390   -0.4110    0.5040 f         1 3UG     -0.099400
      7 F13        -0.0290   -0.6560   -1.3450 f         1 3UG     -0.090900
      8 S1          2.8510   -0.2420   -0.9320 sy        1 3UG      1.508200
      9 O3          2.7080   -1.4500   -1.5740 o         1 3UG     -0.560300
     10 N4          2.3080    0.9300   -2.3570 n4        1 3UG     -0.784500
     11 O2          4.0950    0.2710   -0.6480 o         1 3UG     -0.560300
     12 C9         -0.3800    0.3930    2.1970 ca        1 3UG      0.297600
     13 F12         1.3690    1.4320    3.5430 f         1 3UG     -0.099400
     14 F8          3.1790    1.2280    1.6270 f         1 3UG     -0.090900
     15 N20        -1.3160    0.4020    3.1700 nh        1 3UG     -0.581000
     16 C15        -2.4110   -0.5700    3.2050 c3        1 3UG      0.184800
     17 C19        -1.3580    1.3660    4.2660 c3        1 3UG      0.184800
     18 C18        -1.4560    0.7140    5.6430 c3        1 3UG     -0.094900
     19 C17        -2.6370   -0.2300    5.6990 c3        1 3UG     -0.089400
     20 C16        -2.5690   -1.2370    4.5730 c3        1 3UG     -0.094900
     21 H1          1.4470    1.4220   -2.1390 hn        1 3UG      0.455133
     22 H2          2.1510    0.3940   -3.2090 hn        1 3UG      0.455133
     23 H3         -3.3600   -0.0250    2.9320 h1        1 3UG      0.081700
     24 H4         -2.2320   -1.3840    2.4470 h1        1 3UG      0.081700
     25 H5         -0.4750    2.0590    4.2360 h1        1 3UG      0.081700
     26 H6         -2.2880    1.9870    4.0900 h1        1 3UG      0.081700
     27 H7         -0.5080    0.1660    5.8810 hc        1 3UG      0.072450
     28 H8         -1.5760    1.5320    6.4010 hc        1 3UG      0.072450
     29 H9         -3.5930    0.3540    5.6290 hc        1 3UG      0.065700
     30 H10        -2.6450   -0.7680    6.6840 hc        1 3UG      0.065700
     31 H11        -1.7160   -1.9440    4.7500 hc        1 3UG      0.072450
     32 H12        -3.5130   -1.8430    4.5400 hc        1 3UG      0.072450
     33 H43         3.0290    1.6220   -2.5480 hn        1 3UG      0.455133
@<TRIPOS>BOND
     1    1    2 ar  
     2    1    3 ar  
     3    1    7 1   
     4    2    5 ar  
     5    2    8 1   
     6    3    6 1   
     7    3   12 ar  
     8    4    5 ar  
     9    4   12 ar  
    10    4   13 1   
    11    5   14 1   
    12    8    9 2   
    13    8   10 1   
    14    8   11 2   
    15   10   21 1   
    16   10   22 1   
    17   10   33 1   
    18   12   15 1   
    19   15   16 1   
    20   15   17 1   
    21   16   20 1   
    22   16   23 1   
    23   16   24 1   
    24   17   18 1   
    25   17   25 1   
    26   17   26 1   
    27   18   19 1   
    28   18   27 1   
    29   18   28 1   
    30   19   20 1   
    31   19   29 1   
    32   19   30 1   
    33   20   31 1   
    34   20   32 1   
@<TRIPOS>SUBSTRUCTURE
     1 3UG         1 TEMP              0 ****  ****    0 ROOT
