@<TRIPOS>MOLECULE
3UG
   33    34     1     0     0
SMALL
bcc


@<TRIPOS>ATOM
      1 C11         0.0800   -0.5540   -0.1910 ca        1 3UG      0.273900
      2 C5          1.4210   -0.0580   -0.1160 ca        1 3UG     -0.670500
      3 C10        -0.8510   -0.3870    0.8390 ca        1 3UG     -0.011100
      4 C7          0.7810    0.9260    2.0860 ca        1 3UG     -0.011100
      5 C6          1.6800    0.7560    1.0340 ca        1 3UG      0.273900
      6 F14        -2.1100   -0.8440    0.6220 f         1 3UG     -0.099400
      7 F13        -0.3150   -1.2000   -1.3060 f         1 3UG     -0.090900
      8 S1          2.5630   -0.4580   -1.1580 sy        1 3UG      1.508200
      9 O3          2.1400   -1.1500   -2.2690 o         1 3UG     -0.560300
     10 N4          2.8390    1.2870   -1.9160 nz        1 3UG     -0.784500
     11 O2          3.8130   -0.6660   -0.6230 o         1 3UG     -0.560300
     12 C9         -0.5270    0.2910    2.0820 ca        1 3UG      0.297600
     13 F12         1.1880    1.6770    3.1380 f         1 3UG     -0.099400
     14 F8          2.8730    1.3910    1.1010 f         1 3UG     -0.090900
     15 N20        -1.3830    0.3220    3.1250 nh        1 3UG     -0.580000
     16 C15        -2.3770   -0.7320    3.3430 c3        1 3UG      0.184300
     17 C19        -1.4560    1.4040    4.1030 c3        1 3UG      0.184300
     18 C18        -1.4220    0.9160    5.5500 c3        1 3UG     -0.094400
     19 C17        -2.5060   -0.1110    5.7890 c3        1 3UG     -0.089400
     20 C16        -2.4020   -1.2370    4.7870 c3        1 3UG     -0.094400
     21 H1          2.6090    1.2890   -2.9070 hn        1 3UG      0.455133
     22 H2          3.8160    1.5600   -1.8190 hn        1 3UG      0.455133
     23 H3         -3.3860   -0.3120    3.0640 h1        1 3UG      0.081950
     24 H4         -2.1580   -1.6130    2.6760 h1        1 3UG      0.081950
     25 H5         -0.6430    2.1610    3.9400 h1        1 3UG      0.081950
     26 H6         -2.4470    1.9180    3.9160 h1        1 3UG      0.081950
     27 H7         -0.4160    0.4820    5.7890 hc        1 3UG      0.072200
     28 H8         -1.5760    1.8070    6.2140 hc        1 3UG      0.072200
     29 H9         -3.5140    0.3770    5.7100 hc        1 3UG      0.065700
     30 H10        -2.4150   -0.5230    6.8280 hc        1 3UG      0.065700
     31 H11        -3.2860   -1.9220    4.8820 hc        1 3UG      0.072200
     32 H12        -1.4800   -1.8410    4.9910 hc        1 3UG      0.072200
     33 H43         2.2740    1.9960   -1.4590 hn        1 3UG      0.455133
@<TRIPOS>BOND
     1    1    2 ar  
     2    1    3 ar  
     3    1    7 1   
     4    2    5 ar  
     5    2    8 1   
     6    3    6 1   
     7    3   12 ar  
     8    4    5 ar  
     9    4   12 ar  
    10    4   13 1   
    11    5   14 1   
    12    8    9 2   
    13    8   10 1   
    14    8   11 2   
    15   10   21 1   
    16   10   22 1   
    17   10   33 1   
    18   12   15 1   
    19   15   16 1   
    20   15   17 1   
    21   16   20 1   
    22   16   23 1   
    23   16   24 1   
    24   17   18 1   
    25   17   25 1   
    26   17   26 1   
    27   18   19 1   
    28   18   27 1   
    29   18   28 1   
    30   19   20 1   
    31   19   29 1   
    32   19   30 1   
    33   20   31 1   
    34   20   32 1   
@<TRIPOS>SUBSTRUCTURE
     1 3UG         1 TEMP              0 ****  ****    0 ROOT
