@<TRIPOS>MOLECULE
3UH
   48    50     1     0     0
SMALL
bcc


@<TRIPOS>ATOM
      1 O1         -0.9570    0.1190   -0.1990 os        1 3UH     -0.329900
      2 C2         -0.6050    1.3440    0.4350 c3        1 3UH      0.032400
      3 C3         -1.8140    1.9920    1.0650 c         1 3UH      0.592100
      4 O4         -1.8410    2.5470    2.1610 o         1 3UH     -0.469000
      5 O6         -3.0160    1.9850    0.4170 oh        1 3UH     -0.587100
      6 C9         -1.2580    0.1720   -1.5560 ca        1 3UH      0.095100
      7 C10        -2.3230   -0.6180   -2.0250 ca        1 3UH     -0.150600
      8 C11        -3.2040   -1.4900   -1.1860 c         1 3UH      0.682700
      9 N12        -3.4810   -1.1120    0.1100 ns        1 3UH     -0.563900
     10 C14        -4.4040   -1.8280    0.9450 c3        1 3UH      0.137300
     11 C15        -5.6870   -1.0960    1.2360 ca        1 3UH     -0.117300
     12 C16        -6.8880   -1.8100    1.1990 ca        1 3UH     -0.059000
     13 C17        -8.0870   -1.1540    1.5180 ca        1 3UH     -0.177200
     14 N18        -9.3650   -1.9130    1.4890 no        1 3UH      0.313200
     15 O19        -9.3420   -3.0850    1.2240 o         1 3UH     -0.209000
     16 O20       -10.3900   -1.3350    1.7330 o         1 3UH     -0.209000
     17 C21        -8.0990    0.2070    1.8610 ca        1 3UH     -0.068000
     18 C22        -6.8940    0.9050    1.8830 ca        1 3UH     -0.137000
     19 C23        -5.6950    0.2620    1.5750 ca        1 3UH     -0.081000
     20 O30        -3.7040   -2.5250   -1.6740 o         1 3UH     -0.602100
     21 C31        -2.5690   -0.6570   -3.4040 ca        1 3UH     -0.053000
     22 C33        -1.7900    0.0770   -4.3060 cp        1 3UH     -0.042000
     23 C34        -2.0750    0.0320   -5.7380 cp        1 3UH     -0.052000
     24 C35        -1.9790    1.1940   -6.5170 ca        1 3UH     -0.114000
     25 C36        -2.2540    1.1490   -7.8820 ca        1 3UH     -0.128500
     26 C38        -2.6240   -0.0540   -8.4840 ca        1 3UH     -0.118000
     27 C39        -2.7200   -1.2140   -7.7150 ca        1 3UH     -0.128500
     28 C40        -2.4490   -1.1740   -6.3490 ca        1 3UH     -0.114000
     29 C45        -0.7220    0.8430   -3.8160 ca        1 3UH     -0.078000
     30 C47        -0.4490    0.8830   -2.4540 ca        1 3UH     -0.182000
     31 H1         -0.1110    2.0750   -0.2540 h1        1 3UH      0.102200
     32 H2          0.1130    1.0330    1.2470 h1        1 3UH      0.102200
     33 H4         -2.9070    1.6460   -0.4850 ho        1 3UH      0.437000
     34 H5         -4.6390   -2.8200    0.4570 h1        1 3UH      0.076700
     35 H6         -3.8990   -2.0360    1.9360 h1        1 3UH      0.076700
     36 H7         -6.8960   -2.8790    0.9220 ha        1 3UH      0.174000
     37 H8         -9.0480    0.7130    2.1060 ha        1 3UH      0.170000
     38 H9         -6.8890    1.9730    2.1480 ha        1 3UH      0.152000
     39 H10        -4.7550    0.8400    1.5980 ha        1 3UH      0.156000
     40 H11        -3.3960   -1.2900   -3.7740 ha        1 3UH      0.174000
     41 H12        -1.6950    2.1470   -6.0460 ha        1 3UH      0.137000
     42 H13        -2.1800    2.0660   -8.4850 ha        1 3UH      0.136500
     43 H14        -2.8400   -0.0870   -9.5620 ha        1 3UH      0.136000
     44 H15        -3.0100   -2.1650   -8.1870 ha        1 3UH      0.136500
     45 H16        -2.5210   -2.0940   -5.7480 ha        1 3UH      0.137000
     46 H17        -0.0830    1.4030   -4.5180 ha        1 3UH      0.149000
     47 H18         0.4180    1.4550   -2.0910 ha        1 3UH      0.145000
     48 H122       -3.0300   -0.3210    0.5020 hn        1 3UH      0.316500
@<TRIPOS>BOND
     1    1    2 1   
     2    1    6 1   
     3    2    3 1   
     4    2   31 1   
     5    2   32 1   
     6    3    4 2   
     7    3    5 1   
     8    5   33 1   
     9    6    7 ar  
    10    6   30 ar  
    11    7    8 1   
    12    7   21 ar  
    13    8    9 1   
    14    8   20 2   
    15    9   10 1   
    16    9   48 1   
    17   10   11 1   
    18   10   34 1   
    19   10   35 1   
    20   11   12 ar  
    21   11   19 ar  
    22   12   13 ar  
    23   12   36 1   
    24   13   14 1   
    25   13   17 ar  
    26   14   15 1   
    27   14   16 1   
    28   17   18 ar  
    29   17   37 1   
    30   18   19 ar  
    31   18   38 1   
    32   19   39 1   
    33   21   22 ar  
    34   21   40 1   
    35   22   23 1   
    36   22   29 ar  
    37   23   24 ar  
    38   23   28 ar  
    39   24   25 ar  
    40   24   41 1   
    41   25   26 ar  
    42   25   42 1   
    43   26   27 ar  
    44   26   43 1   
    45   27   28 ar  
    46   27   44 1   
    47   28   45 1   
    48   29   30 ar  
    49   29   46 1   
    50   30   47 1   
@<TRIPOS>SUBSTRUCTURE
     1 3UH         1 TEMP              0 ****  ****    0 ROOT
