@<TRIPOS>MOLECULE
3UH
   48    50     1     0     0
SMALL
bcc


@<TRIPOS>ATOM
      1 O1         -0.9420   -0.0860   -0.2150 os        1 3UH     -0.329900
      2 C2         -0.4800    1.1150    0.3910 c3        1 3UH      0.032400
      3 C3         -1.6250    1.8770    1.0160 c         1 3UH      0.592100
      4 O4         -1.5970    2.4520    2.1020 o         1 3UH     -0.469000
      5 O6         -2.8280    1.9600    0.3750 oh        1 3UH     -0.586100
      6 C9         -1.2440   -0.0350   -1.5730 ca        1 3UH      0.095100
      7 C10        -2.3770   -0.7380   -2.0220 ca        1 3UH     -0.150600
      8 C11        -3.3320   -1.5070   -1.1640 c         1 3UH      0.681700
      9 N12        -3.5580   -1.0880    0.1290 n         1 3UH     -0.563900
     10 C14        -4.5360   -1.7030    0.9820 c3        1 3UH      0.137300
     11 C15        -5.7450   -0.8510    1.2660 ca        1 3UH     -0.117300
     12 C16        -7.0070   -1.4530    1.2430 ca        1 3UH     -0.059000
     13 C17        -8.1390   -0.6840    1.5560 ca        1 3UH     -0.177200
     14 N18        -9.4820   -1.3210    1.5410 no        1 3UH      0.313200
     15 O19        -9.5690   -2.4940    1.2930 o         1 3UH     -0.209500
     16 O20       -10.4490   -0.6470    1.7800 o         1 3UH     -0.209500
     17 C21        -8.0240    0.6770    1.8810 ca        1 3UH     -0.069000
     18 C22        -6.7590    1.2600    1.8900 ca        1 3UH     -0.137000
     19 C23        -5.6260    0.5050    1.5870 ca        1 3UH     -0.080000
     20 O30        -3.9380   -2.4930   -1.6340 o         1 3UH     -0.600100
     21 C31        -2.6290   -0.7850   -3.4010 ca        1 3UH     -0.053000
     22 C33        -1.7920   -0.1410   -4.3190 cp        1 3UH     -0.042000
     23 C34        -2.0900   -0.1870   -5.7490 cp        1 3UH     -0.051000
     24 C35        -3.4130   -0.0770   -6.2020 ca        1 3UH     -0.113500
     25 C36        -3.6940   -0.1180   -7.5660 ca        1 3UH     -0.128000
     26 C38        -2.6620   -0.2740   -8.4900 ca        1 3UH     -0.118000
     27 C39        -1.3440   -0.3880   -8.0470 ca        1 3UH     -0.128000
     28 C40        -1.0560   -0.3440   -6.6850 ca        1 3UH     -0.113500
     29 C45        -0.6600    0.5390   -3.8480 ca        1 3UH     -0.078000
     30 C47        -0.3800    0.5830   -2.4870 ca        1 3UH     -0.182000
     31 H1          0.2150    0.7610    1.2040 h1        1 3UH      0.102200
     32 H2          0.0670    1.7890   -0.3150 h1        1 3UH      0.102200
     33 H4         -3.0270   -0.3420    0.5090 hn        1 3UH      0.316500
     34 H5         -4.8650   -2.6770    0.5120 h1        1 3UH      0.076700
     35 H6         -4.0460   -1.9390    1.9730 h1        1 3UH      0.076700
     36 H7         -7.1150   -2.5200    0.9800 ha        1 3UH      0.174000
     37 H8         -8.9210    1.2720    2.1220 ha        1 3UH      0.170000
     38 H9         -6.6550    2.3280    2.1400 ha        1 3UH      0.152000
     39 H10        -4.6360    0.9940    1.5980 ha        1 3UH      0.156000
     40 H11        -3.5010   -1.3640   -3.7570 ha        1 3UH      0.175000
     41 H12        -4.2310    0.0470   -5.4760 ha        1 3UH      0.135500
     42 H13        -4.7340   -0.0300   -7.9120 ha        1 3UH      0.137000
     43 H14        -2.8860   -0.3080   -9.5670 ha        1 3UH      0.136000
     44 H15        -0.5280   -0.5160   -8.7740 ha        1 3UH      0.137000
     45 H16        -0.0160   -0.4450   -6.3400 ha        1 3UH      0.135500
     46 H17         0.0160    1.0380   -4.5610 ha        1 3UH      0.149000
     47 H18         0.5330    1.0880   -2.1380 ha        1 3UH      0.145000
     48 H122       -2.7560    1.5950   -0.5200 ho        1 3UH      0.437000
@<TRIPOS>BOND
     1    1    2 1   
     2    1    6 1   
     3    2    3 1   
     4    2   31 1   
     5    2   32 1   
     6    3    4 2   
     7    3    5 1   
     8    5   48 1   
     9    6    7 ar  
    10    6   30 ar  
    11    7    8 1   
    12    7   21 ar  
    13    8    9 1   
    14    8   20 2   
    15    9   10 1   
    16    9   33 1   
    17   10   11 1   
    18   10   34 1   
    19   10   35 1   
    20   11   12 ar  
    21   11   19 ar  
    22   12   13 ar  
    23   12   36 1   
    24   13   14 1   
    25   13   17 ar  
    26   14   15 1   
    27   14   16 1   
    28   17   18 ar  
    29   17   37 1   
    30   18   19 ar  
    31   18   38 1   
    32   19   39 1   
    33   21   22 ar  
    34   21   40 1   
    35   22   23 1   
    36   22   29 ar  
    37   23   24 ar  
    38   23   28 ar  
    39   24   25 ar  
    40   24   41 1   
    41   25   26 ar  
    42   25   42 1   
    43   26   27 ar  
    44   26   43 1   
    45   27   28 ar  
    46   27   44 1   
    47   28   45 1   
    48   29   30 ar  
    49   29   46 1   
    50   30   47 1   
@<TRIPOS>SUBSTRUCTURE
     1 3UH         1 TEMP              0 ****  ****    0 ROOT
