@<TRIPOS>MOLECULE
3UJ
   86    91     1     0     0
SMALL
bcc


@<TRIPOS>ATOM
      1 C7          0.0000    0.0000    0.0000 ca        1 3UJ     -0.090000
      2 C6          4.7420   -0.2430   10.4800 ca        1 3UJ     -0.048000
      3 C5          2.0770    0.0000    1.1950 ca        1 3UJ     -0.066000
      4 C4          2.8440    1.0000   11.2370 ca        1 3UJ     -0.063000
      5 C3          1.3800    0.0000    0.0000 ca        1 3UJ     -0.075000
      6 C2          4.1890    0.6710   11.3330 ca        1 3UJ     -0.120000
      7 C8          2.0450    0.4200   10.2740 ca        1 3UJ     -0.107000
      8 C9          1.3990    0.0120    2.3980 ca        1 3UJ     -0.156000
      9 C10        -2.8720   -0.9130    1.9940 ca        1 3UJ     -0.010000
     10 C11        -4.9670    0.0140    1.2270 ca        1 3UJ     -0.130000
     11 C12        -2.8770    0.9260    0.4330 ca        1 3UJ      0.012000
     12 C13         3.0450   -2.0360    7.8100 cc        1 3UJ     -0.259100
     13 C14        -4.2670   -0.9110    2.0020 ca        1 3UJ      0.069000
     14 C15         3.9510   -0.8460    9.5010 ca        1 3UJ     -0.118800
     15 C16        -0.6950    0.0070    1.2050 cp        1 3UJ     -0.069000
     16 C17        -2.1790    0.0060    1.2100 cp        1 3UJ      0.011000
     17 C18        -4.2720    0.9340    0.4450 ca        1 3UJ     -0.203600
     18 C19         4.2060   -1.8380    8.4540 cd        1 3UJ     -0.089400
     19 C20         2.5880   -0.5130    9.3960 ca        1 3UJ     -0.215200
     20 C21         0.0120    0.0120    2.4130 ca        1 3UJ      0.056600
     21 C22        -5.0130    1.9140   -0.3770 c         1 3UJ      0.422700
     22 C23       -12.9960    4.0200   -2.4970 c3        1 3UJ     -0.038900
     23 C24       -12.7920    2.4930   -2.5680 c3        1 3UJ     -0.038900
     24 C25       -11.5830    4.6030   -2.2810 c3        1 3UJ      0.135300
     25 C26       -11.2730    2.2820   -2.3880 c3        1 3UJ      0.135300
     26 C27        -0.3380    1.2110    4.4180 c3        1 3UJ      0.100800
     27 C28        -0.4080   -1.2080    4.3900 c3        1 3UJ      0.100800
     28 C29        -1.1700    1.2200    5.7020 c3        1 3UJ      0.170800
     29 C30        -1.2400   -1.1990    5.6760 c3        1 3UJ      0.170800
     30 C31         5.5220   -2.5080    8.1560 c3        1 3UJ      0.078100
     31 C32        -8.5990    2.6800   -0.9960 c3        1 3UJ     -0.038400
     32 C33         0.6740   -1.2040    7.9070 c3        1 3UJ     -0.077700
     33 C34        -9.3650    3.6950   -1.8470 c3        1 3UJ      0.134800
     34 N37        -5.5370   -2.5990    3.4610 n1        1 3UJ     -0.300800
     35 N38         2.0680   -1.2490    8.3560 na        1 3UJ      0.352600
     36 N39        -0.6750    0.0190    3.6270 nh        1 3UJ     -0.445000
     37 N40       -10.8090    3.4940   -1.6660 n3        1 3UJ     -0.586600
     38 N41        -0.9020   -0.0060    6.4650 n3        1 3UJ     -0.534600
     39 N42        -6.3610    1.9190   -0.3700 ny        1 3UJ      0.109200
     40 O43        -4.4070    2.7170   -1.0600 o         1 3UJ     -0.443100
     41 H1         -0.5930   -0.0110   -0.9070 ha        1 3UJ      0.106000
     42 H2          5.7660   -0.4830   10.2180 ha        1 3UJ      0.112000
     43 H3          3.1410    0.1570    1.3270 ha        1 3UJ      0.117000
     44 H4          2.5340    1.7890   11.9110 ha        1 3UJ      0.103000
     45 H5          1.7340    0.0080   -1.0240 ha        1 3UJ      0.117000
     46 H6          4.9000    1.2900   11.8660 ha        1 3UJ      0.106000
     47 H7          0.9850    0.5730   10.1130 ha        1 3UJ      0.104000
     48 H8          2.2180    0.0900    3.1030 ha        1 3UJ      0.141000
     49 H9         -2.1770   -1.4570    2.6210 ha        1 3UJ      0.161000
     50 H10        -5.9110   -0.5010    1.0920 ha        1 3UJ      0.133000
     51 H11        -2.4620    1.3730   -0.4620 ha        1 3UJ      0.136000
     52 H12         2.6760   -2.4960    6.9010 h4        1 3UJ      0.128000
     53 H13       -13.4200    4.2070   -1.5180 hc        1 3UJ      0.024450
     54 H14       -14.0150    4.2700   -2.7640 hc        1 3UJ      0.024450
     55 H15       -13.6960    2.0340   -2.1870 hc        1 3UJ      0.024450
     56 H16       -12.9560    2.0560   -3.5450 hc        1 3UJ      0.024450
     57 H17       -11.6450    5.4430   -1.5990 h1        1 3UJ      0.034450
     58 H18       -11.0250    4.5630   -3.2090 h1        1 3UJ      0.034450
     59 H19       -10.9680    2.0130   -1.3840 h1        1 3UJ      0.034450
     60 H20       -10.6740    1.5380   -2.8990 h1        1 3UJ      0.034450
     61 H21        -0.7290    1.9120    3.6900 h1        1 3UJ      0.025450
     62 H22         0.7280    1.1280    4.2430 h1        1 3UJ      0.025450
     63 H23         0.5900   -1.6140    4.2790 h1        1 3UJ      0.025450
     64 H24        -0.6820   -2.1020    3.8430 h1        1 3UJ      0.025450
     65 H25        -1.0030    2.0340    6.3970 h1        1 3UJ      0.043450
     66 H26        -2.2420    1.0620    5.7020 h1        1 3UJ      0.043450
     67 H27        -2.3160   -1.1130    5.5850 h1        1 3UJ      0.043450
     68 H28        -0.8120   -2.0280    6.2270 h1        1 3UJ      0.043450
     69 H29         5.4070   -2.9470    7.1720 hc        1 3UJ      0.001367
     70 H30         6.1130   -1.7640    7.6360 hc        1 3UJ      0.001367
     71 H31         6.0700   -3.2830    8.6790 hc        1 3UJ      0.001367
     72 H32        -8.4850    1.6810   -1.3980 hc        1 3UJ      0.033700
     73 H33        -9.1570    2.6060   -0.0700 hc        1 3UJ      0.033700
     74 H34         0.3590   -0.7870    8.8560 h1        1 3UJ      0.052200
     75 H35         0.1520   -2.1060    7.6120 h1        1 3UJ      0.052200
     76 H36        -9.2650    3.2400   -2.8250 h1        1 3UJ      0.061200
     77 H37        -9.3290    4.7040   -1.4530 h1        1 3UJ      0.061200
     78 H38         0.9480   -0.4590    6.0200 h1        1 3UJ      0.020700
     79 H39         1.3100    0.6290    7.1300 h1        1 3UJ      0.020700
     80 H40        -6.9410    2.4500   -2.1620 hx        1 3UJ      0.082700
     81 H41        -6.7510    3.8770   -1.4700 hx        1 3UJ      0.082700
     82 H44        -7.0160    2.1530    0.3490 hn        1 3UJ      0.283800
     83 C35         0.4950   -0.0520    6.9160 c3        1 3UJ      0.094800
     84 C36        -7.0940    2.8900   -1.1840 c3        1 3UJ     -0.063200
     85 H422       -6.8600    1.1380   -0.7480 hn        1 3UJ      0.283800
     86 C1         -4.9800   -1.8570    2.8070 cg        1 3UJ      0.178800
@<TRIPOS>BOND
     1    1    5 ar  
     2    1   15 ar  
     3    1   41 1   
     4    2    6 ar  
     5    2   14 ar  
     6    2   42 1   
     7    3    5 ar  
     8    3    8 ar  
     9    3   43 1   
    10    4    6 ar  
    11    4    7 ar  
    12    4   44 1   
    13    5   45 1   
    14    6   46 1   
    15    7   19 ar  
    16    7   47 1   
    17    8   20 ar  
    18    8   48 1   
    19    9   13 ar  
    20    9   16 ar  
    21    9   49 1   
    22   10   13 ar  
    23   10   17 ar  
    24   10   50 1   
    25   11   16 ar  
    26   11   17 ar  
    27   11   51 1   
    28   12   18 2   
    29   12   35 1   
    30   12   52 1   
    31   13   86 1   
    32   14   18 1   
    33   14   19 ar  
    34   15   16 1   
    35   15   20 ar  
    36   17   21 1   
    37   18   30 1   
    38   19   35 1   
    39   20   36 1   
    40   21   39 1   
    41   21   40 2   
    42   22   23 1   
    43   22   24 1   
    44   22   53 1   
    45   22   54 1   
    46   23   25 1   
    47   23   55 1   
    48   23   56 1   
    49   24   37 1   
    50   24   57 1   
    51   24   58 1   
    52   25   37 1   
    53   25   59 1   
    54   25   60 1   
    55   26   28 1   
    56   26   36 1   
    57   26   61 1   
    58   26   62 1   
    59   27   29 1   
    60   27   36 1   
    61   27   63 1   
    62   27   64 1   
    63   28   38 1   
    64   28   65 1   
    65   28   66 1   
    66   29   38 1   
    67   29   67 1   
    68   29   68 1   
    69   30   69 1   
    70   30   70 1   
    71   30   71 1   
    72   31   33 1   
    73   31   72 1   
    74   31   73 1   
    75   31   84 1   
    76   32   35 1   
    77   32   74 1   
    78   32   75 1   
    79   32   83 1   
    80   33   37 1   
    81   33   76 1   
    82   33   77 1   
    83   34   86 3   
    84   38   83 1   
    85   39   82 1   
    86   39   84 1   
    87   39   85 1   
    88   78   83 1   
    89   79   83 1   
    90   80   84 1   
    91   81   84 1   
@<TRIPOS>SUBSTRUCTURE
     1 3UJ         1 TEMP              0 ****  ****    0 ROOT
