@<TRIPOS>MOLECULE
3UJ
   86    91     1     0     0
SMALL
bcc


@<TRIPOS>ATOM
      1 C7          0.1890   -0.3950   -0.7190 ca        1 3UJ     -0.110000
      2 C6          3.7180    1.2260   10.7660 ca        1 3UJ     -0.080000
      3 C5          2.3000   -0.1590    0.4180 ca        1 3UJ     -0.092000
      4 C4          1.4510    2.1090   10.8310 ca        1 3UJ     -0.111000
      5 C3          1.5640   -0.1970   -0.7670 ca        1 3UJ     -0.124000
      6 C2          2.8040    2.1760   11.2020 ca        1 3UJ     -0.155000
      7 C8          0.9700    1.0950   10.0150 ca        1 3UJ     -0.149000
      8 C9          1.6610   -0.3190    1.6430 ca        1 3UJ     -0.150000
      9 C10        -2.4950   -1.8880    1.1250 ca        1 3UJ      0.009000
     10 C11        -4.7130   -1.1560    0.4370 ca        1 3UJ     -0.076000
     11 C12        -2.7440    0.1430   -0.1660 ca        1 3UJ     -0.033000
     12 C13         2.9490   -1.6320    8.6040 cc        1 3UJ     -0.120100
     13 C14        -3.8870   -2.0750    1.0900 ca        1 3UJ      0.006000
     14 C15         3.2750    0.1930    9.9410 ca        1 3UJ     -0.090800
     15 C16        -0.4710   -0.5680    0.5060 cp        1 3UJ     -0.073000
     16 C17        -1.9200   -0.7760    0.4960 cp        1 3UJ      0.008000
     17 C18        -4.1380   -0.0400   -0.1870 ca        1 3UJ     -0.211600
     18 C19         3.9270   -0.9430    9.3140 cd        1 3UJ     -0.119400
     19 C20         1.8810    0.1280    9.5650 ca        1 3UJ     -0.045200
     20 C21         0.2690   -0.5320    1.7130 ca        1 3UJ      0.114600
     21 C22        -4.9200    0.9660   -0.9030 c         1 3UJ      0.574700
     22 C23       -12.2120    5.4450   -1.3130 c3        1 3UJ     -0.093900
     23 C24       -12.5330    4.0700   -1.8830 c3        1 3UJ     -0.093900
     24 C25       -10.9070    5.2880   -0.5180 c3        1 3UJ      0.158300
     25 C26       -11.4160    3.1340   -1.3970 c3        1 3UJ      0.158300
     26 C27        -0.4650    0.5370    3.7390 c3        1 3UJ      0.131300
     27 C28         0.0860   -1.8310    3.7370 c3        1 3UJ      0.131300
     28 C29        -1.1780    0.3500    5.0960 c3        1 3UJ      0.168300
     29 C30        -0.6300   -1.9790    5.0980 c3        1 3UJ      0.168300
     30 C31         5.3420   -1.2940    9.4330 c3        1 3UJ     -0.027900
     31 C32        -8.5130    2.3750   -0.5830 c3        1 3UJ     -0.117400
     32 C33         0.5390   -1.2950    7.9810 c3        1 3UJ      0.044300
     33 C34        -9.0750    3.7440   -1.0000 c3        1 3UJ      0.183800
     34 N37        -4.9370   -4.1390    2.2390 n1        1 3UJ     -0.289800
     35 N38         1.6900   -1.0280    8.7870 na        1 3UJ     -0.079400
     36 N39        -0.4220   -0.7010    2.9620 nh        1 3UJ     -0.635000
     37 N40       -10.4560    3.8950   -0.5920 n3        1 3UJ     -0.732600
     38 N41        -0.7070   -0.7670    5.8940 n3        1 3UJ     -0.723600
     39 N42        -6.3950    1.0470   -0.5360 n4        1 3UJ     -0.677800
     40 O43        -4.5370    1.7650   -1.7460 o         1 3UJ     -0.420100
     41 H1         -0.3920   -0.4260   -1.6540 ha        1 3UJ      0.136000
     42 H2          4.7750    1.2760   11.0650 ha        1 3UJ      0.138000
     43 H3          3.3890    0.0010    0.3850 ha        1 3UJ      0.152000
     44 H4          0.7570    2.8800   11.1990 ha        1 3UJ      0.130000
     45 H5          2.0700   -0.0710   -1.7370 ha        1 3UJ      0.151000
     46 H6          3.1400    2.9970   11.8530 ha        1 3UJ      0.133000
     47 H7         -0.0910    1.0450    9.7370 ha        1 3UJ      0.130000
     48 H8          2.2560   -0.2760    2.5700 ha        1 3UJ      0.149000
     49 H9         -1.8540   -2.6200    1.6490 ha        1 3UJ      0.184000
     50 H10        -5.7960   -1.3510    0.4130 ha        1 3UJ      0.134000
     51 H11        -2.2960    1.0160   -0.6730 ha        1 3UJ      0.174000
     52 H12         3.0410   -2.5410    8.0090 h4        1 3UJ      0.162000
     53 H13       -12.0850    6.1990   -2.1290 hc        1 3UJ      0.058700
     54 H14       -13.0320    5.8040   -0.6440 hc        1 3UJ      0.058700
     55 H15       -13.5260    3.7080   -1.5220 hc        1 3UJ      0.058700
     56 H16       -12.5640    4.0940   -3.0000 hc        1 3UJ      0.058700
     57 H17       -11.0810    5.5120    0.5710 h1        1 3UJ      0.046200
     58 H18       -10.1330    6.0100   -0.8990 h1        1 3UJ      0.046200
     59 H19       -11.8400    2.3350   -0.7290 h1        1 3UJ      0.046200
     60 H20       -10.9260    2.6260   -2.2730 h1        1 3UJ      0.046200
     61 H21        -1.0330    1.2990    3.1390 h1        1 3UJ      0.043700
     62 H22         0.5710    0.9460    3.9250 h1        1 3UJ      0.043700
     63 H23        -0.0950   -2.7650    3.1370 h1        1 3UJ      0.043700
     64 H24         1.1970   -1.7500    3.9180 h1        1 3UJ      0.043700
     65 H25        -1.0750    1.3090    5.6750 h1        1 3UJ      0.062200
     66 H26        -2.2750    0.1710    4.9090 h1        1 3UJ      0.062200
     67 H27        -1.6890   -2.3200    4.9190 h1        1 3UJ      0.062200
     68 H28        -0.0970   -2.7810    5.6790 h1        1 3UJ      0.062200
     69 H29         5.6100   -2.1260    8.7360 hc        1 3UJ      0.043367
     70 H30         5.5750   -1.6210   10.4790 hc        1 3UJ      0.043367
     71 H31         5.9850   -0.4090    9.1970 hc        1 3UJ      0.043367
     72 H32        -8.6540    2.2350    0.5220 hc        1 3UJ      0.072700
     73 H33        -9.0770    1.5610   -1.1100 hc        1 3UJ      0.072700
     74 H34        -0.3790   -1.0460    8.5880 h1        1 3UJ      0.066700
     75 H35         0.5250   -2.3970    7.7500 h1        1 3UJ      0.066700
     76 H36        -8.4660    4.5450   -0.4920 h1        1 3UJ      0.041700
     77 H37        -8.9290    3.8570   -2.1150 h1        1 3UJ      0.041700
     78 H38         1.4350   -0.7100    6.0650 h1        1 3UJ      0.045700
     79 H39         0.5260    0.6110    6.9220 h1        1 3UJ      0.045700
     80 H40        -6.9000    2.4430   -2.0630 hx        1 3UJ      0.113700
     81 H41        -6.4780    3.1690   -0.4410 hx        1 3UJ      0.113700
     82 H44        -6.4860    0.9320    0.4800 hn        1 3UJ      0.457800
     83 C35         0.5010   -0.4850    6.6570 c3        1 3UJ      0.130800
     84 C36        -7.0370    2.3310   -0.9480 c3        1 3UJ      0.104800
     85 H422       -6.8840    0.2660   -0.9870 hn        1 3UJ      0.457800
     86 C1         -4.4660   -3.2100    1.7210 cg        1 3UJ      0.196800
@<TRIPOS>BOND
     1    1    5 ar  
     2    1   15 ar  
     3    1   41 1   
     4    2    6 ar  
     5    2   14 ar  
     6    2   42 1   
     7    3    5 ar  
     8    3    8 ar  
     9    3   43 1   
    10    4    6 ar  
    11    4    7 ar  
    12    4   44 1   
    13    5   45 1   
    14    6   46 1   
    15    7   19 ar  
    16    7   47 1   
    17    8   20 ar  
    18    8   48 1   
    19    9   13 ar  
    20    9   16 ar  
    21    9   49 1   
    22   10   13 ar  
    23   10   17 ar  
    24   10   50 1   
    25   11   16 ar  
    26   11   17 ar  
    27   11   51 1   
    28   12   18 2   
    29   12   35 1   
    30   12   52 1   
    31   13   86 1   
    32   14   18 1   
    33   14   19 ar  
    34   15   16 1   
    35   15   20 ar  
    36   17   21 1   
    37   18   30 1   
    38   19   35 1   
    39   20   36 1   
    40   21   39 1   
    41   21   40 2   
    42   22   23 1   
    43   22   24 1   
    44   22   53 1   
    45   22   54 1   
    46   23   25 1   
    47   23   55 1   
    48   23   56 1   
    49   24   37 1   
    50   24   57 1   
    51   24   58 1   
    52   25   37 1   
    53   25   59 1   
    54   25   60 1   
    55   26   28 1   
    56   26   36 1   
    57   26   61 1   
    58   26   62 1   
    59   27   29 1   
    60   27   36 1   
    61   27   63 1   
    62   27   64 1   
    63   28   38 1   
    64   28   65 1   
    65   28   66 1   
    66   29   38 1   
    67   29   67 1   
    68   29   68 1   
    69   30   69 1   
    70   30   70 1   
    71   30   71 1   
    72   31   33 1   
    73   31   72 1   
    74   31   73 1   
    75   31   84 1   
    76   32   35 1   
    77   32   74 1   
    78   32   75 1   
    79   32   83 1   
    80   33   37 1   
    81   33   76 1   
    82   33   77 1   
    83   34   86 3   
    84   38   83 1   
    85   39   82 1   
    86   39   84 1   
    87   39   85 1   
    88   78   83 1   
    89   79   83 1   
    90   80   84 1   
    91   81   84 1   
@<TRIPOS>SUBSTRUCTURE
     1 3UJ         1 TEMP              0 ****  ****    0 ROOT
