@<TRIPOS>MOLECULE
3UK
   50    53     1     0     0
SMALL
bcc


@<TRIPOS>ATOM
      1 C10         0.6010   -0.3170    0.1510 c3        1 3UK      0.215800
      2 C15        -0.8380    0.7790   -1.6130 ca        1 3UK      0.448800
      3 C17        -1.9090    0.1440   -3.5040 ca        1 3UK      0.658900
      4 C21         2.0000    0.0210    0.7690 c3        1 3UK      0.127100
      5 C26        -2.9410    4.6430    4.8590 ca        1 3UK     -0.198600
      6 C28        -5.2480    4.0180    5.3000 ca        1 3UK     -0.217000
      7 O01        -0.5180    4.8990    4.6000 o         1 3UK     -0.619000
      8 C02        -1.5540    4.2060    4.6620 c         1 3UK      0.700700
      9 O03        -1.3170    2.8960    4.5530 os        1 3UK     -0.536500
     10 P04         0.3260    2.4940    4.4250 p5        1 3UK      1.458800
     11 O05         0.7500    2.7950    3.0420 o         1 3UK     -0.809000
     12 O06         0.0020    0.8710    4.3660 os        1 3UK     -0.572200
     13 C07        -0.5990    0.3890    3.2070 c3        1 3UK      0.183400
     14 C08         0.3450   -0.5880    2.4870 c3        1 3UK      0.076100
     15 O09        -0.1930   -0.8990    1.1930 os        1 3UK     -0.419600
     16 N11        -0.0570    0.8220   -0.4470 na        1 3UK     -0.281000
     17 C12        -0.1790    2.1450    0.0610 cc        1 3UK      0.438700
     18 N13        -0.9370    2.9400   -0.7080 nd        1 3UK     -0.569100
     19 C14        -1.3730    2.1290   -1.7680 ca        1 3UK     -0.211200
     20 N16        -1.0970   -0.2350   -2.4930 nb        1 3UK     -0.723000
     21 N18        -2.4820    1.3510   -3.7680 nb        1 3UK     -0.798000
     22 C19        -2.2040    2.3810   -2.9040 ca        1 3UK      0.719200
     23 N20        -2.6670    3.6650   -3.1520 nv        1 3UK     -0.938500
     24 O22         2.9500   -0.9020    0.2940 oh        1 3UK     -0.586800
     25 C23         1.7650   -0.0240    2.2900 c3        1 3UK      0.069100
     26 O24         2.7340   -0.8830    2.8650 oh        1 3UK     -0.615800
     27 O25         1.0050    2.7310    5.6990 o         1 3UK     -0.809000
     28 C27        -3.9270    3.6670    5.0520 ca        1 3UK     -0.022000
     29 C29        -5.5990    5.3680    5.3630 ca        1 3UK     -0.067000
     30 C30        -4.6500    6.3560    5.1660 ca        1 3UK     -0.238000
     31 C31        -3.2950    6.0220    4.8860 ca        1 3UK      0.227600
     32 N32        -2.3920    7.0230    4.5840 nv        1 3UK     -0.846200
     33 H1          0.6910   -1.1240   -0.6360 h2        1 3UK      0.112700
     34 H2         -2.1550   -0.6520   -4.2380 h5        1 3UK      0.037100
     35 H3          2.3810    1.0270    0.4460 h1        1 3UK      0.105700
     36 H4         -6.0080    3.2400    5.4500 ha        1 3UK      0.126000
     37 H5         -0.8710    1.2330    2.5140 h1        1 3UK      0.039200
     38 H6         -1.5310   -0.1730    3.4930 h1        1 3UK      0.039200
     39 H7          0.3810   -1.5670    3.0380 h1        1 3UK      0.069700
     40 H8          0.3210    2.4590    1.0070 h5        1 3UK      0.155800
     41 H9         -3.4270    3.7680   -3.7810 hn        1 3UK      0.423300
     42 H10        -2.6410    4.2880   -2.3780 hn        1 3UK      0.423300
     43 H11         2.8890   -1.7000    0.8380 ho        1 3UK      0.419000
     44 H12         1.8340    1.0170    2.7290 h1        1 3UK      0.125700
     45 H13         2.6820   -0.7400    3.8190 ho        1 3UK      0.426000
     46 H15        -3.6260    2.6060    5.0090 ha        1 3UK      0.163000
     47 H16        -6.6420    5.6520    5.5710 ha        1 3UK      0.117000
     48 H17        -4.9490    7.4140    5.2150 ha        1 3UK      0.122000
     49 H18        -2.5960    7.9240    4.9420 hn        1 3UK      0.425300
     50 H19        -1.4260    6.7730    4.5410 hn        1 3UK      0.425300
@<TRIPOS>BOND
     1    1    4 1   
     2    1   15 1   
     3    1   16 1   
     4    1   33 1   
     5    2   16 1   
     6    2   19 ar  
     7    2   20 ar  
     8    3   20 ar  
     9    3   21 ar  
    10    3   34 1   
    11    4   24 1   
    12    4   25 1   
    13    4   35 1   
    14    5    8 1   
    15    5   28 ar  
    16    5   31 ar  
    17    6   28 ar  
    18    6   29 ar  
    19    6   36 1   
    20    7    8 2   
    21    8    9 1   
    22    9   10 1   
    23   10   11 1   
    24   10   12 1   
    25   10   27 1   
    26   12   13 1   
    27   13   14 1   
    28   13   37 1   
    29   13   38 1   
    30   14   15 1   
    31   14   25 1   
    32   14   39 1   
    33   16   17 1   
    34   17   18 2   
    35   17   40 1   
    36   18   19 1   
    37   19   22 ar  
    38   21   22 ar  
    39   22   23 1   
    40   23   41 1   
    41   23   42 1   
    42   24   43 1   
    43   25   26 1   
    44   25   44 1   
    45   26   45 1   
    46   28   46 1   
    47   29   30 ar  
    48   29   47 1   
    49   30   31 ar  
    50   30   48 1   
    51   31   32 1   
    52   32   49 1   
    53   32   50 1   
@<TRIPOS>SUBSTRUCTURE
     1 3UK         1 TEMP              0 ****  ****    0 ROOT
