@<TRIPOS>MOLECULE
3UK
   50    53     1     0     0
SMALL
bcc


@<TRIPOS>ATOM
      1 C10         0.2130   -0.5240    0.3690 c3        1 3UK      0.222800
      2 C15        -0.7010    0.6980   -1.6570 ca        1 3UK      0.440800
      3 C17         0.0660    1.3250   -3.6920 ca        1 3UK      0.671900
      4 C21         1.4330    0.3660    0.7790 c3        1 3UK      0.076100
      5 C26        -2.6680    4.8310    5.0490 ca        1 3UK     -0.193600
      6 C28        -5.0260    4.7570    4.4630 ca        1 3UK     -0.214000
      7 O01        -0.3590    4.4940    5.7910 o         1 3UK     -0.620000
      8 C02        -1.4220    4.0850    5.2790 c         1 3UK      0.697700
      9 O03        -1.3880    2.7990    4.9340 os        1 3UK     -0.534500
     10 P04         0.0700    2.0080    5.3370 p5        1 3UK      1.449800
     11 O05         1.0680    2.4320    4.3390 o         1 3UK     -0.801000
     12 O06        -0.4900    0.5710    4.7290 os        1 3UK     -0.557200
     13 C07        -0.6740    0.5000    3.3560 c3        1 3UK      0.189400
     14 C08         0.2860   -0.5260    2.7330 c3        1 3UK      0.108100
     15 O09        -0.3350   -1.0920    1.5550 os        1 3UK     -0.419600
     16 N11        -0.8220    0.1900   -0.3570 na        1 3UK     -0.272000
     17 C12        -2.1450    0.4690    0.0520 cc        1 3UK      0.441700
     18 N13        -2.8750    1.1060   -0.8800 nd        1 3UK     -0.568100
     19 C14        -2.0080    1.2710   -1.9700 ca        1 3UK     -0.213200
     20 N16         0.3600    0.7170   -2.5220 nb        1 3UK     -0.740000
     21 N18        -1.0930    1.9020   -4.1160 nb        1 3UK     -0.798000
     22 C19        -2.1650    1.8740   -3.2600 ca        1 3UK      0.734200
     23 N20        -3.3980    2.3660   -3.6470 nh        1 3UK     -0.941500
     24 O22         2.5930   -0.0400    0.0880 oh        1 3UK     -0.594800
     25 C23         1.6250    0.0870    2.2880 c3        1 3UK      0.109100
     26 O24         2.6300   -0.8850    2.5170 oh        1 3UK     -0.591800
     27 O25         0.1430    1.8600    6.7910 o         1 3UK     -0.801000
     28 C27        -3.8030    4.1210    4.6410 ca        1 3UK     -0.026000
     29 C29        -5.1250    6.1290    4.7000 ca        1 3UK     -0.071000
     30 C30        -4.0180    6.8620    5.0940 ca        1 3UK     -0.235000
     31 C31        -2.7500    6.2360    5.2600 ca        1 3UK      0.219600
     32 N32        -1.6380    7.0100    5.5430 nh        1 3UK     -0.842200
     33 H1          0.5520   -1.3890   -0.2790 h2        1 3UK      0.092700
     34 H2          0.8980    1.3710   -4.4260 h5        1 3UK      0.042100
     35 H3          1.2320    1.4580    0.6090 h1        1 3UK      0.073700
     36 H4         -5.9060    4.1840    4.1440 ha        1 3UK      0.126000
     37 H5         -0.5270    1.5090    2.8800 h1        1 3UK      0.030200
     38 H6         -1.7270    0.1420    3.1590 h1        1 3UK      0.030200
     39 H7          0.4420   -1.3960    3.4260 h1        1 3UK      0.108700
     40 H8         -2.4880    0.1730    1.0550 h5        1 3UK      0.095800
     41 H9         -3.4390    2.9630   -4.4380 hn        1 3UK      0.428800
     42 H10        -4.0530    2.5300   -2.9190 hn        1 3UK      0.428800
     43 H11         2.4780    0.2320   -0.8330 ho        1 3UK      0.419000
     44 H12         1.8630    1.0390    2.8440 h1        1 3UK      0.145700
     45 H13         3.4460   -0.5260    2.1460 ho        1 3UK      0.411000
     46 H15        -3.7050    3.0340    4.4710 ha        1 3UK      0.162000
     47 H16        -6.0930    6.6370    4.5730 ha        1 3UK      0.116000
     48 H17        -4.1170    7.9420    5.2720 ha        1 3UK      0.121000
     49 H18        -1.8120    7.8590    6.0260 hn        1 3UK      0.420800
     50 H19        -0.8060    6.5240    5.8090 hn        1 3UK      0.420800
@<TRIPOS>BOND
     1    1    4 1   
     2    1   15 1   
     3    1   16 1   
     4    1   33 1   
     5    2   16 1   
     6    2   19 ar  
     7    2   20 ar  
     8    3   20 ar  
     9    3   21 ar  
    10    3   34 1   
    11    4   24 1   
    12    4   25 1   
    13    4   35 1   
    14    5    8 1   
    15    5   28 ar  
    16    5   31 ar  
    17    6   28 ar  
    18    6   29 ar  
    19    6   36 1   
    20    7    8 2   
    21    8    9 1   
    22    9   10 1   
    23   10   11 1   
    24   10   12 1   
    25   10   27 1   
    26   12   13 1   
    27   13   14 1   
    28   13   37 1   
    29   13   38 1   
    30   14   15 1   
    31   14   25 1   
    32   14   39 1   
    33   16   17 1   
    34   17   18 2   
    35   17   40 1   
    36   18   19 1   
    37   19   22 ar  
    38   21   22 ar  
    39   22   23 1   
    40   23   41 1   
    41   23   42 1   
    42   24   43 1   
    43   25   26 1   
    44   25   44 1   
    45   26   45 1   
    46   28   46 1   
    47   29   30 ar  
    48   29   47 1   
    49   30   31 ar  
    50   30   48 1   
    51   31   32 1   
    52   32   49 1   
    53   32   50 1   
@<TRIPOS>SUBSTRUCTURE
     1 3UK         1 TEMP              0 ****  ****    0 ROOT
