@<TRIPOS>MOLECULE
3UL
   43    45     1     0     0
SMALL
bcc


@<TRIPOS>ATOM
      1 C1          0.0740    0.2580    0.0810 ca        1 3UL     -0.107600
      2 C2          1.3740   -0.2480    0.2030 ca        1 3UL     -0.208800
      3 C3          1.9640   -0.2680    1.4800 ca        1 3UL      0.390200
      4 C4          0.1030    0.6750    2.4520 ca        1 3UL      0.390200
      5 C5         -0.5790    0.7350    1.2220 ca        1 3UL     -0.208800
      6 C6         -2.6940   -0.1280   -2.4800 ca        1 3UL      0.088600
      7 C8         -3.1420    0.4090   -4.8130 ca        1 3UL     -0.143300
      8 C9         -2.7190    1.1140   -6.0980 c3        1 3UL      0.688200
      9 C12        -3.9330   -0.8500   -2.4350 ca        1 3UL      0.065600
     10 F2         -3.2690    0.5900   -7.2440 f         1 3UL     -0.235633
     11 F          -3.0610    2.4450   -6.1440 f         1 3UL     -0.235633
     12 F1         -1.3680    1.1060   -6.3400 f         1 3UL     -0.235633
     13 C7         -2.3240    0.4970   -3.6910 ca        1 3UL     -0.112000
     14 C10        -4.3440   -0.2940   -4.7750 ca        1 3UL     -0.105000
     15 C11        -4.7290   -0.9140   -3.5920 ca        1 3UL     -0.136000
     16 N2         -4.3320   -1.4820   -1.2070 nh        1 3UL     -0.638000
     17 C17        -5.6010   -0.9710   -0.6980 c3        1 3UL      0.172300
     18 C16        -6.0080   -1.6160    0.6250 c3        1 3UL     -0.078900
     19 C15        -6.0110   -3.1250    0.5190 c3        1 3UL     -0.080400
     20 C14        -4.6760   -3.6250    0.0110 c3        1 3UL     -0.078900
     21 C13        -4.2920   -2.9400   -1.2990 c3        1 3UL      0.172300
     22 N1         -1.9000   -0.0300   -1.3280 ns        1 3UL     -0.458100
     23 C          -0.5510    0.2990   -1.2760 c         1 3UL      0.673700
     24 O           0.1180    0.6090   -2.2780 o         1 3UL     -0.574100
     25 N           1.3480    0.1810    2.5910 nb        1 3UL     -0.647000
     26 H1          1.9200   -0.6070   -0.6810 ha        1 3UL      0.158500
     27 H2          2.9870   -0.6610    1.6220 h4        1 3UL      0.029600
     28 H3         -0.3740    1.0450    3.3770 h4        1 3UL      0.029600
     29 H4         -1.5890    1.1650    1.1750 ha        1 3UL      0.158500
     30 H5         -1.3730    1.0570   -3.7670 ha        1 3UL      0.190000
     31 H6         -4.9790   -0.3610   -5.6720 ha        1 3UL      0.154000
     32 H7         -5.6790   -1.4720   -3.5680 ha        1 3UL      0.143000
     33 H8         -5.4800    0.1390   -0.5470 h1        1 3UL      0.037950
     34 H9         -6.4380   -1.1250   -1.4420 h1        1 3UL      0.037950
     35 H10        -5.3040   -1.2960    1.4360 hc        1 3UL      0.049450
     36 H11        -7.0310   -1.2450    0.8950 hc        1 3UL      0.049450
     37 H12        -6.8260   -3.4520   -0.1800 hc        1 3UL      0.043700
     38 H13        -6.2280   -3.5760    1.5220 hc        1 3UL      0.043700
     39 H14        -3.8850   -3.4380    0.7830 hc        1 3UL      0.049450
     40 H15        -4.7200   -4.7290   -0.1710 hc        1 3UL      0.049450
     41 H16        -3.2390   -3.2310   -1.5720 h1        1 3UL      0.037950
     42 H17        -4.9750   -3.3170   -2.1150 h1        1 3UL      0.037950
     43 H18        -2.3120   -0.3660   -0.4820 hn        1 3UL      0.342500
@<TRIPOS>BOND
     1    1    2 ar  
     2    1    5 ar  
     3    1   23 1   
     4    2    3 ar  
     5    2   26 1   
     6    3   25 ar  
     7    3   27 1   
     8    4    5 ar  
     9    4   25 ar  
    10    4   28 1   
    11    5   29 1   
    12    6    9 ar  
    13    6   13 ar  
    14    6   22 1   
    15    7    8 1   
    16    7   13 ar  
    17    7   14 ar  
    18    8   10 1   
    19    8   11 1   
    20    8   12 1   
    21    9   15 ar  
    22    9   16 1   
    23   13   30 1   
    24   14   15 ar  
    25   14   31 1   
    26   15   32 1   
    27   16   17 1   
    28   16   21 1   
    29   17   18 1   
    30   17   33 1   
    31   17   34 1   
    32   18   19 1   
    33   18   35 1   
    34   18   36 1   
    35   19   20 1   
    36   19   37 1   
    37   19   38 1   
    38   20   21 1   
    39   20   39 1   
    40   20   40 1   
    41   21   41 1   
    42   21   42 1   
    43   22   23 1   
    44   22   43 1   
    45   23   24 2   
@<TRIPOS>SUBSTRUCTURE
     1 3UL         1 TEMP              0 ****  ****    0 ROOT
