@<TRIPOS>MOLECULE
3UL
   43    45     1     0     0
SMALL
bcc


@<TRIPOS>ATOM
      1 C1         -0.1290    0.1580    0.1120 ca        1 3UL     -0.106600
      2 C2          1.2680    0.1220    0.1810 ca        1 3UL     -0.209300
      3 C3          1.8680   -0.0710    1.4390 ca        1 3UL      0.390200
      4 C4         -0.1740   -0.1690    2.4960 ca        1 3UL      0.390200
      5 C5         -0.8720    0.0150    1.2880 ca        1 3UL     -0.209300
      6 C6         -2.7100   -0.3190   -2.6240 ca        1 3UL      0.088600
      7 C8         -3.0690    0.2880   -4.9540 ca        1 3UL     -0.144300
      8 C9         -2.5460    0.9260   -6.2370 c3        1 3UL      0.688200
      9 C12        -4.0410   -0.8520   -2.5830 ca        1 3UL      0.065600
     10 F2         -1.1990    0.7610   -6.4520 f         1 3UL     -0.235633
     11 F          -3.1280    0.4490   -7.3880 f         1 3UL     -0.235633
     12 F1         -2.7350    2.2850   -6.3080 f         1 3UL     -0.235633
     13 C7         -2.2480    0.2480   -3.8320 ca        1 3UL     -0.111000
     14 C10        -4.3620   -0.2310   -4.9210 ca        1 3UL     -0.105000
     15 C11        -4.8340   -0.7970   -3.7430 ca        1 3UL     -0.136000
     16 N2         -4.5270   -1.4330   -1.3610 nh        1 3UL     -0.638000
     17 C17        -5.6350   -0.6710   -0.7890 c3        1 3UL      0.170800
     18 C16        -6.1400   -1.2600    0.5260 c3        1 3UL     -0.078400
     19 C15        -6.4830   -2.7260    0.3730 c3        1 3UL     -0.080400
     20 C14        -5.3080   -3.4900   -0.1980 c3        1 3UL     -0.078400
     21 C13        -4.8190   -2.8580   -1.5000 c3        1 3UL      0.170800
     22 N1         -1.8890   -0.3980   -1.4880 n         1 3UL     -0.458100
     23 C          -0.7730    0.3840   -1.2190 c         1 3UL      0.673700
     24 O          -0.2990    1.2030   -2.0260 o         1 3UL     -0.575100
     25 N           1.1690   -0.2170    2.5820 nb        1 3UL     -0.647000
     26 H1          1.8780    0.2560   -0.7250 ha        1 3UL      0.158000
     27 H2          2.9680   -0.1090    1.5390 h4        1 3UL      0.029600
     28 H3         -0.7210   -0.2820    3.4500 h4        1 3UL      0.029600
     29 H4         -1.9700    0.0600    1.2910 ha        1 3UL      0.158000
     30 H5         -1.2270    0.6680   -3.9010 ha        1 3UL      0.189000
     31 H6         -4.9980   -0.1970   -5.8190 ha        1 3UL      0.154000
     32 H7         -5.8570   -1.2060   -3.7210 ha        1 3UL      0.143000
     33 H8         -6.5030   -0.6050   -1.5100 h1        1 3UL      0.038450
     34 H9         -5.2630    0.3760   -0.6070 h1        1 3UL      0.038450
     35 H10        -7.0470   -0.6820    0.8430 hc        1 3UL      0.048950
     36 H11        -5.3610   -1.1360    1.3220 hc        1 3UL      0.048950
     37 H12        -6.7670   -3.1550    1.3680 hc        1 3UL      0.044200
     38 H13        -7.3690   -2.8360   -0.3060 hc        1 3UL      0.044200
     39 H14        -4.4730   -3.5120    0.5500 hc        1 3UL      0.048950
     40 H15        -5.6030   -4.5490   -0.4120 hc        1 3UL      0.048950
     41 H16        -5.5930   -3.0440   -2.3010 h1        1 3UL      0.038450
     42 H17        -3.8660   -3.3650   -1.8210 h1        1 3UL      0.038450
     43 H18        -2.2200   -0.9830   -0.7490 hn        1 3UL      0.341500
@<TRIPOS>BOND
     1    1    2 ar  
     2    1    5 ar  
     3    1   23 1   
     4    2    3 ar  
     5    2   26 1   
     6    3   25 ar  
     7    3   27 1   
     8    4    5 ar  
     9    4   25 ar  
    10    4   28 1   
    11    5   29 1   
    12    6    9 ar  
    13    6   13 ar  
    14    6   22 1   
    15    7    8 1   
    16    7   13 ar  
    17    7   14 ar  
    18    8   10 1   
    19    8   11 1   
    20    8   12 1   
    21    9   15 ar  
    22    9   16 1   
    23   13   30 1   
    24   14   15 ar  
    25   14   31 1   
    26   15   32 1   
    27   16   17 1   
    28   16   21 1   
    29   17   18 1   
    30   17   33 1   
    31   17   34 1   
    32   18   19 1   
    33   18   35 1   
    34   18   36 1   
    35   19   20 1   
    36   19   37 1   
    37   19   38 1   
    38   20   21 1   
    39   20   39 1   
    40   20   40 1   
    41   21   41 1   
    42   21   42 1   
    43   22   23 1   
    44   22   43 1   
    45   23   24 2   
@<TRIPOS>SUBSTRUCTURE
     1 3UL         1 TEMP              0 ****  ****    0 ROOT
