@<TRIPOS>MOLECULE
3UM
   53    55     1     0     0
SMALL
bcc


@<TRIPOS>ATOM
      1 C1          0.0620    0.1770   -0.1330 c3        1 3UM      0.160800
      2 C2          1.6030   -0.0210   -0.0710 c3        1 3UM     -0.184000
      3 C3         -0.4830    1.4050    0.6620 c3        1 3UM     -0.006000
      4 O1         -0.5250   -0.9560    0.5540 oh        1 3UM     -0.624800
      5 O2         -0.3010    1.3260   -2.3440 oh        1 3UM     -0.635800
      6 O3          3.1350    1.8660   -0.3340 o         1 3UM     -0.834800
      7 C11        -2.0630    0.0430   -1.4680 c3        1 3UM     -0.069400
      8 C12         1.5600    1.2460    2.1270 c3        1 3UM     -0.078400
      9 C13        -2.6720    1.1790   -0.6630 c3        1 3UM     -0.045700
     10 C14        -2.6320    2.4730    1.4810 c3        1 3UM     -0.051200
     11 C15        -4.1950    1.0100   -0.5780 c3        1 3UM     -0.018500
     12 C16        -4.0810    2.6650    1.2660 c2        1 3UM     -0.134200
     13 C17        -4.8090    2.0350    0.3250 ce        1 3UM     -0.103200
     14 C18        -4.6200   -0.3820   -0.1420 c3        1 3UM     -0.085100
     15 C19        -6.2240    2.3470    0.1720 ce        1 3UM     -0.107000
     16 C20        -7.0570    1.8120   -0.7230 c2        1 3UM     -0.240000
     17 C4         -0.5410    0.1730   -1.5690 c3        1 3UM      0.148100
     18 C5          2.0500    0.0210    1.3920 c3        1 3UM     -0.040400
     19 C6          2.4540    0.9790   -0.9170 c         1 3UM      0.917600
     20 C7          1.9950   -1.3990   -0.6110 c3        1 3UM     -0.078100
     21 C8         -2.0300    1.2990    0.7180 c3        1 3UM     -0.047700
     22 C9          0.0510    1.3290    2.0980 c3        1 3UM     -0.064400
     23 C10        -0.0450    2.7220    0.0400 c3        1 3UM     -0.106100
     24 O4          2.4730    0.8150   -2.1750 o         1 3UM     -0.834800
     25 H1         -0.3380   -1.7330    0.0180 ho        1 3UM      0.388000
     26 H2          0.6600    1.4270   -2.4440 ho        1 3UM      0.461000
     27 H4         -2.2970   -0.9430   -0.9920 hc        1 3UM      0.037200
     28 H5         -2.4980    0.0500   -2.5010 hc        1 3UM      0.037200
     29 H6          1.9070    1.2070    3.1930 hc        1 3UM      0.046200
     30 H7          2.0100    2.1590    1.6480 hc        1 3UM      0.046200
     31 H8         -2.4740    2.1370   -1.2240 hc        1 3UM      0.066700
     32 H9         -2.4420    2.3290    2.5800 hc        1 3UM      0.052200
     33 H10        -2.1210    3.4300    1.1810 hc        1 3UM      0.052200
     34 H11        -4.5930    1.1800   -1.6220 hc        1 3UM      0.043700
     35 H12        -4.5500    3.4120    1.9290 ha        1 3UM      0.103000
     36 H13        -4.0480   -0.7080    0.7590 hc        1 3UM      0.032033
     37 H14        -4.4390   -1.1160   -0.9640 hc        1 3UM      0.032033
     38 H15        -5.7100   -0.3930    0.1040 hc        1 3UM      0.032033
     39 H16        -6.6050    3.1080    0.8790 ha        1 3UM      0.106000
     40 H17        -6.7510    1.0530   -1.4540 ha        1 3UM      0.107000
     41 H18        -8.1120    2.1080   -0.7770 ha        1 3UM      0.107000
     42 H19        -0.1310   -0.7260   -2.1140 h1        1 3UM      0.024700
     43 H20         1.6700   -0.8980    1.9140 hc        1 3UM      0.027700
     44 H21         3.1710    0.0050    1.4170 hc        1 3UM      0.027700
     45 H22         1.5800   -2.2290    0.0090 hc        1 3UM      0.025033
     46 H23         1.6610   -1.5130   -1.6690 hc        1 3UM      0.025033
     47 H24         3.1100   -1.4840   -0.5960 hc        1 3UM      0.025033
     48 H25        -2.2690    0.3540    1.2870 hc        1 3UM      0.059700
     49 H26        -0.3850    0.4240    2.5990 hc        1 3UM      0.025200
     50 H27        -0.2840    2.2340    2.6690 hc        1 3UM      0.025200
     51 H28        -0.1030    3.5450    0.7950 hc        1 3UM      0.049367
     52 H29         1.0140    2.6630   -0.3150 hc        1 3UM      0.049367
     53 H30        -0.6860    2.9910   -0.8330 hc        1 3UM      0.049367
@<TRIPOS>BOND
     1    1    2 1   
     2    1    3 1   
     3    1    4 1   
     4    1   17 1   
     5    2   18 1   
     6    2   19 1   
     7    2   20 1   
     8    3   21 1   
     9    3   22 1   
    10    3   23 1   
    11    4   25 1   
    12    5   17 1   
    13    5   26 1   
    14    6   19 1   
    15    7    9 1   
    16    7   17 1   
    17    7   27 1   
    18    7   28 1   
    19    8   18 1   
    20    8   22 1   
    21    8   29 1   
    22    8   30 1   
    23    9   11 1   
    24    9   21 1   
    25    9   31 1   
    26   10   12 1   
    27   10   21 1   
    28   10   32 1   
    29   10   33 1   
    30   11   13 1   
    31   11   14 1   
    32   11   34 1   
    33   12   13 2   
    34   12   35 1   
    35   13   15 1   
    36   14   36 1   
    37   14   37 1   
    38   14   38 1   
    39   15   16 2   
    40   15   39 1   
    41   16   40 1   
    42   16   41 1   
    43   17   42 1   
    44   18   43 1   
    45   18   44 1   
    46   19   24 1   
    47   20   45 1   
    48   20   46 1   
    49   20   47 1   
    50   21   48 1   
    51   22   49 1   
    52   22   50 1   
    53   23   51 1   
    54   23   52 1   
    55   23   53 1   
@<TRIPOS>SUBSTRUCTURE
     1 3UM         1 TEMP              0 ****  ****    0 ROOT
