@<TRIPOS>MOLECULE
3UN
   64    64     1     0     0
SMALL
bcc


@<TRIPOS>ATOM
      1 N           5.7240   -0.5960   -0.7650 nh        1 3UN     -0.719500
      2 O48         0.3880    1.2320    1.9900 o         1 3UN     -0.514000
      3 C36        -0.1420    1.0930    0.8910 c         1 3UN      0.645600
      4 O49        -0.2420    2.1920    0.0760 os        1 3UN     -0.442400
      5 C51         0.4850    3.3620    0.5000 c3        1 3UN      0.136400
      6 C54         0.4550    4.3220   -0.6640 c3        1 3UN     -0.100600
      7 C11        -0.7540   -0.1440    0.2630 c3        1 3UN     -0.119000
      8 C15        -2.2060    0.1470   -0.1460 c3        1 3UN     -0.112400
      9 C44        -3.0880    0.4860    1.0590 c3        1 3UN      0.067000
     10 N39        -4.3630    1.0720    0.7320 n         1 3UN     -0.508900
     11 C37        -5.4420    0.2470    0.4480 c         1 3UN      0.731100
     12 O38        -5.6060   -0.9350    0.7910 o         1 3UN     -0.588000
     13 O19        -6.4230    0.9180   -0.2510 os        1 3UN     -0.457900
     14 C20        -7.7310    0.3130   -0.4000 c3        1 3UN      0.186800
     15 C23        -8.3510    0.0150    0.9550 c3        1 3UN     -0.113100
     16 C22        -8.5280    1.4020   -1.1190 c3        1 3UN     -0.113100
     17 C21        -7.6490   -0.9350   -1.2630 c3        1 3UN     -0.113100
     18 C14        -0.7750   -1.2720    1.2770 c         1 3UN      0.645600
     19 O47        -0.6140   -2.5130    0.7260 os        1 3UN     -0.442400
     20 C50        -0.5970   -3.6210    1.6450 c3        1 3UN      0.136400
     21 C60        -0.2550   -4.8400    0.8230 c3        1 3UN     -0.100600
     22 O46        -0.9880   -1.2040    2.4890 o         1 3UN     -0.514000
     23 C35         0.0330   -0.5100   -1.0110 c3        1 3UN      0.006900
     24 C2          1.5090   -0.5200   -0.8680 ca        1 3UN     -0.211300
     25 C5          2.1940   -1.6760   -0.4840 ca        1 3UN     -0.074500
     26 C4          3.5790   -1.7070   -0.4350 ca        1 3UN     -0.226500
     27 C6          2.2600    0.6210   -1.1940 ca        1 3UN     -0.074500
     28 C3          3.6410    0.6130   -1.1560 ca        1 3UN     -0.226500
     29 C1          4.3540   -0.5650   -0.7840 ca        1 3UN      0.265600
     30 S12         6.8810    0.5780   -1.3090 s6        1 3UN      1.530700
     31 O17         6.9420    0.4500   -2.7160 o         1 3UN     -0.732200
     32 O18         8.0700    0.1560   -0.6580 o         1 3UN     -0.732200
     33 O34         6.4110    1.8470   -0.8940 o         1 3UN     -0.732200
     34 HN          6.0990   -1.4440   -0.4060 hn        1 3UN      0.409800
     35 H511        1.5340    3.0650    0.7670 h1        1 3UN      0.055700
     36 H512       -0.0250    3.7800    1.4060 h1        1 3UN      0.055700
     37 H541        0.9410    3.8620   -1.5590 hc        1 3UN      0.046200
     38 H542       -0.5950    4.5890   -0.9310 hc        1 3UN      0.046200
     39 H543        1.0100    5.2480   -0.3840 hc        1 3UN      0.046200
     40 H151       -2.1900    1.0050   -0.8710 hc        1 3UN      0.068700
     41 H152       -2.6130   -0.7520   -0.6770 hc        1 3UN      0.068700
     42 H441       -3.2640   -0.4480    1.6680 h1        1 3UN      0.085200
     43 H442       -2.5460    1.2320    1.7120 h1        1 3UN      0.085200
     44 H39        -4.3340    1.9330    0.2290 hn        1 3UN      0.309500
     45 H231       -8.3090    0.9230    1.6030 hc        1 3UN      0.050033
     46 H232       -9.4160   -0.2870    0.8190 hc        1 3UN      0.050033
     47 H233       -7.7990   -0.8140    1.4620 hc        1 3UN      0.050033
     48 H221       -8.0480    1.6480   -2.0950 hc        1 3UN      0.050033
     49 H222       -9.5650    1.0350   -1.2990 hc        1 3UN      0.050033
     50 H223       -8.5650    2.3260   -0.4950 hc        1 3UN      0.050033
     51 H211       -7.1060   -1.7480   -0.7220 hc        1 3UN      0.050033
     52 H212       -8.6790   -1.2860   -1.5080 hc        1 3UN      0.050033
     53 H213       -7.1050   -0.7090   -2.2110 hc        1 3UN      0.050033
     54 H501        0.1690   -3.4230    2.4400 h1        1 3UN      0.055700
     55 H502       -1.6090   -3.7030    2.1200 h1        1 3UN      0.055700
     56 H601        0.7330   -4.7050    0.3200 hc        1 3UN      0.046200
     57 H602       -0.2060   -5.7300    1.4950 hc        1 3UN      0.046200
     58 H603       -1.0280   -5.0150    0.0380 hc        1 3UN      0.046200
     59 H351       -0.3230   -1.5190   -1.3530 hc        1 3UN      0.057700
     60 H352       -0.2500    0.2430   -1.7970 hc        1 3UN      0.057700
     61 H5          1.6180   -2.5770   -0.2160 ha        1 3UN      0.116000
     62 H4          4.0840   -2.6320   -0.1240 ha        1 3UN      0.145500
     63 H6          1.7320    1.5470   -1.4770 ha        1 3UN      0.116000
     64 H3          4.2050    1.5310   -1.4010 ha        1 3UN      0.145500
@<TRIPOS>BOND
     1    1   29 1   
     2    1   30 1   
     3    1   34 1   
     4    2    3 2   
     5    3    4 1   
     6    3    7 1   
     7    4    5 1   
     8    5    6 1   
     9    5   35 1   
    10    5   36 1   
    11    6   37 1   
    12    6   38 1   
    13    6   39 1   
    14    7    8 1   
    15    7   18 1   
    16    7   23 1   
    17    8    9 1   
    18    8   40 1   
    19    8   41 1   
    20    9   10 1   
    21    9   42 1   
    22    9   43 1   
    23   10   11 1   
    24   10   44 1   
    25   11   12 2   
    26   11   13 1   
    27   13   14 1   
    28   14   15 1   
    29   14   16 1   
    30   14   17 1   
    31   15   45 1   
    32   15   46 1   
    33   15   47 1   
    34   16   48 1   
    35   16   49 1   
    36   16   50 1   
    37   17   51 1   
    38   17   52 1   
    39   17   53 1   
    40   18   19 1   
    41   18   22 2   
    42   19   20 1   
    43   20   21 1   
    44   20   54 1   
    45   20   55 1   
    46   21   56 1   
    47   21   57 1   
    48   21   58 1   
    49   23   24 1   
    50   23   59 1   
    51   23   60 1   
    52   24   25 ar  
    53   24   27 ar  
    54   25   26 ar  
    55   25   61 1   
    56   26   29 ar  
    57   26   62 1   
    58   27   28 ar  
    59   27   63 1   
    60   28   29 ar  
    61   28   64 1   
    62   30   31 1   
    63   30   32 1   
    64   30   33 1   
@<TRIPOS>SUBSTRUCTURE
     1 3UN         1 TEMP              0 ****  ****    0 ROOT
