@<TRIPOS>MOLECULE
3UN
   66    65     1     0     0
SMALL
bcc


@<TRIPOS>ATOM
      1 N           0.1320   -0.4870    0.2680 nh        1 3UN     -0.868200
      2 O48         6.4500   -3.6170   -0.6370 o         1 3UN     -0.578000
      3 C36         6.3740   -2.4140   -0.9190 c         1 3UN      0.642600
      4 O49         6.0560   -2.0570   -2.1850 os        1 3UN     -0.409900
      5 C51         5.6700   -3.1260   -3.0880 c3        1 3UN      0.138400
      6 C54         5.3120   -2.4540   -4.3890 c3        1 3UN     -0.109100
      7 C11         6.7360   -1.2500   -0.0120 c3        1 3UN     -0.139000
      8 C15         8.1840   -0.8230   -0.3410 c3        1 3UN     -0.104400
      9 C44         9.0870   -1.9120   -0.9090 c3        1 3UN      0.107800
     10 N39         9.2920   -3.0850   -0.0110 n4        1 3UN     -0.652800
     11 C37        10.2150   -4.0920   -0.6250 c         1 3UN      0.636100
     12 O38        10.1910   -4.3420   -1.8230 o         1 3UN     -0.446000
     13 O19        11.0070   -4.6120    0.3190 os        1 3UN     -0.419900
     14 C20        11.9340   -5.7270   -0.0350 c3        1 3UN      0.198800
     15 C23        12.9470   -5.2280   -1.0430 c3        1 3UN     -0.128433
     16 C22        12.5720   -6.0200    1.3150 c3        1 3UN     -0.128433
     17 C21        11.1290   -6.9010   -0.5470 c3        1 3UN     -0.128433
     18 C14         6.7470   -1.7250    1.4380 c         1 3UN      0.642600
     19 O47         6.0240   -0.9970    2.3080 os        1 3UN     -0.409900
     20 C50         6.0380   -1.4310    3.6960 c3        1 3UN      0.138400
     21 C60         5.1310   -0.4780    4.4300 c3        1 3UN     -0.109100
     22 O46         7.4330   -2.6620    1.8760 o         1 3UN     -0.578000
     23 C35         5.8120   -0.0420   -0.2400 c3        1 3UN     -0.007100
     24 C2          4.3510   -0.2680   -0.0710 ca        1 3UN     -0.132300
     25 C5          3.7100    0.0930    1.1200 ca        1 3UN     -0.083500
     26 C4          2.3310   -0.0180    1.2560 ca        1 3UN     -0.158000
     27 C6          3.5710   -0.7300   -1.1380 ca        1 3UN     -0.083500
     28 C3          2.1910   -0.8480   -1.0200 ca        1 3UN     -0.158000
     29 C1          1.5450   -0.4790    0.1790 ca        1 3UN      0.106600
     30 S12        -1.1150    1.6360   -0.4560 s4        1 3UN      1.807000
     31 O17        -0.0570    2.4050   -0.8050 o         1 3UN     -0.573733
     32 O18        -1.6170    1.7060    0.8020 o         1 3UN     -0.573733
     33 O34        -1.7420    0.8820   -1.3930 o         1 3UN     -0.693533
     34 HN         -0.2820   -1.1780   -0.3330 hn        1 3UN      0.406800
     35 H511        4.8020   -3.6740   -2.6360 h1        1 3UN      0.064700
     36 H512        6.5400   -3.8240   -3.1930 h1        1 3UN      0.064700
     37 H541        4.4670   -1.7370   -4.2460 hc        1 3UN      0.061867
     38 H542        6.1840   -1.8930   -4.8000 hc        1 3UN      0.061867
     39 H543        5.0030   -3.2380   -5.1230 hc        1 3UN      0.061867
     40 H151        8.6460   -0.3670    0.5750 hc        1 3UN      0.102200
     41 H152        8.1500   -0.0210   -1.1330 hc        1 3UN      0.102200
     42 H441       10.1010   -1.4640   -1.1250 hx        1 3UN      0.117700
     43 H442        8.6620   -2.3060   -1.8820 hx        1 3UN      0.117700
     44 H39         9.6580   -2.7820    0.9030 hn        1 3UN      0.495300
     45 H231       12.4600   -5.0120   -2.0250 hc        1 3UN      0.071256
     46 H232       13.7230   -6.0170   -1.1970 hc        1 3UN      0.071256
     47 H233       13.4480   -4.3020   -0.6710 hc        1 3UN      0.071256
     48 H221       13.1100   -5.1200    1.6990 hc        1 3UN      0.071256
     49 H222       11.7960   -6.3230    2.0580 hc        1 3UN      0.071256
     50 H223       13.3020   -6.8560    1.1850 hc        1 3UN      0.071256
     51 H211       10.6630   -6.6660   -1.5350 hc        1 3UN      0.071256
     52 H212       11.8090   -7.7790   -0.6750 hc        1 3UN      0.071256
     53 H213       10.3260   -7.1750    0.1800 hc        1 3UN      0.071256
     54 H501        7.0960   -1.3830    4.0640 h1        1 3UN      0.064700
     55 H502        5.6730   -2.4900    3.7370 h1        1 3UN      0.064700
     56 H601        4.0830   -0.5590    4.0520 hc        1 3UN      0.061867
     57 H602        5.1480   -0.7340    5.5180 hc        1 3UN      0.061867
     58 H603        5.4730    0.5770    4.2990 hc        1 3UN      0.061867
     59 H351        5.9910    0.3170   -1.2930 hc        1 3UN      0.077200
     60 H352        6.1450    0.7660    0.4690 hc        1 3UN      0.077200
     61 H5          4.3040    0.4730    1.9690 ha        1 3UN      0.144500
     62 H4          1.8580    0.2790    2.2050 ha        1 3UN      0.149000
     63 H6          4.0520   -0.9940   -2.0950 ha        1 3UN      0.144500
     64 H3          1.6050   -1.2100   -1.8800 ha        1 3UN      0.149000
     65 HN3        -0.1880   -0.6000    1.2140 hn        1 3UN      0.406800
     66 H392        8.3750   -3.5520    0.1830 hn        1 3UN      0.495300
@<TRIPOS>BOND
     1    1   29 1   
     2    1   34 1   
     3    1   65 1   
     4    2    3 2   
     5    3    4 1   
     6    3    7 1   
     7    4    5 1   
     8    5    6 1   
     9    5   35 1   
    10    5   36 1   
    11    6   37 1   
    12    6   38 1   
    13    6   39 1   
    14    7    8 1   
    15    7   18 1   
    16    7   23 1   
    17    8    9 1   
    18    8   40 1   
    19    8   41 1   
    20    9   10 1   
    21    9   42 1   
    22    9   43 1   
    23   10   11 1   
    24   10   44 1   
    25   10   66 1   
    26   11   12 2   
    27   11   13 1   
    28   13   14 1   
    29   14   15 1   
    30   14   16 1   
    31   14   17 1   
    32   15   45 1   
    33   15   46 1   
    34   15   47 1   
    35   16   48 1   
    36   16   49 1   
    37   16   50 1   
    38   17   51 1   
    39   17   52 1   
    40   17   53 1   
    41   18   19 1   
    42   18   22 2   
    43   19   20 1   
    44   20   21 1   
    45   20   54 1   
    46   20   55 1   
    47   21   56 1   
    48   21   57 1   
    49   21   58 1   
    50   23   24 1   
    51   23   59 1   
    52   23   60 1   
    53   24   25 ar  
    54   24   27 ar  
    55   25   26 ar  
    56   25   61 1   
    57   26   29 ar  
    58   26   62 1   
    59   27   28 ar  
    60   27   63 1   
    61   28   29 ar  
    62   28   64 1   
    63   30   31 1   
    64   30   32 1   
    65   30   33 2   
@<TRIPOS>SUBSTRUCTURE
     1 3UN         1 TEMP              0 ****  ****    0 ROOT
