@<TRIPOS>MOLECULE
3UN
   64    60     1     0     0
SMALL
bcc


@<TRIPOS>ATOM
      1 N          -6.0100   -1.5620   -1.2670 n3        1 3UN     -0.769000
      2 O48        -0.5170   -3.3860    1.4710 o         1 3UN     -0.356000
      3 C36        -0.0120   -2.2720    1.4580 c1        1 3UN      0.326000
      4 O49         0.3170   -1.6050    2.7100 o         1 3UN     -0.268000
      5 C51         0.4010   -2.4970    3.8540 c3        1 3UN     -0.010000
      6 C54         0.6150   -1.6590    5.1540 c3        1 3UN     -0.223000
      7 C11         0.3350   -1.5980    0.1180 c3        1 3UN     -0.019000
      8 C15        -0.1500   -0.1380    0.1390 c3        1 3UN     -0.184000
      9 C44         1.0430    0.7990   -0.0390 c3        1 3UN     -0.046000
     10 N39         0.6030    2.2010    0.1570 n         1 3UN     -0.314000
     11 C37         1.2910    3.2590   -0.4950 c2        1 3UN      0.383000
     12 O38         2.3230    3.0490   -1.0410 o         1 3UN     -0.407000
     13 O19         0.7460    4.5940   -0.4740 os        1 3UN     -0.291000
     14 C20         1.6680    5.6100   -0.9480 c3        1 3UN      0.115000
     15 C23         2.0940    5.2810   -2.3610 c3        1 3UN     -0.231333
     16 C22         2.8960    5.6450   -0.0350 c3        1 3UN     -0.231333
     17 C21         0.9680    7.0010   -0.9310 c3        1 3UN     -0.231333
     18 C14         1.8570   -1.6310   -0.0930 c2        1 3UN      0.314000
     19 O47         2.6420   -2.6650    0.5200 os        1 3UN     -0.276000
     20 C50         3.8990   -2.8840   -0.0970 c3        1 3UN     -0.011000
     21 C60         4.6870   -3.9630    0.7100 c3        1 3UN     -0.218000
     22 O46         2.3770   -0.8460   -0.8500 o         1 3UN     -0.347000
     23 C35        -0.3600   -2.3630   -1.0570 c3        1 3UN     -0.089000
     24 C2         -1.9240   -2.1860   -0.9590 c2        1 3UN     -0.199000
     25 C5         -2.6810   -3.0930   -0.2070 c2        1 3UN     -0.079000
     26 C4         -4.0600   -3.0410   -0.2420 c1        1 3UN     -0.204000
     27 C6         -2.5580   -1.2370   -1.7370 c1        1 3UN     -0.078000
     28 C3         -3.9610   -1.1830   -1.7720 c1        1 3UN     -0.247000
     29 C1         -4.7050   -2.0800   -1.0290 c1        1 3UN      0.181000
     30 S12        -7.1460   -2.4910   -2.0310 s4        1 3UN      2.051800
     31 O17        -7.4970   -3.6880   -1.2240 o         1 3UN     -0.663400
     32 O18        -8.4800   -1.7820   -2.1000 o         1 3UN     -0.663400
     33 O34        -6.6570   -2.8860   -3.4200 os        1 3UN     -1.054000
     34 HN         -6.2170   -0.7110   -1.0060 hn        1 3UN      0.206000
     35 H511       -0.4130   -2.9990    3.9290 h1        1 3UN      0.090500
     36 H512        1.1500   -3.1070    3.7350 h1        1 3UN      0.090500
     37 H541       -0.2600   -1.2480    5.4360 hc        1 3UN      0.092000
     38 H542        1.2740   -0.9460    4.9810 hc        1 3UN      0.092000
     39 H543        0.9550   -2.2580    5.8880 hc        1 3UN      0.092000
     40 H151       -0.5710    0.0420    0.9690 hc        1 3UN      0.118500
     41 H152       -0.7820    0.0020   -0.5800 hc        1 3UN      0.118500
     42 H441        1.4120    0.6950   -0.9490 h1        1 3UN      0.118500
     43 H442        1.7300    0.5780    0.6190 h1        1 3UN      0.118500
     44 H39        -0.1120    2.3830    0.6850 hn        1 3UN      0.229000
     45 H231        2.9140    4.7360   -2.3400 hc        1 3UN      0.089000
     46 H232        2.2730    6.1370   -2.8670 hc        1 3UN      0.089000
     47 H233        1.3900    4.7870   -2.8010 hc        1 3UN      0.089000
     48 H221        3.3050    6.5410   -0.0670 hc        1 3UN      0.089000
     49 H222        3.5590    4.9670   -0.3420 hc        1 3UN      0.089000
     50 H223        2.6150    5.4380    0.9100 hc        1 3UN      0.089000
     51 H211        0.7590    7.2470   -0.0180 hc        1 3UN      0.089000
     52 H212        0.1220    6.9560   -1.4680 hc        1 3UN      0.089000
     53 H213        1.5840    7.6920   -1.3310 hc        1 3UN      0.089000
     54 H501        3.7650   -3.1940   -1.0090 h1        1 3UN      0.090500
     55 H502        4.4210   -2.0280   -0.1100 h1        1 3UN      0.090500
     56 H601        4.2440   -4.8430    0.6060 hc        1 3UN      0.085667
     57 H602        5.5950   -4.0160    0.3760 hc        1 3UN      0.085667
     58 H603        4.7040   -3.7110    1.6780 hc        1 3UN      0.085667
     59 H351       -0.0410   -1.9990   -1.9170 hc        1 3UN      0.105500
     60 H352       -0.1310   -3.3370   -1.0020 hc        1 3UN      0.105500
     61 H5         -2.2300   -3.7670    0.3430 ha        1 3UN      0.123000
     62 H4         -4.5880   -3.6810    0.2860 ha        1 3UN      0.173000
     63 H6         -2.0450   -0.5640   -2.1770 ha        1 3UN      0.108000
     64 H3         -4.4220   -0.4960   -2.3380 ha        1 3UN      0.118000
@<TRIPOS>BOND
     1    1   29 1   
     2    1   30 1   
     3    1   34 1   
     4    2    3 1   
     5    3    7 1   
     6    4    5 1   
     7    5    6 1   
     8    5   35 1   
     9    5   36 1   
    10    6   37 1   
    11    6   38 1   
    12    6   39 1   
    13    7    8 1   
    14    7   18 1   
    15    7   23 1   
    16    8    9 1   
    17    8   40 1   
    18    8   41 1   
    19    9   10 1   
    20    9   42 1   
    21    9   43 1   
    22   10   11 1   
    23   10   44 1   
    24   11   12 1   
    25   11   13 1   
    26   13   14 1   
    27   14   15 1   
    28   14   16 1   
    29   14   17 1   
    30   15   45 1   
    31   15   46 1   
    32   15   47 1   
    33   16   48 1   
    34   16   49 1   
    35   16   50 1   
    36   17   51 1   
    37   17   52 1   
    38   17   53 1   
    39   18   19 1   
    40   18   22 1   
    41   19   20 1   
    42   20   21 1   
    43   20   54 1   
    44   20   55 1   
    45   21   56 1   
    46   21   57 1   
    47   21   58 1   
    48   23   24 1   
    49   23   59 1   
    50   23   60 1   
    51   24   25 1   
    52   24   27 1   
    53   25   26 1   
    54   25   61 1   
    55   26   62 1   
    56   27   63 1   
    57   28   29 1   
    58   28   64 1   
    59   30   31 1   
    60   30   32 1   
@<TRIPOS>SUBSTRUCTURE
     1 3UN         1 TEMP              0 ****  ****    0 ROOT
