@<TRIPOS>MOLECULE
3UR
   51    55     1     0     0
SMALL
bcc


@<TRIPOS>ATOM
      1 C14        -0.1410    0.5020   -0.1210 ca        1 3UR     -0.182000
      2 C8          1.2290    0.2750   -0.1760 ca        1 3UR     -0.076000
      3 C9          1.9340   -0.0710    0.9710 ca        1 3UR     -0.182000
      4 C10         1.2580   -0.1870    2.2000 ca        1 3UR      0.156400
      5 C11        -0.1330    0.0560    2.2980 cp        1 3UR     -0.109000
      6 C12        -0.8200    0.3940    1.1070 ca        1 3UR      0.156400
      7 F1          1.9720   -0.5340    3.2970 f         1 3UR     -0.130900
      8 F2         -2.1560    0.6140    1.1280 f         1 3UR     -0.130900
      9 C15         0.4090   -5.7220    7.4150 ca        1 3UR      0.234900
     10 C16         0.3370   -5.1710    6.0950 ca        1 3UR      0.491900
     11 N2         -0.2700   -3.9670    5.8690 nb        1 3UR     -0.647000
     12 C17        -0.7960   -3.3300    6.9450 ca        1 3UR      0.437800
     13 C13        -0.7150   -3.9060    8.2550 ca        1 3UR      0.267900
     14 N3         -0.1220   -5.0880    8.4760 nb        1 3UR     -0.585000
     15 N4          0.8340   -5.8730    4.9510 nh        1 3UR     -0.770300
     16 C18         1.1200   -7.2790    5.1460 c3        1 3UR      0.161800
     17 C19         1.1890   -7.9830    3.7630 c3        1 3UR      0.119500
     18 C20         2.2940   -7.3360    2.9270 c3        1 3UR     -0.109400
     19 C21         2.1190   -5.8350    2.8260 c3        1 3UR     -0.102400
     20 C22         1.8680   -5.1810    4.1860 c3        1 3UR      0.170800
     21 C1         -0.8310   -0.0200    3.5810 cp        1 3UR     -0.028000
     22 C2         -0.6660   -1.1110    4.4100 ca        1 3UR     -0.070000
     23 C3         -1.3510   -1.1410    5.6400 ca        1 3UR     -0.055000
     24 C4         -2.2130   -0.0230    6.0240 ca        1 3UR     -0.092000
     25 C5         -2.3590    1.0870    5.1480 ca        1 3UR     -0.073000
     26 C6         -1.6800    1.0700    3.9610 ca        1 3UR     -0.108000
     27 C7         -1.4350   -2.0460    6.7370 cc        1 3UR     -0.233900
     28 N1         -2.3030   -1.4370    7.6560 na        1 3UR      0.074800
     29 N5         -2.7680   -0.2700    7.2650 nc        1 3UR     -0.217400
     30 N6         -0.1430   -7.8970    3.0670 nz        1 3UR     -0.835600
     31 H1         -0.7070    0.7740   -1.0250 ha        1 3UR      0.158000
     32 H2          1.7610    0.3750   -1.1360 ha        1 3UR      0.151000
     33 H3          3.0190   -0.2450    0.9350 ha        1 3UR      0.158000
     34 H5         -1.1160   -3.3960    9.1480 h4        1 3UR      0.044100
     35 H6          0.3140   -7.7480    5.7770 h1        1 3UR      0.080200
     36 H7          2.1140   -7.4700    5.6480 h1        1 3UR      0.080200
     37 H8          1.4060   -9.0800    3.9220 hx        1 3UR      0.111700
     38 H9          2.3420   -7.7920    1.9030 hc        1 3UR      0.086700
     39 H10         3.2680   -7.5710    3.4380 hc        1 3UR      0.086700
     40 H11         3.0510   -5.3830    2.3940 hc        1 3UR      0.070200
     41 H12         1.2810   -5.5860    2.1230 hc        1 3UR      0.070200
     42 H13         2.8400   -5.1570    4.7610 h1        1 3UR      0.080200
     43 H14         1.5390   -4.1160    4.0150 h1        1 3UR      0.080200
     44 H15        -0.0020   -1.9400    4.1270 ha        1 3UR      0.144000
     45 H16        -3.0040    1.9300    5.4370 ha        1 3UR      0.160000
     46 H17        -1.7790    1.9130    3.2570 ha        1 3UR      0.150000
     47 H18        -2.5900   -1.8170    8.5330 hn        1 3UR      0.330700
     48 H19        -0.1100   -8.4070    2.1820 hn        1 3UR      0.463133
     49 H20        -0.8730   -8.2900    3.6670 hn        1 3UR      0.463133
     50 H63        -0.3660   -6.9100    2.8800 hn        1 3UR      0.463133
     51 H4          0.9120   -6.6780    7.6350 h4        1 3UR      0.034100
@<TRIPOS>BOND
     1    1    2 ar  
     2    1    6 ar  
     3    1   31 1   
     4    2    3 ar  
     5    2   32 1   
     6    3    4 ar  
     7    3   33 1   
     8    4    5 ar  
     9    4    7 1   
    10    5    6 ar  
    11    5   21 1   
    12    6    8 1   
    13    9   10 ar  
    14    9   14 ar  
    15    9   51 1   
    16   10   11 ar  
    17   10   15 1   
    18   11   12 ar  
    19   12   13 ar  
    20   12   27 1   
    21   13   14 ar  
    22   13   34 1   
    23   15   16 1   
    24   15   20 1   
    25   16   17 1   
    26   16   35 1   
    27   16   36 1   
    28   17   18 1   
    29   17   30 1   
    30   17   37 1   
    31   18   19 1   
    32   18   38 1   
    33   18   39 1   
    34   19   20 1   
    35   19   40 1   
    36   19   41 1   
    37   20   42 1   
    38   20   43 1   
    39   21   22 ar  
    40   21   26 ar  
    41   22   23 ar  
    42   22   44 1   
    43   23   24 ar  
    44   23   27 2   
    45   24   25 ar  
    46   24   29 2   
    47   25   26 ar  
    48   25   45 1   
    49   26   46 1   
    50   27   28 1   
    51   28   29 1   
    52   28   47 1   
    53   30   48 1   
    54   30   49 1   
    55   30   50 1   
@<TRIPOS>SUBSTRUCTURE
     1 3UR         1 TEMP              0 ****  ****    0 ROOT
