@<TRIPOS>MOLECULE
3UR
   51    55     1     0     0
SMALL
bcc


@<TRIPOS>ATOM
      1 C14        -0.1550    0.4980   -0.1240 ca        1 3UR     -0.182000
      2 C8          1.2160    0.2730   -0.1840 ca        1 3UR     -0.076000
      3 C9          1.9250   -0.0720    0.9610 ca        1 3UR     -0.182000
      4 C10         1.2530   -0.1860    2.1920 ca        1 3UR      0.156400
      5 C11        -0.1370    0.0550    2.2950 cp        1 3UR     -0.109000
      6 C12        -0.8290    0.3920    1.1070 ca        1 3UR      0.156400
      7 F1          1.9720   -0.5310    3.2880 f         1 3UR     -0.130900
      8 F2         -2.1650    0.6100    1.1310 f         1 3UR     -0.130900
      9 C15         0.4280   -5.7150    7.4170 ca        1 3UR      0.234900
     10 C16         0.3460   -5.1680    6.0960 ca        1 3UR      0.491900
     11 N2         -0.2620   -3.9640    5.8710 nb        1 3UR     -0.647000
     12 C17        -0.7810   -3.3250    6.9490 ca        1 3UR      0.437800
     13 C13        -0.6910   -3.8970    8.2600 ca        1 3UR      0.267900
     14 N3         -0.0960   -5.0780    8.4800 nb        1 3UR     -0.585000
     15 N4          0.8350   -5.8730    4.9510 nh        1 3UR     -0.770300
     16 C18         1.1230   -7.2790    5.1480 c3        1 3UR      0.162800
     17 C19         1.1820   -7.9870    3.7670 c3        1 3UR      0.119500
     18 C20         2.2810   -7.3410    2.9200 c3        1 3UR     -0.109400
     19 C21         2.1040   -5.8420    2.8170 c3        1 3UR     -0.102400
     20 C22         1.8630   -5.1830    4.1770 c3        1 3UR      0.170800
     21 C1         -0.8300   -0.0190    3.5810 cp        1 3UR     -0.028000
     22 C2         -0.6620   -1.1090    4.4110 ca        1 3UR     -0.070000
     23 C3         -1.3420   -1.1380    5.6430 ca        1 3UR     -0.055000
     24 C4         -2.2030   -0.0200    6.0290 ca        1 3UR     -0.092000
     25 C5         -2.3530    1.0890    5.1530 ca        1 3UR     -0.073000
     26 C6         -1.6790    1.0710    3.9620 ca        1 3UR     -0.108000
     27 C7         -1.4210   -2.0420    6.7410 cc        1 3UR     -0.233900
     28 N1         -2.2870   -1.4310    7.6640 na        1 3UR      0.074800
     29 N5         -2.7530   -0.2650    7.2720 nc        1 3UR     -0.217400
     30 N6         -0.1550   -7.9030    3.0810 n4        1 3UR     -0.835600
     31 H1         -0.7230    0.7690   -1.0270 ha        1 3UR      0.158000
     32 H2          1.7440    0.3710   -1.1450 ha        1 3UR      0.151000
     33 H3          3.0110   -0.2440    0.9220 ha        1 3UR      0.158000
     34 H5         -1.0860   -3.3840    9.1540 h4        1 3UR      0.044100
     35 H6          2.1200   -7.4670    5.6440 h1        1 3UR      0.080200
     36 H7          0.3220   -7.7470    5.7870 h1        1 3UR      0.080200
     37 H8          1.4010   -9.0840    3.9280 hx        1 3UR      0.111700
     38 H9          2.3220   -7.8010    1.8980 hc        1 3UR      0.086700
     39 H10         3.2590   -7.5750    3.4250 hc        1 3UR      0.086700
     40 H11         3.0340   -5.3900    2.3760 hc        1 3UR      0.070200
     41 H12         1.2620   -5.5950    2.1190 hc        1 3UR      0.070200
     42 H13         2.8390   -5.1570    4.7440 h1        1 3UR      0.080200
     43 H14         1.5330   -4.1190    4.0050 h1        1 3UR      0.080200
     44 H15         0.0020   -1.9380    4.1270 ha        1 3UR      0.144000
     45 H16        -2.9980    1.9320    5.4420 ha        1 3UR      0.160000
     46 H17        -1.7810    1.9130    3.2580 ha        1 3UR      0.150000
     47 H18        -2.5690   -1.8100    8.5420 hn        1 3UR      0.330700
     48 H19        -0.8810   -8.2950    3.6860 hn        1 3UR      0.463133
     49 H20        -0.1280   -8.4160    2.1960 hn        1 3UR      0.463133
     50 H63        -0.3800   -6.9170    2.8920 hn        1 3UR      0.463133
     51 H4          0.9320   -6.6710    7.6360 h4        1 3UR      0.034100
@<TRIPOS>BOND
     1    1    2 ar  
     2    1    6 ar  
     3    1   31 1   
     4    2    3 ar  
     5    2   32 1   
     6    3    4 ar  
     7    3   33 1   
     8    4    5 ar  
     9    4    7 1   
    10    5    6 ar  
    11    5   21 1   
    12    6    8 1   
    13    9   10 ar  
    14    9   14 ar  
    15    9   51 1   
    16   10   11 ar  
    17   10   15 1   
    18   11   12 ar  
    19   12   13 ar  
    20   12   27 1   
    21   13   14 ar  
    22   13   34 1   
    23   15   16 1   
    24   15   20 1   
    25   16   17 1   
    26   16   35 1   
    27   16   36 1   
    28   17   18 1   
    29   17   30 1   
    30   17   37 1   
    31   18   19 1   
    32   18   38 1   
    33   18   39 1   
    34   19   20 1   
    35   19   40 1   
    36   19   41 1   
    37   20   42 1   
    38   20   43 1   
    39   21   22 ar  
    40   21   26 ar  
    41   22   23 ar  
    42   22   44 1   
    43   23   24 ar  
    44   23   27 2   
    45   24   25 ar  
    46   24   29 2   
    47   25   26 ar  
    48   25   45 1   
    49   26   46 1   
    50   27   28 1   
    51   28   29 1   
    52   28   47 1   
    53   30   48 1   
    54   30   49 1   
    55   30   50 1   
@<TRIPOS>SUBSTRUCTURE
     1 3UR         1 TEMP              0 ****  ****    0 ROOT
