@<TRIPOS>MOLECULE
3US
  101   101     1     0     0
SMALL
bcc


@<TRIPOS>ATOM
      1 C4         10.6580  -42.5600  -86.3750 c2        1 3US      0.098000
      2 C3         10.5980  -42.9230  -84.9750 c2        1 3US     -0.238000
      3 C1         12.6990  -43.0430  -85.5560 c2        1 3US     -0.012000
      4 OBA         9.5090  -48.8380  -96.4060 o         1 3US     -0.169000
      5 CAY        10.1340  -47.8730  -96.0080 c2        1 3US      0.247000
      6 NAZ       -38.3160  166.4850  334.8590 n3        1 3US     -0.257000
      7 CBB       -37.5050  165.4960  335.2060 c2        1 3US      0.175000
      8 CBG       -36.0550  165.5080  335.1230 c2        1 3US     -0.244000
      9 CBF       -35.6490  164.2860  335.5850 cu        1 3US      0.014000
     10 CBC       -38.0340  164.1370  335.7730 c3        1 3US     -0.075000
     11 CBD       -36.7730  163.4350  335.9820 cu        1 3US     -0.171000
     12 CBE       -35.5040  162.9670  336.0980 cu        1 3US      0.213000
     13 CBH       -34.5960  161.9380  336.4560 c2        1 3US     -0.113000
     14 CBK       -33.1520  162.2360  336.2610 c3        1 3US     -0.187000
     15 CBJ        -4.7780    0.9750   20.0720 c3        1 3US     -0.266000
     16 CBI       -35.0360  160.7620  336.9450 c2        1 3US     -0.081000
     17 NAX         9.3610  -46.7580  -95.3650 n4        1 3US     -0.124000
     18 CAW         9.9600  -46.3220  -94.0670 c3        1 3US     -0.143000
     19 CAV         9.1400  -45.2230  -93.3590 c3        1 3US     -0.008000
     20 CAT         9.6290  -45.1150  -91.9930 c2        1 3US     -0.775000
     21 NAS        10.2010  -43.9220  -91.4710 n4        1 3US      0.217000
     22 CAU         9.2480  -43.0040  -90.8210 c2        1 3US     -0.246000
     23 CBL         7.9330  -43.2180  -90.7630 c2        1 3US     -0.118000
     24 CBM         3.1200   -3.3080    0.8240 c3        1 3US     -0.266000
     25 CAN        12.2240  -43.1020  -90.1570 c3        1 3US      0.052000
     26 CAM        13.5650  -43.5690  -89.6670 c2        1 3US     -0.282000
     27 OAQ         9.6940  -46.7610  -98.1360 oh        1 3US     -0.470000
     28 CAL        13.7900  -43.0630  -88.4360 c2        1 3US      0.030000
     29 OAP        14.8360  -43.1620  -87.5840 oh        1 3US     -0.223000
     30 CAK        12.5990  -42.2120  -87.9840 c3        1 3US      0.198000
     31 OAO        11.6500  -42.3190  -89.0700 os        1 3US     -0.304000
     32 NAG        11.9990  -42.6430  -86.7380 na        1 3US     -0.193000
     33 N2         11.8890  -43.2180  -84.5080 n2        1 3US     -0.075000
     34 N5          9.5040  -42.2360  -87.0670 nh        1 3US     -0.210000
     35 C6          8.3060  -42.2450  -86.4040 c1        1 3US      0.131000
     36 C7          9.3320  -42.9100  -84.2760 c2        1 3US      0.307000
     37 N8          8.2270  -42.5680  -85.0720 n3        1 3US     -0.247000
     38 N9          9.2740  -43.2020  -82.9610 n3        1 3US     -0.228000
     39 C10         8.0660  -43.2200  -82.1620 c3        1 3US     -0.076000
     40 C11         7.2440  -44.5030  -82.2860 c3        1 3US     -0.176000
     41 C12         5.9080  -44.3540  -81.5870 c3        1 3US     -0.184000
     42 C13         4.8460  -43.6630  -82.4540 c3        1 3US     -0.027000
     43 N15         4.5300  -42.3090  -82.0950 n         1 3US     -0.377000
     44 C16         5.0370  -41.2120  -82.7520 c2        1 3US      0.327000
     45 O17         5.9250  -41.3500  -83.6310 o         1 3US     -0.463000
     46 C18         4.5060  -39.8520  -82.3850 c3        1 3US     -0.244000
     47 H1         13.7940  -43.1790  -85.5670 h5        1 3US      0.252000
     48 H2        -39.3060  166.4000  334.9460 hn        1 3US      0.272500
     49 H3        -37.9510  167.3440  334.5000 hn        1 3US      0.272500
     50 H4        -35.4480  166.3390  334.7620 ha        1 3US      0.207000
     51 H5        -38.6060  164.2960  336.7260 hc        1 3US      0.181000
     52 H6        -38.6980  163.6240  335.0260 hc        1 3US      0.181000
     53 H7        -32.8490  163.1220  336.8720 hc        1 3US      0.106000
     54 H8        -32.9410  162.4580  335.1850 hc        1 3US      0.106000
     55 H9        -32.5240  161.3630  336.5700 hc        1 3US      0.106000
     56 H10        -5.2080    1.7650   19.4190 hc        1 3US      0.066375
     57 H11        -4.3320    0.1750   19.4420 hc        1 3US      0.066375
     58 H12        -5.5810    0.5410   20.7070 hc        1 3US      0.066375
     59 H13        -3.9910    1.4170   20.7210 hc        1 3US      0.066375
     60 H14       -36.1020  160.5350  337.0920 ha        1 3US      0.147500
     61 H15       -34.3360  159.9600  337.2250 ha        1 3US      0.147500
     62 H16        11.2230  -47.6700  -96.0650 hx        1 3US      0.215000
     63 H17         9.3450  -45.9720  -96.0320 hn        1 3US      0.257000
     64 H18        10.0160  -47.2250  -93.3950 hx        1 3US      0.131500
     65 H19        11.0010  -45.9510  -94.2710 hx        1 3US      0.131500
     66 H20         8.0560  -45.5310  -93.3650 hc        1 3US      0.065000
     67 H21         9.2230  -44.2700  -93.9460 hc        1 3US      0.065000
     68 H22         9.3570  -45.8690  -91.2550 hx        1 3US      0.157000
     69 H24         3.5100   -4.3270    1.0370 hc        1 3US      0.066375
     70 H25         9.7430  -42.1080  -90.4000 hx        1 3US      0.156000
     71 H26         7.4510  -44.1150  -91.1860 ha        1 3US      0.154500
     72 H27         7.2620  -42.4880  -90.2850 ha        1 3US      0.154500
     73 H28         2.0930   -3.3840    0.4060 hc        1 3US      0.066375
     74 H29         3.7840   -2.8040    0.0890 hc        1 3US      0.066375
     75 H30         3.0940   -2.7180    1.7660 hc        1 3US      0.066375
     76 H31        10.8180  -44.6710  -89.5680 hx        1 3US      0.147500
     77 H32        11.9070  -45.0910  -90.9760 hx        1 3US      0.147500
     78 H33        14.2190  -44.1890  -90.2790 ha        1 3US      0.188000
     79 H34        12.3400  -42.3760  -91.0120 h1        1 3US      0.132000
     80 H35        10.1700  -46.2710  -98.8150 ho        1 3US      0.240000
     81 H36         9.1630  -47.3960  -98.6300 ho        1 3US      0.240000
     82 H37        15.5630  -43.6290  -88.0340 ho        1 3US      0.261000
     83 H38        12.8740  -41.1160  -87.8980 h2        1 3US      0.169000
     84 H39         9.5350  -41.9910  -88.0370 hn        1 3US      0.293000
     85 H40         7.3070  -42.4740  -84.6550 hn        1 3US      0.331000
     86 H41        10.1280  -43.4740  -82.5100 hn        1 3US      0.288000
     87 H42         7.4230  -42.3300  -82.4300 h1        1 3US      0.138500
     88 H43         8.3910  -43.0950  -81.0870 h1        1 3US      0.138500
     89 H44         7.8090  -45.3530  -81.8190 hc        1 3US      0.096500
     90 H45         7.0830  -44.7650  -83.3650 hc        1 3US      0.096500
     91 H46         6.0440  -43.8240  -80.6090 hc        1 3US      0.109000
     92 H47         5.5290  -45.3850  -81.3470 hc        1 3US      0.109000
     93 H48         3.8920  -44.2640  -82.3790 h1        1 3US      0.101500
     94 H49         5.1760  -43.6780  -83.5330 h1        1 3US      0.101500
     95 H50         4.6330  -39.6570  -81.2920 hc        1 3US      0.120333
     96 H51         3.4200  -39.7810  -82.6430 hc        1 3US      0.120333
     97 H52         5.0660  -39.0760  -82.9620 hc        1 3US      0.120333
     98 HAX2        8.3870  -47.0470  -95.2070 hn        1 3US      0.257000
     99 HAS1       10.6160  -43.3900  -92.2470 hn        1 3US      0.204000
    100 H152        3.8530  -42.1710  -81.3800 hn        1 3US      0.242000
    101 CAR        11.2990  -44.2690  -90.5020 c3        1 3US     -0.123000
@<TRIPOS>BOND
     1    1    2 1   
     2    1   32 1   
     3    1   34 1   
     4    2   33 1   
     5    2   36 1   
     6    3   32 1   
     7    3   33 1   
     8    3   47 1   
     9    4    5 1   
    10    5   17 1   
    11    5   62 1   
    12    6    7 1   
    13    6   48 1   
    14    6   49 1   
    15    7    8 1   
    16    7   10 1   
    17    8    9 1   
    18    8   50 1   
    19    9   11 1   
    20    9   12 1   
    21   10   11 1   
    22   10   51 1   
    23   10   52 1   
    24   11   12 1   
    25   12   13 1   
    26   13   14 1   
    27   13   16 1   
    28   14   53 1   
    29   14   54 1   
    30   14   55 1   
    31   15   56 1   
    32   15   57 1   
    33   15   58 1   
    34   15   59 1   
    35   16   60 1   
    36   16   61 1   
    37   17   18 1   
    38   17   63 1   
    39   17   98 1   
    40   18   19 1   
    41   18   64 1   
    42   18   65 1   
    43   19   20 1   
    44   19   66 1   
    45   19   67 1   
    46   20   21 1   
    47   20   68 1   
    48   21   22 1   
    49   21   99 1   
    50   21  101 1   
    51   22   23 1   
    52   22   70 1   
    53   23   71 1   
    54   23   72 1   
    55   24   69 1   
    56   24   73 1   
    57   24   74 1   
    58   24   75 1   
    59   25   26 1   
    60   25   31 1   
    61   25   79 1   
    62   25  101 1   
    63   26   28 1   
    64   26   78 1   
    65   27   80 1   
    66   27   81 1   
    67   28   29 1   
    68   28   30 1   
    69   29   82 1   
    70   30   31 1   
    71   30   32 1   
    72   30   83 1   
    73   34   35 1   
    74   34   84 1   
    75   35   37 1   
    76   36   37 1   
    77   36   38 1   
    78   37   85 1   
    79   38   39 1   
    80   38   86 1   
    81   39   40 1   
    82   39   87 1   
    83   39   88 1   
    84   40   41 1   
    85   40   89 1   
    86   40   90 1   
    87   41   42 1   
    88   41   91 1   
    89   41   92 1   
    90   42   43 1   
    91   42   93 1   
    92   42   94 1   
    93   43   44 1   
    94   43  100 1   
    95   44   45 1   
    96   44   46 1   
    97   46   95 1   
    98   46   96 1   
    99   46   97 1   
   100   76  101 1   
   101   77  101 1   
@<TRIPOS>SUBSTRUCTURE
     1 3US         1 TEMP              0 ****  ****    0 ROOT
