@<TRIPOS>MOLECULE
3US
  101   101     1     0     0
SMALL
bcc


@<TRIPOS>ATOM
      1 C4         -0.0770    0.0120   -0.3260 c2        1 3US      0.105000
      2 C3          1.3470   -0.0560   -0.0540 c2        1 3US     -0.237000
      3 C1          0.4080    0.7590    1.7360 c2        1 3US     -0.024000
      4 OBA        -2.2920    2.2860   12.2690 o         1 3US     -0.146000
      5 CAY        -3.1270    1.7700   11.5560 c2        1 3US      0.247000
      6 NAZ        -5.2090    3.4020   12.5680 n2        1 3US     -0.296000
      7 CBB        -5.3720    3.7790   13.7790 c2        1 3US      0.105000
      8 CBG        -6.5030    4.5900   14.3860 c2        1 3US     -0.144500
      9 CBF        -6.7690    4.6440   15.7080 c2        1 3US     -0.184000
     10 CBC        -4.5080    3.5830   14.9690 c2        1 3US     -0.144500
     11 CBD        -5.2010    2.9360   15.9540 c2        1 3US     -0.184000
     12 CBE        -6.0290    3.8560   16.7930 c3        1 3US     -0.026000
     13 CBH        -5.3280    4.7430   17.8310 c3        1 3US     -0.148000
     14 CBK        -6.3880    5.1620   18.9210 c3        1 3US     -0.213000
     15 CBJ        -4.3850    3.9950   18.6340 c2        1 3US      0.320000
     16 CBI        -4.7340    6.0280   17.2680 c3        1 3US     -0.213000
     17 NAX        -3.3200    2.3560   10.1780 ny        1 3US     -0.127000
     18 CAW        -2.9220    1.3820    9.1120 c3        1 3US     -0.130000
     19 CAV        -3.1070    1.9470    7.7100 c3        1 3US     -0.197000
     20 CAT        -2.7000    0.8730    6.6870 c3        1 3US     -0.049000
     21 NAS        -2.9530    1.3230    5.3380 n7        1 3US     -0.325000
     22 CAU        -0.3690    3.5360    4.4400 c2        1 3US     -0.189000
     23 CBL        -1.0890    4.6950    5.0060 c3        1 3US     -0.191000
     24 CBM         0.8430    3.1480    4.8300 c2        1 3US     -0.221000
     25 CAN        -3.3750    0.7970    2.9650 c3        1 3US      0.060000
     26 CAM        -3.8030   -0.2880    2.0240 c2        1 3US     -0.255000
     27 OAQ        -5.5240   -2.4270    0.5880 oh        1 3US     -0.432000
     28 CAL        -3.0670   -0.2120    0.8960 c2        1 3US      0.001000
     29 OAP        -3.1040   -0.9200   -0.2580 oh        1 3US     -0.269000
     30 CAK        -2.0500    0.9270    1.0000 c3        1 3US      0.194000
     31 OAO        -2.2410    1.4620    2.3250 os        1 3US     -0.285000
     32 NAG        -0.6630    0.5280    0.8250 na        1 3US     -0.177000
     33 N2          1.6040    0.4150    1.2420 n2        1 3US     -0.083000
     34 N5         -0.5790   -0.3960   -1.5520 nu        1 3US     -0.201000
     35 C6          0.2830   -0.8550   -2.5060 c1        1 3US      0.145000
     36 C7          2.2560   -0.5300   -1.0710 c2        1 3US      0.304000
     37 N8          1.6400   -0.9110   -2.2750 n7        1 3US     -0.258000
     38 N9          3.5830   -0.5930   -0.8500 n7        1 3US     -0.234000
     39 C10         4.5500   -1.0100   -1.8490 c3        1 3US     -0.063000
     40 C11         5.9930   -0.8890   -1.3600 c3        1 3US     -0.168000
     41 C12         6.9300   -1.2030   -2.5070 c3        1 3US     -0.192000
     42 C13         8.3780   -0.8930   -2.1000 c3        1 3US     -0.005000
     43 N15         9.3060   -0.8690   -3.1900 ns        1 3US     -0.395000
     44 C16         9.2820    0.1410   -4.1400 c2        1 3US      0.305000
     45 O17         8.4200    1.0410   -4.0710 o         1 3US     -0.380000
     46 C18        10.3280    0.1090   -5.2230 c3        1 3US     -0.242000
     47 H1          0.2130    1.1960    2.7280 h5        1 3US      0.234000
     48 H2         -5.9280    3.6910   11.9340 hn        1 3US      0.164000
     49 H3         -7.1090    5.1700   13.6680 ha        1 3US      0.165500
     50 H4         -7.6240    5.2320   16.0830 ha        1 3US      0.165500
     51 H5         -5.6610    1.9500   15.7710 ha        1 3US      0.165500
     52 H6         -3.7470    4.3590   15.1320 ha        1 3US      0.165500
     53 H7         -6.8010    3.2390   17.3460 hc        1 3US      0.139000
     54 H8         -6.8350    4.2700   19.4190 hc        1 3US      0.130500
     55 H9         -7.1890    5.7140   18.3650 hc        1 3US      0.130500
     56 H10        -5.9310    5.8480   19.6740 hc        1 3US      0.130500
     57 H11        -4.4830    2.8970   18.7550 ha        1 3US      0.191500
     58 H12        -3.5740    4.5150   19.1860 ha        1 3US      0.191500
     59 H13        -3.9010    5.8030   16.5600 hc        1 3US      0.130500
     60 H14        -5.5270    6.5950   16.7200 hc        1 3US      0.130500
     61 H15        -4.3420    6.6780   18.0900 hc        1 3US      0.130500
     62 H16        -3.8010    0.9090   11.7540 hx        1 3US      0.228000
     63 H17        -4.3070    2.6100   10.0590 hn        1 3US      0.257000
     64 H18        -3.5520    0.4550    9.2390 hx        1 3US      0.147500
     65 H19        -1.8390    1.1140    9.2820 hx        1 3US      0.147500
     66 H20        -4.1770    2.2390    7.5400 hc        1 3US      0.118000
     67 H21        -2.4720    2.8620    7.5660 hc        1 3US      0.118000
     68 H22        -1.6160    0.6090    6.8640 h1        1 3US      0.081500
     69 H24        -2.3400    2.0750    5.0780 hn        1 3US      0.184000
     70 H25        -0.9030    3.0120    3.6260 ha        1 3US      0.122000
     71 H26        -2.0690    4.3690    5.4390 hc        1 3US      0.083333
     72 H27        -1.3000    5.4440    4.2010 hc        1 3US      0.083333
     73 H28        -0.4980    5.2020    5.8070 hc        1 3US      0.083333
     74 H29         1.3660    2.2960    4.3740 ha        1 3US      0.117000
     75 H30         1.4120    3.6660    5.6140 ha        1 3US      0.117000
     76 H31        -1.9340   -0.2180    4.2410 h1        1 3US      0.092500
     77 H32        -3.6880   -0.5190    4.6490 h1        1 3US      0.092500
     78 H33        -4.6240   -0.9780    2.2380 ha        1 3US      0.200000
     79 H34        -4.1700    1.5920    3.0520 h1        1 3US      0.145000
     80 H35        -5.5560   -3.3880    0.6170 ho        1 3US      0.220500
     81 H36        -6.3670   -2.1790    0.1970 ho        1 3US      0.220500
     82 H37        -3.8500   -1.5520   -0.2090 ho        1 3US      0.283000
     83 H38        -2.2730    1.7620    0.2680 h2        1 3US      0.157000
     84 H39        -1.5670   -0.4120   -1.7350 hn        1 3US      0.311000
     85 H40         2.1950   -1.2430   -3.0430 hn        1 3US      0.298000
     86 H41         3.9310   -0.2900    0.0410 hn        1 3US      0.289000
     87 H42         4.4230   -0.3680   -2.7700 h1        1 3US      0.115500
     88 H43         4.3420   -2.0840   -2.1290 h1        1 3US      0.115500
     89 H44         6.1900    0.1540   -0.9920 hc        1 3US      0.103500
     90 H45         6.1760   -1.5940   -0.5080 hc        1 3US      0.103500
     91 H46         6.6600   -0.5740   -3.3990 hc        1 3US      0.103500
     92 H47         6.8340   -2.2790   -2.8010 hc        1 3US      0.103500
     93 H48         8.3910    0.1230   -1.6050 h1        1 3US      0.093500
     94 H49         8.7220   -1.6600   -1.3510 h1        1 3US      0.093500
     95 H50        10.2710   -0.8440   -5.8010 hc        1 3US      0.114000
     96 H51        11.3480    0.2070   -4.7790 hc        1 3US      0.114000
     97 H52        10.1520    0.9680   -5.9170 hc        1 3US      0.114000
     98 HAX2       -2.7590    3.2130   10.0750 hn        1 3US      0.257000
     99 HAS1       -3.3110   -0.0560    6.8760 h1        1 3US      0.081500
    100 H152        9.9240   -1.6350   -3.3030 hn        1 3US      0.234000
    101 CAR        -2.9460    0.2720    4.3410 c3        1 3US     -0.068000
@<TRIPOS>BOND
     1    1    2 1   
     2    1   32 1   
     3    1   34 1   
     4    2   33 1   
     5    2   36 1   
     6    3   32 1   
     7    3   33 1   
     8    3   47 1   
     9    4    5 1   
    10    5   17 1   
    11    5   62 1   
    12    6    7 1   
    13    6   48 1   
    14    7    8 1   
    15    7   10 1   
    16    8    9 1   
    17    8   49 1   
    18    9   12 1   
    19    9   50 1   
    20   10   11 1   
    21   10   52 1   
    22   11   12 1   
    23   11   51 1   
    24   12   13 1   
    25   12   53 1   
    26   13   14 1   
    27   13   15 1   
    28   13   16 1   
    29   14   54 1   
    30   14   55 1   
    31   14   56 1   
    32   15   57 1   
    33   15   58 1   
    34   16   59 1   
    35   16   60 1   
    36   16   61 1   
    37   17   18 1   
    38   17   63 1   
    39   17   98 1   
    40   18   19 1   
    41   18   64 1   
    42   18   65 1   
    43   19   20 1   
    44   19   66 1   
    45   19   67 1   
    46   20   21 1   
    47   20   68 1   
    48   20   99 1   
    49   21   69 1   
    50   21  101 1   
    51   22   23 1   
    52   22   24 1   
    53   22   70 1   
    54   23   71 1   
    55   23   72 1   
    56   23   73 1   
    57   24   74 1   
    58   24   75 1   
    59   25   26 1   
    60   25   31 1   
    61   25   79 1   
    62   25  101 1   
    63   26   28 1   
    64   26   78 1   
    65   27   80 1   
    66   27   81 1   
    67   28   29 1   
    68   28   30 1   
    69   29   82 1   
    70   30   31 1   
    71   30   32 1   
    72   30   83 1   
    73   34   35 1   
    74   34   84 1   
    75   35   37 1   
    76   36   37 1   
    77   36   38 1   
    78   37   85 1   
    79   38   39 1   
    80   38   86 1   
    81   39   40 1   
    82   39   87 1   
    83   39   88 1   
    84   40   41 1   
    85   40   89 1   
    86   40   90 1   
    87   41   42 1   
    88   41   91 1   
    89   41   92 1   
    90   42   43 1   
    91   42   93 1   
    92   42   94 1   
    93   43   44 1   
    94   43  100 1   
    95   44   45 1   
    96   44   46 1   
    97   46   95 1   
    98   46   96 1   
    99   46   97 1   
   100   76  101 1   
   101   77  101 1   
@<TRIPOS>SUBSTRUCTURE
     1 3US         1 TEMP              0 ****  ****    0 ROOT
