@<TRIPOS>MOLECULE
3UT
   52    57     1     0     0
SMALL
bcc


@<TRIPOS>ATOM
      1 C28         0.1820    0.8530   -0.4800 c3        1 3UT      0.169600
      2 O29         1.5920    1.0410   -0.4480 os        1 3UT     -0.406600
      3 C30         2.2270    0.3100    0.5950 c3        1 3UT      0.122400
      4 C31         1.7430    0.7580    1.9680 c3        1 3UT     -0.088200
      5 C32         0.2820    1.0060    1.9910 c2        1 3UT     -0.121200
      6 C20        -0.4460    1.0670    0.8630 ce        1 3UT     -0.235000
      7 C13        -1.8960    1.3190    0.8820 ca        1 3UT      0.497100
      8 C14        -2.3960    2.3500    1.7020 ca        1 3UT     -0.235300
      9 N12        -2.6960    0.5510    0.0930 nb        1 3UT     -0.640000
     10 C11        -4.0250    0.7910    0.1220 ca        1 3UT      0.641500
     11 F33        -4.8300    0.0290   -0.6490 f         1 3UT     -0.181200
     12 C8         -4.6080    1.8240    0.9350 ca        1 3UT     -0.005200
     13 O7         -5.9790    1.9400    0.8570 os        1 3UT     -0.185200
     14 C9         -3.7730    2.6140    1.7240 ca        1 3UT     -0.101300
     15 C10        -4.3380    3.7330    2.5550 c3        1 3UT      0.236800
     16 C15        -3.8070    3.6380    4.0420 c3        1 3UT      0.106400
     17 O16        -3.0410    4.8640    4.2540 os        1 3UT     -0.438400
     18 C17        -3.1350    5.5750    3.0460 c2        1 3UT      0.591500
     19 N18        -3.8100    5.0510    2.0610 n2        1 3UT     -0.492900
     20 N19        -2.4290    6.8550    3.0900 nz        1 3UT     -0.767600
     21 C5         -5.8390    3.7350    2.5350 ca        1 3UT     -0.166300
     22 C6         -6.5510    4.6350    3.3420 ca        1 3UT     -0.083000
     23 C4         -6.5610    2.8580    1.7190 ca        1 3UT      0.152100
     24 C3         -7.9690    2.8470    1.7220 ca        1 3UT     -0.127000
     25 C2         -8.6480    3.7330    2.5430 ca        1 3UT     -0.064000
     26 C1         -7.9460    4.6420    3.3610 cp        1 3UT     -0.034000
     27 C21        -8.6800    5.5790    4.2030 cp        1 3UT     -0.191300
     28 C26        -9.8640    6.1780    3.7370 ca        1 3UT     -0.060000
     29 C25       -10.5620    7.0640    4.5510 ca        1 3UT     -0.249300
     30 C24       -10.0530    7.3420    5.8350 ca        1 3UT      0.437200
     31 N23        -8.9280    6.8000    6.3250 nb        1 3UT     -0.677000
     32 C22        -8.2570    5.9280    5.5180 ca        1 3UT      0.613500
     33 F27        -7.1270    5.3880    6.0430 f         1 3UT     -0.232200
     34 H1         -0.1770    1.6100   -1.2280 h1        1 3UT      0.074200
     35 H2         -0.0550   -0.1840   -0.8460 h1        1 3UT      0.074200
     36 H3          2.0420   -0.7880    0.4540 h1        1 3UT      0.062700
     37 H4          3.3180    0.5330    0.4570 h1        1 3UT      0.062700
     38 H5          2.0070   -0.0270    2.7260 hc        1 3UT      0.067700
     39 H6          2.2710    1.7040    2.2660 hc        1 3UT      0.067700
     40 H7         -0.1720    1.1330    2.9860 ha        1 3UT      0.122000
     41 H8         -1.7000    2.9420    2.3120 ha        1 3UT      0.142000
     42 H9         -4.6310    3.6440    4.7980 h1        1 3UT      0.114700
     43 H10        -3.0960    2.7910    4.1960 h1        1 3UT      0.114700
     44 H11        -2.5640    7.3660    2.2060 hn        1 3UT      0.491800
     45 H12        -1.4270    6.6710    3.2440 hn        1 3UT      0.491800
     46 H13        -5.9980    5.3410    3.9820 ha        1 3UT      0.133000
     47 H14        -8.5050    2.1340    1.0760 ha        1 3UT      0.178000
     48 H15        -9.7500    3.7200    2.5620 ha        1 3UT      0.161000
     49 H16       -10.2310    5.9470    2.7250 ha        1 3UT      0.153000
     50 H17       -11.4900    7.5410    4.2070 ha        1 3UT      0.165000
     51 H18       -10.5760    8.0400    6.5190 h4        1 3UT      0.046100
     52 H193       -2.8000    7.4040    3.8790 hn        1 3UT      0.491800
@<TRIPOS>BOND
     1    1    2 1   
     2    1    6 1   
     3    1   34 1   
     4    1   35 1   
     5    2    3 1   
     6    3    4 1   
     7    3   36 1   
     8    3   37 1   
     9    4    5 1   
    10    4   38 1   
    11    4   39 1   
    12    5    6 2   
    13    5   40 1   
    14    6    7 1   
    15    7    8 ar  
    16    7    9 ar  
    17    8   14 ar  
    18    8   41 1   
    19    9   10 ar  
    20   10   11 1   
    21   10   12 ar  
    22   12   13 1   
    23   12   14 ar  
    24   13   23 1   
    25   14   15 1   
    26   15   16 1   
    27   15   19 1   
    28   15   21 1   
    29   16   17 1   
    30   16   42 1   
    31   16   43 1   
    32   17   18 1   
    33   18   19 2   
    34   18   20 1   
    35   20   44 1   
    36   20   45 1   
    37   20   52 1   
    38   21   22 ar  
    39   21   23 ar  
    40   22   26 ar  
    41   22   46 1   
    42   23   24 ar  
    43   24   25 ar  
    44   24   47 1   
    45   25   26 ar  
    46   25   48 1   
    47   26   27 1   
    48   27   28 ar  
    49   27   32 ar  
    50   28   29 ar  
    51   28   49 1   
    52   29   30 ar  
    53   29   50 1   
    54   30   31 ar  
    55   30   51 1   
    56   31   32 ar  
    57   32   33 1   
@<TRIPOS>SUBSTRUCTURE
     1 3UT         1 TEMP              0 ****  ****    0 ROOT
