@<TRIPOS>MOLECULE
3UW
   48    52     1     0     0
SMALL
bcc


@<TRIPOS>ATOM
      1 C1          1.4980    0.0310   -0.0450 ca        1 3UW     -0.174300
      2 C2          2.2170   -0.3340    1.1070 ca        1 3UW      0.168100
      3 C3          3.6250   -0.3570    1.0940 ca        1 3UW     -0.142000
      4 C4          4.3050   -0.0090   -0.0620 ca        1 3UW     -0.059000
      5 C5          3.6050    0.3700   -1.2240 cp        1 3UW     -0.052000
      6 C6          2.2090    0.3830   -1.1990 ca        1 3UW     -0.062000
      7 C7         -0.0050    0.0270   -0.0400 c3        1 3UW      0.141500
      8 C8         -0.5170    0.0320    1.4230 c3        1 3UW      0.127100
      9 C9          0.2530   -1.0270    2.2250 c3        1 3UW      0.107100
     10 O10         1.6360   -0.6560    2.3150 os        1 3UW     -0.300900
     11 O11        -1.9090   -0.2640    1.3920 os        1 3UW     -0.440600
     12 C12        -2.4810   -0.3260    2.7050 c3        1 3UW      0.130400
     13 C13        -1.7830   -1.3450    3.5870 c3        1 3UW     -0.116400
     14 C14        -0.2910   -1.0950    3.6460 c3        1 3UW     -0.079400
     15 C15         4.3370    0.7550   -2.4240 cp        1 3UW     -0.178300
     16 C16         3.9020    0.4180   -3.7390 ca        1 3UW      0.608500
     17 N17         4.5720    0.7710   -4.8740 nb        1 3UW     -0.681000
     18 C18         5.7080    1.4680   -4.7220 ca        1 3UW      0.433200
     19 C19         6.2280    1.8510   -3.4700 ca        1 3UW     -0.248300
     20 C20         5.5310    1.4900   -2.3220 ca        1 3UW     -0.063000
     21 F21         2.7610   -0.2940   -3.9280 f         1 3UW     -0.235200
     22 N22        -0.5950    1.1700   -0.8010 n2        1 3UW     -0.515900
     23 C23        -1.3090    0.6460   -1.7830 c2        1 3UW      0.478800
     24 N24        -1.2960   -0.7700   -1.9130 n         1 3UW     -0.422300
     25 C25        -0.5330   -1.2540   -0.7870 c         1 3UW      0.703500
     26 O26        -0.3640   -2.4380   -0.5450 o         1 3UW     -0.488500
     27 C27        -2.2370   -1.5340   -2.6630 c3        1 3UW      0.057300
     28 N28        -2.0500    1.4800   -2.7550 n4        1 3UW     -0.780600
     29 H1          4.1630   -0.6550    2.0070 ha        1 3UW      0.172000
     30 H2          5.4070   -0.0420   -0.0740 ha        1 3UW      0.155000
     31 H3          1.6670    0.6710   -2.1130 ha        1 3UW      0.130000
     32 H4         -0.3520    1.0520    1.8750 h1        1 3UW      0.093700
     33 H5          0.1800   -2.0320    1.7200 h1        1 3UW      0.091700
     34 H6         -3.5460   -0.6190    2.5070 h1        1 3UW      0.062700
     35 H7         -2.4410    0.6960    3.1660 h1        1 3UW      0.062700
     36 H8         -2.2160   -1.2900    4.6200 hc        1 3UW      0.071700
     37 H9         -1.9760   -2.3770    3.1910 hc        1 3UW      0.071700
     38 H10         0.2250   -1.9190    4.2030 hc        1 3UW      0.075200
     39 H11        -0.0700   -0.1350    4.1810 hc        1 3UW      0.075200
     40 H12         6.2280    1.7330   -5.6620 h4        1 3UW      0.043100
     41 H13         7.1640    2.4230   -3.4110 ha        1 3UW      0.163000
     42 H14         5.9070    1.7840   -1.3290 ha        1 3UW      0.152000
     43 H15        -3.2960   -1.3220   -2.3490 h1        1 3UW      0.070700
     44 H16        -2.0200   -2.6260   -2.4830 h1        1 3UW      0.070700
     45 H17        -2.1190   -1.3210   -3.7590 h1        1 3UW      0.070700
     46 H18        -2.0050    2.4700   -2.4700 hn        1 3UW      0.484467
     47 H19        -1.6230    1.3690   -3.6840 hn        1 3UW      0.484467
     48 H283       -3.0310    1.1720   -2.7840 hn        1 3UW      0.484467
@<TRIPOS>BOND
     1    1    2 ar  
     2    1    6 ar  
     3    1    7 1   
     4    2    3 ar  
     5    2   10 1   
     6    3    4 ar  
     7    3   29 1   
     8    4    5 ar  
     9    4   30 1   
    10    5    6 ar  
    11    5   15 1   
    12    6   31 1   
    13    7    8 1   
    14    7   22 1   
    15    7   25 1   
    16    8    9 1   
    17    8   11 1   
    18    8   32 1   
    19    9   10 1   
    20    9   14 1   
    21    9   33 1   
    22   11   12 1   
    23   12   13 1   
    24   12   34 1   
    25   12   35 1   
    26   13   14 1   
    27   13   36 1   
    28   13   37 1   
    29   14   38 1   
    30   14   39 1   
    31   15   16 ar  
    32   15   20 ar  
    33   16   17 ar  
    34   16   21 1   
    35   17   18 ar  
    36   18   19 ar  
    37   18   40 1   
    38   19   20 ar  
    39   19   41 1   
    40   20   42 1   
    41   22   23 2   
    42   23   24 1   
    43   23   28 1   
    44   24   25 1   
    45   24   27 1   
    46   25   26 2   
    47   27   43 1   
    48   27   44 1   
    49   27   45 1   
    50   28   46 1   
    51   28   47 1   
    52   28   48 1   
@<TRIPOS>SUBSTRUCTURE
     1 3UW         1 TEMP              0 ****  ****    0 ROOT
