@<TRIPOS>MOLECULE
3UW
   48    52     1     0     0
SMALL
bcc


@<TRIPOS>ATOM
      1 C1          1.4940    0.0350   -0.0410 ca        1 3UW     -0.174300
      2 C2          2.2100   -0.3250    1.1140 ca        1 3UW      0.168100
      3 C3          3.6190   -0.3360    1.1090 ca        1 3UW     -0.142000
      4 C4          4.3020    0.0210   -0.0420 ca        1 3UW     -0.059000
      5 C5          3.6060    0.3960   -1.2070 cp        1 3UW     -0.052000
      6 C6          2.2090    0.3970   -1.1900 ca        1 3UW     -0.062000
      7 C7         -0.0080    0.0180   -0.0450 c3        1 3UW      0.141500
      8 C8         -0.5280    0.0160    1.4150 c3        1 3UW      0.127100
      9 C9          0.2460   -1.0380    2.2190 c3        1 3UW      0.107100
     10 O10         1.6250   -0.6560    2.3180 os        1 3UW     -0.300900
     11 O11        -1.9180   -0.2920    1.3760 os        1 3UW     -0.440600
     12 C12        -2.4960   -0.3620    2.6850 c3        1 3UW      0.130400
     13 C13        -1.7950   -1.3770    3.5690 c3        1 3UW     -0.116400
     14 C14        -0.3050   -1.1130    3.6370 c3        1 3UW     -0.079400
     15 C15         4.3410    0.7900   -2.4020 cp        1 3UW     -0.178300
     16 C16         3.9170    0.4530   -3.7200 ca        1 3UW      0.608500
     17 N17         4.5900    0.8140   -4.8510 nb        1 3UW     -0.681000
     18 C18         5.7190    1.5210   -4.6900 ca        1 3UW      0.433200
     19 C19         6.2280    1.9060   -3.4350 ca        1 3UW     -0.248300
     20 C20         5.5280    1.5360   -2.2920 ca        1 3UW     -0.063000
     21 F21         2.7840   -0.2690   -3.9170 f         1 3UW     -0.235200
     22 N22        -0.6040    1.1580   -0.8080 n2        1 3UW     -0.515900
     23 C23        -1.3070    0.6290   -1.7950 c2        1 3UW      0.478800
     24 N24        -1.2810   -0.7860   -1.9270 n         1 3UW     -0.422300
     25 C25        -0.5200   -1.2660   -0.7980 c         1 3UW      0.703500
     26 O26        -0.3420   -2.4490   -0.5570 o         1 3UW     -0.488500
     27 C27        -2.2120   -1.5570   -2.6840 c3        1 3UW      0.057300
     28 N28        -2.0510    1.4580   -2.7680 nz        1 3UW     -0.780600
     29 H1          4.1540   -0.6310    2.0250 ha        1 3UW      0.172000
     30 H2          5.4050   -0.0030   -0.0480 ha        1 3UW      0.155000
     31 H3          1.6700    0.6810   -2.1070 ha        1 3UW      0.130000
     32 H4         -0.3740    1.0360    1.8700 h1        1 3UW      0.093700
     33 H5          0.1850   -2.0420    1.7120 h1        1 3UW      0.091700
     34 H6         -2.4680    0.6600    3.1480 h1        1 3UW      0.062700
     35 H7         -3.5580   -0.6630    2.4800 h1        1 3UW      0.062700
     36 H8         -2.2340   -1.3270    4.5990 hc        1 3UW      0.071700
     37 H9         -1.9760   -2.4090    3.1700 hc        1 3UW      0.071700
     38 H10         0.2140   -1.9350    4.1950 hc        1 3UW      0.075200
     39 H11        -0.0950   -0.1530    4.1750 hc        1 3UW      0.075200
     40 H12         6.2420    1.7920   -5.6270 h4        1 3UW      0.043100
     41 H13         7.1590    2.4860   -3.3690 ha        1 3UW      0.163000
     42 H14         5.8950    1.8310   -1.2960 ha        1 3UW      0.152000
     43 H15        -1.9860   -2.6470   -2.5050 h1        1 3UW      0.071033
     44 H16        -3.2730   -1.3550   -2.3760 h1        1 3UW      0.071033
     45 H17        -2.0890   -1.3400   -3.7790 h1        1 3UW      0.071033
     46 H18        -1.6170    1.3530   -3.6960 hn        1 3UW      0.484467
     47 H19        -3.0280    1.1420   -2.8040 hn        1 3UW      0.484467
     48 H283       -2.0160    2.4480   -2.4810 hn        1 3UW      0.484467
@<TRIPOS>BOND
     1    1    2 ar  
     2    1    6 ar  
     3    1    7 1   
     4    2    3 ar  
     5    2   10 1   
     6    3    4 ar  
     7    3   29 1   
     8    4    5 ar  
     9    4   30 1   
    10    5    6 ar  
    11    5   15 1   
    12    6   31 1   
    13    7    8 1   
    14    7   22 1   
    15    7   25 1   
    16    8    9 1   
    17    8   11 1   
    18    8   32 1   
    19    9   10 1   
    20    9   14 1   
    21    9   33 1   
    22   11   12 1   
    23   12   13 1   
    24   12   34 1   
    25   12   35 1   
    26   13   14 1   
    27   13   36 1   
    28   13   37 1   
    29   14   38 1   
    30   14   39 1   
    31   15   16 ar  
    32   15   20 ar  
    33   16   17 ar  
    34   16   21 1   
    35   17   18 ar  
    36   18   19 ar  
    37   18   40 1   
    38   19   20 ar  
    39   19   41 1   
    40   20   42 1   
    41   22   23 2   
    42   23   24 1   
    43   23   28 1   
    44   24   25 1   
    45   24   27 1   
    46   25   26 2   
    47   27   43 1   
    48   27   44 1   
    49   27   45 1   
    50   28   46 1   
    51   28   47 1   
    52   28   48 1   
@<TRIPOS>SUBSTRUCTURE
     1 3UW         1 TEMP              0 ****  ****    0 ROOT
