@<TRIPOS>MOLECULE
3UX
   51    55     1     0     0
SMALL
bcc


@<TRIPOS>ATOM
      1 C1         -0.0160    0.0400   -0.0380 cp        1 3UX     -0.050000
      2 C2          1.3910   -0.0350   -0.0060 ca        1 3UX     -0.058000
      3 C3          2.0780   -0.0080    1.1970 ca        1 3UX     -0.146000
      4 C4          1.3610    0.0800    2.4080 ca        1 3UX      0.174100
      5 C5         -0.0430    0.1160    2.3970 ca        1 3UX     -0.178300
      6 C6         -0.7160    0.1130    1.1680 ca        1 3UX     -0.069000
      7 C7         -0.7130    0.0560   -1.3180 cp        1 3UX     -0.183300
      8 O8          2.1360    0.0740    3.5460 os        1 3UX     -0.304900
      9 C9          1.4690    0.5020    4.7540 c3        1 3UX      0.135800
     10 C10         0.1170   -0.2300    4.8490 c3        1 3UX      0.130100
     11 C11        -0.8240    0.1440    3.6780 c3        1 3UX      0.141500
     12 C12         2.3500   -0.0020    5.9060 c3        1 3UX     -0.078400
     13 C13         1.6300    0.1920    7.2240 c3        1 3UX     -0.114400
     14 C14         0.2400   -0.4170    7.2020 c3        1 3UX      0.128400
     15 O15        -0.5330    0.0390    6.0850 os        1 3UX     -0.433600
     16 N16        -1.5370    1.4430    3.8640 n2        1 3UX     -0.500900
     17 C17        -2.8270    1.1650    3.9220 c2        1 3UX      0.465800
     18 N18        -3.2130   -0.1950    3.7330 n         1 3UX     -0.420300
     19 C19        -1.9730   -0.9310    3.6460 c         1 3UX      0.689500
     20 O20        -1.9070   -2.1470    3.5700 o         1 3UX     -0.478500
     21 N21        -3.8560    2.2120    4.1050 nz        1 3UX     -0.778600
     22 C22         1.3580    2.0160    4.7650 c3        1 3UX     -0.110100
     23 C23        -4.4580   -0.7490    4.1580 c3        1 3UX      0.053300
     24 C24        -0.1700    0.7510   -2.4120 ca        1 3UX     -0.064000
     25 C25        -0.8350    0.7580   -3.6340 ca        1 3UX     -0.252300
     26 C26        -2.0530    0.0600   -3.7400 ca        1 3UX      0.433200
     27 N27        -2.6160   -0.6160   -2.7270 nb        1 3UX     -0.680000
     28 C28        -1.9500   -0.6190   -1.5360 ca        1 3UX      0.613500
     29 F29        -2.5400   -1.3180   -0.5330 f         1 3UX     -0.226200
     30 H1          1.9540   -0.1210   -0.9500 ha        1 3UX      0.155000
     31 H2          3.1770   -0.0610    1.2300 ha        1 3UX      0.171000
     32 H3         -1.8160    0.1470    1.1540 ha        1 3UX      0.135000
     33 H4          0.3080   -1.3430    4.7590 h1        1 3UX      0.093700
     34 H5          3.3210    0.5570    5.9050 hc        1 3UX      0.074700
     35 H6          2.5840   -1.0860    5.7410 hc        1 3UX      0.074700
     36 H7          2.2230   -0.2850    8.0480 hc        1 3UX      0.068700
     37 H8          1.5530    1.2890    7.4500 hc        1 3UX      0.068700
     38 H9          0.2950   -1.5380    7.1710 h1        1 3UX      0.064700
     39 H10        -0.3660   -0.0870    8.0870 h1        1 3UX      0.064700
     40 H11        -4.4240    2.2760    3.2500 hn        1 3UX      0.483467
     41 H12        -4.4540    1.9610    4.9020 hn        1 3UX      0.483467
     42 H13         1.0060    2.3910    3.7740 hc        1 3UX      0.058700
     43 H14         0.6420    2.3330    5.5590 hc        1 3UX      0.058700
     44 H15         2.3580    2.4690    4.9730 hc        1 3UX      0.058700
     45 H16        -4.4190   -1.8620    3.9830 h1        1 3UX      0.071033
     46 H17        -4.6540   -0.5630    5.2490 h1        1 3UX      0.071033
     47 H18        -5.2950   -0.3180    3.5460 h1        1 3UX      0.071033
     48 H19         0.7810    1.2950   -2.2940 ha        1 3UX      0.150000
     49 H20        -0.4240    1.2920   -4.5010 ha        1 3UX      0.162000
     50 H21        -2.6160    0.0350   -4.6930 h4        1 3UX      0.043100
     51 H213       -3.4000    3.1190    4.2850 hn        1 3UX      0.483467
@<TRIPOS>BOND
     1    1    2 ar  
     2    1    6 ar  
     3    1    7 1   
     4    2    3 ar  
     5    2   30 1   
     6    3    4 ar  
     7    3   31 1   
     8    4    5 ar  
     9    4    8 1   
    10    5    6 ar  
    11    5   11 1   
    12    6   32 1   
    13    7   24 ar  
    14    7   28 ar  
    15    8    9 1   
    16    9   10 1   
    17    9   12 1   
    18    9   22 1   
    19   10   11 1   
    20   10   15 1   
    21   10   33 1   
    22   11   16 1   
    23   11   19 1   
    24   12   13 1   
    25   12   34 1   
    26   12   35 1   
    27   13   14 1   
    28   13   36 1   
    29   13   37 1   
    30   14   15 1   
    31   14   38 1   
    32   14   39 1   
    33   16   17 2   
    34   17   18 1   
    35   17   21 1   
    36   18   19 1   
    37   18   23 1   
    38   19   20 2   
    39   21   40 1   
    40   21   41 1   
    41   21   51 1   
    42   22   42 1   
    43   22   43 1   
    44   22   44 1   
    45   23   45 1   
    46   23   46 1   
    47   23   47 1   
    48   24   25 ar  
    49   24   48 1   
    50   25   26 ar  
    51   25   49 1   
    52   26   27 ar  
    53   26   50 1   
    54   27   28 ar  
    55   28   29 1   
@<TRIPOS>SUBSTRUCTURE
     1 3UX         1 TEMP              0 ****  ****    0 ROOT
