@<TRIPOS>MOLECULE
3UX
   51    55     1     0     0
SMALL
bcc


@<TRIPOS>ATOM
      1 C1         -0.0140    0.0420   -0.0380 cp        1 3UX     -0.050000
      2 C2          1.3930   -0.0320   -0.0040 ca        1 3UX     -0.058000
      3 C3          2.0790   -0.0050    1.1980 ca        1 3UX     -0.146000
      4 C4          1.3610    0.0820    2.4090 ca        1 3UX      0.174100
      5 C5         -0.0430    0.1170    2.3970 ca        1 3UX     -0.178300
      6 C6         -0.7140    0.1130    1.1670 ca        1 3UX     -0.069000
      7 C7         -0.7100    0.0570   -1.3180 cp        1 3UX     -0.184300
      8 O8          2.1360    0.0750    3.5480 os        1 3UX     -0.304900
      9 C9          1.4680    0.5020    4.7560 c3        1 3UX      0.135800
     10 C10         0.1160   -0.2300    4.8490 c3        1 3UX      0.130100
     11 C11        -0.8240    0.1440    3.6780 c3        1 3UX      0.141500
     12 C12         2.3480   -0.0020    5.9080 c3        1 3UX     -0.078400
     13 C13         1.6270    0.1910    7.2260 c3        1 3UX     -0.114400
     14 C14         0.2370   -0.4190    7.2030 c3        1 3UX      0.128400
     15 O15        -0.5360    0.0380    6.0850 os        1 3UX     -0.433600
     16 N16        -1.5380    1.4430    3.8640 n2        1 3UX     -0.500900
     17 C17        -2.8280    1.1640    3.9210 c2        1 3UX      0.465800
     18 N18        -3.2140   -0.1960    3.7310 n         1 3UX     -0.420300
     19 C19        -1.9740   -0.9310    3.6440 c         1 3UX      0.689500
     20 O20        -1.9060   -2.1470    3.5670 o         1 3UX     -0.478500
     21 N21        -3.8570    2.2110    4.1030 n4        1 3UX     -0.778600
     22 C22         1.3560    2.0160    4.7680 c3        1 3UX     -0.110100
     23 C23        -4.4580   -0.7500    4.1540 c3        1 3UX      0.053300
     24 C24        -0.1670    0.7530   -2.4120 ca        1 3UX     -0.064000
     25 C25        -0.8300    0.7590   -3.6340 ca        1 3UX     -0.252300
     26 C26        -2.0480    0.0600   -3.7410 ca        1 3UX      0.433200
     27 N27        -2.6110   -0.6160   -2.7290 nb        1 3UX     -0.680000
     28 C28        -1.9460   -0.6190   -1.5370 ca        1 3UX      0.613500
     29 F29        -2.5360   -1.3190   -0.5350 f         1 3UX     -0.226200
     30 H1          1.9570   -0.1180   -0.9480 ha        1 3UX      0.155000
     31 H2          3.1780   -0.0580    1.2320 ha        1 3UX      0.171000
     32 H3         -1.8150    0.1470    1.1530 ha        1 3UX      0.135000
     33 H4          0.3070   -1.3430    4.7580 h1        1 3UX      0.093700
     34 H5          2.5830   -1.0860    5.7430 hc        1 3UX      0.074700
     35 H6          3.3180    0.5570    5.9080 hc        1 3UX      0.074700
     36 H7          1.5490    1.2870    7.4520 hc        1 3UX      0.068700
     37 H8          2.2190   -0.2860    8.0500 hc        1 3UX      0.068700
     38 H9         -0.3700   -0.0900    8.0870 h1        1 3UX      0.064700
     39 H10         0.2930   -1.5400    7.1710 h1        1 3UX      0.064700
     40 H11        -3.4020    3.1180    4.2850 hn        1 3UX      0.483467
     41 H12        -4.4250    2.2750    3.2480 hn        1 3UX      0.483467
     42 H13         1.0040    2.3920    3.7770 hc        1 3UX      0.058700
     43 H14         0.6380    2.3330    5.5620 hc        1 3UX      0.058700
     44 H15         2.3560    2.4700    4.9770 hc        1 3UX      0.058700
     45 H16        -4.4200   -1.8630    3.9790 h1        1 3UX      0.071033
     46 H17        -5.2950   -0.3200    3.5410 h1        1 3UX      0.071033
     47 H18        -4.6560   -0.5650    5.2450 h1        1 3UX      0.071033
     48 H19         0.7840    1.2970   -2.2930 ha        1 3UX      0.150000
     49 H20        -0.4200    1.2940   -4.5010 ha        1 3UX      0.162000
     50 H21        -2.6110    0.0350   -4.6950 h4        1 3UX      0.043100
     51 H213       -4.4560    1.9590    4.8990 hn        1 3UX      0.483467
@<TRIPOS>BOND
     1    1    2 ar  
     2    1    6 ar  
     3    1    7 1   
     4    2    3 ar  
     5    2   30 1   
     6    3    4 ar  
     7    3   31 1   
     8    4    5 ar  
     9    4    8 1   
    10    5    6 ar  
    11    5   11 1   
    12    6   32 1   
    13    7   24 ar  
    14    7   28 ar  
    15    8    9 1   
    16    9   10 1   
    17    9   12 1   
    18    9   22 1   
    19   10   11 1   
    20   10   15 1   
    21   10   33 1   
    22   11   16 1   
    23   11   19 1   
    24   12   13 1   
    25   12   34 1   
    26   12   35 1   
    27   13   14 1   
    28   13   36 1   
    29   13   37 1   
    30   14   15 1   
    31   14   38 1   
    32   14   39 1   
    33   16   17 2   
    34   17   18 1   
    35   17   21 1   
    36   18   19 1   
    37   18   23 1   
    38   19   20 2   
    39   21   40 1   
    40   21   41 1   
    41   21   51 1   
    42   22   42 1   
    43   22   43 1   
    44   22   44 1   
    45   23   45 1   
    46   23   46 1   
    47   23   47 1   
    48   24   25 ar  
    49   24   48 1   
    50   25   26 ar  
    51   25   49 1   
    52   26   27 ar  
    53   26   50 1   
    54   27   28 ar  
    55   28   29 1   
@<TRIPOS>SUBSTRUCTURE
     1 3UX         1 TEMP              0 ****  ****    0 ROOT
