@<TRIPOS>MOLECULE
3UY
   48    52     1     0     0
SMALL
bcc


@<TRIPOS>ATOM
      1 C1         -0.0160    0.0380   -0.0060 ca        1 3UY     -0.061000
      2 C2          1.3910   -0.0220   -0.0440 cp        1 3UY     -0.052000
      3 C3          2.0960   -0.1070    1.1570 ca        1 3UY     -0.076000
      4 C4          1.4330   -0.1150    2.3910 ca        1 3UY     -0.187300
      5 C5          0.0280   -0.0960    2.4060 ca        1 3UY      0.171100
      6 C6         -0.6960   -0.0070    1.1990 ca        1 3UY     -0.146000
      7 C7          2.0880   -0.0050   -1.3240 cp        1 3UY     -0.183300
      8 O8         -0.7430   -0.1040    3.5460 os        1 3UY     -0.306900
      9 C9         -0.0650   -0.5270    4.7510 c3        1 3UY      0.134800
     10 C10         1.2780    0.2210    4.8350 c3        1 3UY      0.128100
     11 C11         2.2280   -0.1370    3.6660 c3        1 3UY      0.176500
     12 C12         3.4000    0.9220    3.6380 c3        1 3UY      0.111400
     13 O13         4.6250    0.1400    3.7770 os        1 3UY     -0.435400
     14 C14         4.1970   -1.1910    3.9060 c2        1 3UY      0.595500
     15 N15         2.9180   -1.4470    3.8470 n2        1 3UY     -0.486900
     16 N16         5.3070   -2.1210    4.1020 n4        1 3UY     -0.765600
     17 O17         1.9390   -0.0230    6.0700 os        1 3UY     -0.430600
     18 C18         1.1610    0.4180    7.1910 c3        1 3UY      0.128400
     19 C19        -0.2160   -0.2180    7.2210 c3        1 3UY     -0.114400
     20 C20        -0.9470   -0.0350    5.9080 c3        1 3UY     -0.079400
     21 C21         0.0590   -2.0410    4.7600 c3        1 3UY     -0.109100
     22 C22         3.3080    0.7050   -1.5270 ca        1 3UY      0.611500
     23 N23         3.9770    0.7390   -2.7160 nb        1 3UY     -0.678000
     24 C24         3.4350    0.0650   -3.7410 ca        1 3UY      0.433200
     25 C25         2.2340   -0.6650   -3.6500 ca        1 3UY     -0.251300
     26 C26         1.5650   -0.6960   -2.4310 ca        1 3UY     -0.063000
     27 F27         3.8740    1.4030   -0.5090 f         1 3UY     -0.231200
     28 H1         -0.5830    0.1240   -0.9480 ha        1 3UY      0.155000
     29 H2          3.1970   -0.1540    1.1340 ha        1 3UY      0.132000
     30 H3         -1.7960    0.0300    1.2380 ha        1 3UY      0.170000
     31 H4          1.0620    1.3280    4.7410 h1        1 3UY      0.076700
     32 H5          3.3690    1.6120    4.5170 h1        1 3UY      0.112200
     33 H6          3.4810    1.4680    2.6660 h1        1 3UY      0.112200
     34 H7          5.0010   -3.0850    3.9120 hn        1 3UY      0.489800
     35 H8          5.6290   -2.0390    5.0770 hn        1 3UY      0.489800
     36 H9          1.0830    1.5380    7.1590 h1        1 3UY      0.063200
     37 H10         1.7790    0.1020    8.0730 h1        1 3UY      0.063200
     38 H11        -0.8120    0.2470    8.0490 hc        1 3UY      0.068700
     39 H12        -0.1170   -1.3130    7.4440 hc        1 3UY      0.068700
     40 H13        -1.1980    1.0450    5.7430 hc        1 3UY      0.073700
     41 H14        -1.9090   -0.6070    5.9130 hc        1 3UY      0.073700
     42 H15        -0.9340   -2.5020    4.9820 hc        1 3UY      0.058367
     43 H16         0.3990   -2.4130    3.7640 hc        1 3UY      0.058367
     44 H17         0.7890   -2.3520    5.5450 hc        1 3UY      0.058367
     45 H18         4.0000    0.1190   -4.6910 h4        1 3UY      0.043100
     46 H19         1.8400   -1.1960   -4.5280 ha        1 3UY      0.162000
     47 H20         0.6270   -1.2630   -2.3240 ha        1 3UY      0.151000
     48 H163        6.0720   -1.8560    3.4650 hn        1 3UY      0.489800
@<TRIPOS>BOND
     1    1    2 ar  
     2    1    6 ar  
     3    1   28 1   
     4    2    3 ar  
     5    2    7 1   
     6    3    4 ar  
     7    3   29 1   
     8    4    5 ar  
     9    4   11 1   
    10    5    6 ar  
    11    5    8 1   
    12    6   30 1   
    13    7   22 ar  
    14    7   26 ar  
    15    8    9 1   
    16    9   10 1   
    17    9   20 1   
    18    9   21 1   
    19   10   11 1   
    20   10   17 1   
    21   10   31 1   
    22   11   12 1   
    23   11   15 1   
    24   12   13 1   
    25   12   32 1   
    26   12   33 1   
    27   13   14 1   
    28   14   15 2   
    29   14   16 1   
    30   16   34 1   
    31   16   35 1   
    32   16   48 1   
    33   17   18 1   
    34   18   19 1   
    35   18   36 1   
    36   18   37 1   
    37   19   20 1   
    38   19   38 1   
    39   19   39 1   
    40   20   40 1   
    41   20   41 1   
    42   21   42 1   
    43   21   43 1   
    44   21   44 1   
    45   22   23 ar  
    46   22   27 1   
    47   23   24 ar  
    48   24   25 ar  
    49   24   45 1   
    50   25   26 ar  
    51   25   46 1   
    52   26   47 1   
@<TRIPOS>SUBSTRUCTURE
     1 3UY         1 TEMP              0 ****  ****    0 ROOT
