@<TRIPOS>MOLECULE
3UY
   48    52     1     0     0
SMALL
bcc


@<TRIPOS>ATOM
      1 C1         -0.0090    0.0570   -0.0080 ca        1 3UY     -0.061000
      2 C2          1.3980   -0.0130   -0.0440 cp        1 3UY     -0.052000
      3 C3          2.1000   -0.1050    1.1580 ca        1 3UY     -0.076000
      4 C4          1.4350   -0.1130    2.3910 ca        1 3UY     -0.187300
      5 C5          0.0300   -0.0840    2.4050 ca        1 3UY      0.171100
      6 C6         -0.6910    0.0130    1.1960 ca        1 3UY     -0.146000
      7 C7          2.0970    0.0040   -1.3230 cp        1 3UY     -0.183300
      8 O8         -0.7430   -0.0900    3.5430 os        1 3UY     -0.306900
      9 C9         -0.0700   -0.5210    4.7480 c3        1 3UY      0.134800
     10 C10         1.2780    0.2170    4.8350 c3        1 3UY      0.128100
     11 C11         2.2270   -0.1440    3.6680 c3        1 3UY      0.176500
     12 C12         3.4070    0.9080    3.6440 c3        1 3UY      0.111400
     13 O13         4.6270    0.1170    3.7830 os        1 3UY     -0.435400
     14 C14         4.1890   -1.2110    3.9070 c2        1 3UY      0.595500
     15 N15         2.9090   -1.4580    3.8450 n2        1 3UY     -0.486900
     16 N16         5.2920   -2.1500    4.1030 nz        1 3UY     -0.765600
     17 O17         1.9360   -0.0340    6.0720 os        1 3UY     -0.430600
     18 C18         1.1590    0.4090    7.1920 c3        1 3UY      0.128400
     19 C19        -0.2220   -0.2180    7.2180 c3        1 3UY     -0.114400
     20 C20        -0.9500   -0.0260    5.9040 c3        1 3UY     -0.079400
     21 C21         0.0440   -2.0350    4.7530 c3        1 3UY     -0.109100
     22 C22         3.3220    0.7060   -1.5210 ca        1 3UY      0.611500
     23 N23         3.9930    0.7380   -2.7090 nb        1 3UY     -0.678000
     24 C24         3.4480    0.0720   -3.7370 ca        1 3UY      0.433200
     25 C25         2.2420   -0.6510   -3.6500 ca        1 3UY     -0.251300
     26 C26         1.5710   -0.6800   -2.4320 ca        1 3UY     -0.063000
     27 F27         3.8910    1.3970   -0.5010 f         1 3UY     -0.231200
     28 H1         -0.5740    0.1500   -0.9500 ha        1 3UY      0.155000
     29 H2          3.2000   -0.1600    1.1370 ha        1 3UY      0.132000
     30 H3         -1.7910    0.0580    1.2330 ha        1 3UY      0.170000
     31 H4          1.0700    1.3270    4.7450 h1        1 3UY      0.076700
     32 H5          3.4930    1.4560    2.6740 h1        1 3UY      0.112200
     33 H6          3.3790    1.5950    4.5250 h1        1 3UY      0.112200
     34 H7          4.9780   -3.1120    3.9170 hn        1 3UY      0.489800
     35 H8          6.0570   -1.8920    3.4620 hn        1 3UY      0.489800
     36 H9          1.7730    0.0860    8.0740 h1        1 3UY      0.063200
     37 H10         1.0890    1.5290    7.1630 h1        1 3UY      0.063200
     38 H11        -0.1310   -1.3140    7.4390 hc        1 3UY      0.068700
     39 H12        -0.8170    0.2480    8.0470 hc        1 3UY      0.068700
     40 H13        -1.9160   -0.5920    5.9060 hc        1 3UY      0.073700
     41 H14        -1.1930    1.0560    5.7430 hc        1 3UY      0.073700
     42 H15         0.3840   -2.4070    3.7570 hc        1 3UY      0.058367
     43 H16         0.7710   -2.3540    5.5380 hc        1 3UY      0.058367
     44 H17        -0.9530   -2.4910    4.9720 hc        1 3UY      0.058367
     45 H18         4.0150    0.1240   -4.6860 h4        1 3UY      0.043100
     46 H19         1.8460   -1.1760   -4.5300 ha        1 3UY      0.162000
     47 H20         0.6290   -1.2420   -2.3290 ha        1 3UY      0.151000
     48 H163        5.6190   -2.0670    5.0760 hn        1 3UY      0.489800
@<TRIPOS>BOND
     1    1    2 ar  
     2    1    6 ar  
     3    1   28 1   
     4    2    3 ar  
     5    2    7 1   
     6    3    4 ar  
     7    3   29 1   
     8    4    5 ar  
     9    4   11 1   
    10    5    6 ar  
    11    5    8 1   
    12    6   30 1   
    13    7   22 ar  
    14    7   26 ar  
    15    8    9 1   
    16    9   10 1   
    17    9   20 1   
    18    9   21 1   
    19   10   11 1   
    20   10   17 1   
    21   10   31 1   
    22   11   12 1   
    23   11   15 1   
    24   12   13 1   
    25   12   32 1   
    26   12   33 1   
    27   13   14 1   
    28   14   15 2   
    29   14   16 1   
    30   16   34 1   
    31   16   35 1   
    32   16   48 1   
    33   17   18 1   
    34   18   19 1   
    35   18   36 1   
    36   18   37 1   
    37   19   20 1   
    38   19   38 1   
    39   19   39 1   
    40   20   40 1   
    41   20   41 1   
    42   21   42 1   
    43   21   43 1   
    44   21   44 1   
    45   22   23 ar  
    46   22   27 1   
    47   23   24 ar  
    48   24   25 ar  
    49   24   45 1   
    50   25   26 ar  
    51   25   46 1   
    52   26   47 1   
@<TRIPOS>SUBSTRUCTURE
     1 3UY         1 TEMP              0 ****  ****    0 ROOT
