@<TRIPOS>MOLECULE
3UZ
   52    53     1     0     0
SMALL
bcc


@<TRIPOS>ATOM
      1 CAC        -0.8650   -0.0700   -0.7540 ca        1 3UZ     -0.102000
      2 CAB         0.4690   -0.1240   -1.1530 ca        1 3UZ     -0.118500
      3 CAA         1.4740   -0.3070   -0.1950 ca        1 3UZ      0.046400
      4 CL1         3.0930   -0.3730   -0.6740 cl        1 3UZ     -0.032400
      5 CAF         1.1430   -0.4290    1.1610 ca        1 3UZ     -0.118500
      6 CAE        -0.1920   -0.3780    1.5520 ca        1 3UZ     -0.102000
      7 CAD        -1.2010   -0.2050    0.5980 ca        1 3UZ     -0.189300
      8 CAH        -2.6400   -0.1280    1.0040 c3        1 3UZ      0.149400
      9 OAI        -2.7840    0.2450    2.3680 os        1 3UZ     -0.446600
     10 CAJ        -3.2810    1.5780    2.5760 c3        1 3UZ      0.223500
     11 CAK        -4.6200    1.7580    2.0900 c1        1 3UZ     -0.246100
     12 CAL        -5.7390    1.9670    1.7200 c1        1 3UZ     -0.048500
     13 CAM        -3.2530   -1.5330    0.8740 c         1 3UZ      0.531100
     14 OAN        -3.9990   -1.9310   -0.0030 o         1 3UZ     -0.402100
     15 NAO        -2.8340   -2.4890    1.9640 n4        1 3UZ     -0.669800
     16 CAP        -3.2460   -3.9080    1.7630 c3        1 3UZ      0.101800
     17 CAQ        -2.3620   -4.6620    0.7680 c3        1 3UZ     -0.036100
     18 CAR        -2.8250   -6.0730    0.6930 ca        1 3UZ     -0.133300
     19 CAW        -3.8970   -6.4040   -0.1540 ca        1 3UZ     -0.176000
     20 CAV        -4.3290   -7.7230   -0.2430 ca        1 3UZ      0.115100
     21 OAX        -5.3740   -8.1620   -1.0230 os        1 3UZ     -0.289900
     22 CAY        -5.9390   -7.2080   -1.9170 c3        1 3UZ      0.106700
     23 CAS        -2.1930   -7.0640    1.4380 ca        1 3UZ     -0.106000
     24 CAT        -2.6180   -8.3930    1.3590 ca        1 3UZ     -0.188000
     25 CAU        -3.6820   -8.7380    0.5270 ca        1 3UZ      0.142100
     26 OAZ        -4.1990   -9.9980    0.3690 os        1 3UZ     -0.287900
     27 CBA        -3.5100  -11.0480    1.0870 c3        1 3UZ      0.215500
     28 CBB        -4.1610  -12.2850    0.7580 c1        1 3UZ     -0.173100
     29 CBC        -4.6900  -13.3240    0.4950 c1        1 3UZ     -0.078500
     30 H1         -1.6510    0.0870   -1.5110 ha        1 3UZ      0.149000
     31 H2          0.7290   -0.0160   -2.2190 ha        1 3UZ      0.170000
     32 H3          1.9360   -0.5520    1.9170 ha        1 3UZ      0.170000
     33 H4         -0.4510   -0.4330    2.6220 ha        1 3UZ      0.149000
     34 H5         -3.2270    0.5530    0.3200 h1        1 3UZ      0.130700
     35 H6         -3.2360    1.6770    3.7000 h1        1 3UZ      0.095700
     36 H7         -2.5780    2.3140    2.0960 h1        1 3UZ      0.095700
     37 H8         -6.7330    2.1580    1.3900 ha        1 3UZ      0.185500
     38 H9         -3.2380   -2.1300    2.8400 hn        1 3UZ      0.468300
     39 H10        -3.2030   -4.4170    2.7690 hx        1 3UZ      0.112700
     40 H11        -4.3140   -3.9150    1.3950 hx        1 3UZ      0.112700
     41 H12        -2.4340   -4.1800   -0.2450 hc        1 3UZ      0.067200
     42 H13        -1.2880   -4.6260    1.0940 hc        1 3UZ      0.067200
     43 H14        -4.3810   -5.6180   -0.7510 ha        1 3UZ      0.141000
     44 H15        -6.6990   -7.8080   -2.4810 h1        1 3UZ      0.050033
     45 H16        -6.4320   -6.3820   -1.3480 h1        1 3UZ      0.050033
     46 H17        -5.1620   -6.8010   -2.6080 h1        1 3UZ      0.050033
     47 H18        -1.3430   -6.8140    2.0910 ha        1 3UZ      0.132000
     48 H19        -2.0990   -9.1580    1.9560 ha        1 3UZ      0.153000
     49 H20        -3.5820  -10.8410    2.1910 h1        1 3UZ      0.060200
     50 H21        -2.4320  -11.0660    0.7650 h1        1 3UZ      0.060200
     51 H22        -5.1530  -14.2520    0.2670 ha        1 3UZ      0.175500
     52 HAO2       -1.8090   -2.4260    2.0410 hn        1 3UZ      0.468300
@<TRIPOS>BOND
     1    1    2 ar  
     2    1    7 ar  
     3    1   30 1   
     4    2    3 ar  
     5    2   31 1   
     6    3    4 1   
     7    3    5 ar  
     8    5    6 ar  
     9    5   32 1   
    10    6    7 ar  
    11    6   33 1   
    12    7    8 1   
    13    8    9 1   
    14    8   13 1   
    15    8   34 1   
    16    9   10 1   
    17   10   11 1   
    18   10   35 1   
    19   10   36 1   
    20   11   12 3   
    21   12   37 1   
    22   13   14 2   
    23   13   15 1   
    24   15   16 1   
    25   15   38 1   
    26   15   52 1   
    27   16   17 1   
    28   16   39 1   
    29   16   40 1   
    30   17   18 1   
    31   17   41 1   
    32   17   42 1   
    33   18   19 ar  
    34   18   23 ar  
    35   19   20 ar  
    36   19   43 1   
    37   20   21 1   
    38   20   25 ar  
    39   21   22 1   
    40   22   44 1   
    41   22   45 1   
    42   22   46 1   
    43   23   24 ar  
    44   23   47 1   
    45   24   25 ar  
    46   24   48 1   
    47   25   26 1   
    48   26   27 1   
    49   27   28 1   
    50   27   49 1   
    51   27   50 1   
    52   28   29 3   
    53   29   51 1   
@<TRIPOS>SUBSTRUCTURE
     1 3UZ         1 TEMP              0 ****  ****    0 ROOT
