@<TRIPOS>MOLECULE
3UZ
   52    53     1     0     0
SMALL
bcc


@<TRIPOS>ATOM
      1 CAC        -0.6940    0.5590    0.1090 ca        1 3UZ     -0.101000
      2 CAB         0.6620    0.8770    0.1010 ca        1 3UZ     -0.120000
      3 CAA         1.5810    0.0140    0.7110 ca        1 3UZ      0.044400
      4 Cl1         3.2270    0.3970    0.7050 cl        1 3UZ     -0.036400
      5 CAF         1.1410   -1.1620    1.3330 ca        1 3UZ     -0.120000
      6 CAE        -0.2150   -1.4770    1.3330 ca        1 3UZ     -0.101000
      7 CAD        -1.1360   -0.6230    0.7150 ca        1 3UZ     -0.182300
      8 CAH        -2.6020   -0.9330    0.7260 c3        1 3UZ      0.154400
      9 OAI        -2.9280   -1.8690    1.7400 os        1 3UZ     -0.435600
     10 CAJ        -3.9030   -1.4190    2.6960 c3        1 3UZ      0.225500
     11 CAK        -3.5110   -0.2330    3.4000 c1        1 3UZ     -0.239100
     12 CAL        -3.2190    0.7420    4.0300 c1        1 3UZ     -0.043500
     13 CAM        -2.9540   -1.6000   -0.6180 c         1 3UZ      0.522100
     14 OAN        -3.5960   -1.1210   -1.5350 o         1 3UZ     -0.408100
     15 NAO        -2.3970   -2.9900   -0.7750 ny        1 3UZ     -0.667800
     16 CAP        -2.4860   -3.5400   -2.1570 c3        1 3UZ      0.109800
     17 CAQ        -2.0540   -5.0030   -2.2260 c3        1 3UZ     -0.050100
     18 CAR        -2.6430   -5.8200   -1.1320 ca        1 3UZ     -0.167300
     19 CAW        -4.0390   -5.8580   -0.9630 ca        1 3UZ     -0.202000
     20 CAV        -4.5990   -6.6340    0.0460 ca        1 3UZ      0.114100
     21 OAX        -5.9440   -6.6960    0.3270 os        1 3UZ     -0.294900
     22 CAY        -6.8220   -6.3570   -0.7450 c3        1 3UZ      0.106700
     23 CAS        -1.8240   -6.5750   -0.2970 ca        1 3UZ     -0.106000
     24 CAT        -2.3730   -7.3570    0.7240 ca        1 3UZ     -0.189000
     25 CAU        -3.7540   -7.3950    0.9110 ca        1 3UZ      0.143100
     26 OAZ        -4.4080   -8.0950    1.8890 os        1 3UZ     -0.287900
     27 CBA        -3.5930   -9.0240    2.6440 c3        1 3UZ      0.217500
     28 CBB        -4.4740   -9.7540    3.5100 c1        1 3UZ     -0.180100
     29 CBC        -5.1920  -10.3740    4.2370 c1        1 3UZ     -0.070500
     30 H1         -1.4160    1.2490   -0.3570 ha        1 3UZ      0.151000
     31 H2          1.0060    1.8100   -0.3750 ha        1 3UZ      0.169000
     32 H3          1.8630   -1.8300    1.8320 ha        1 3UZ      0.169000
     33 H4         -0.5680   -2.3790    1.8580 ha        1 3UZ      0.151000
     34 H5         -3.2170    0.0110    0.8030 h1        1 3UZ      0.129700
     35 H6         -4.8850   -1.2620    2.1680 h1        1 3UZ      0.086700
     36 H7         -3.9740   -2.3040    3.3950 h1        1 3UZ      0.086700
     37 H8         -2.9610    1.6090    4.5900 ha        1 3UZ      0.184500
     38 H9         -2.9170   -3.6140   -0.1320 hn        1 3UZ      0.474300
     39 H10        -3.5580   -3.4330   -2.4940 hx        1 3UZ      0.107700
     40 H11        -1.8390   -2.9070   -2.8280 hx        1 3UZ      0.107700
     41 H12        -0.9330   -5.0700   -2.2050 hc        1 3UZ      0.088700
     42 H13        -2.3920   -5.3990   -3.2240 hc        1 3UZ      0.088700
     43 H14        -4.6890   -5.3070   -1.6580 ha        1 3UZ      0.140000
     44 H15        -7.8260   -6.6770   -0.3620 h1        1 3UZ      0.051700
     45 H16        -6.8040   -5.2550   -0.9230 h1        1 3UZ      0.051700
     46 H17        -6.5560   -6.9120   -1.6760 h1        1 3UZ      0.051700
     47 H18        -0.7330   -6.5770   -0.4420 ha        1 3UZ      0.142000
     48 H19        -1.7020   -7.9510    1.3630 ha        1 3UZ      0.158000
     49 H20        -2.8410   -8.4360    3.2420 h1        1 3UZ      0.061700
     50 H21        -3.0660   -9.7170    1.9310 h1        1 3UZ      0.061700
     51 H22        -5.8220  -10.9320    4.8860 ha        1 3UZ      0.177500
     52 HAO2       -1.4180   -2.9740   -0.4600 hn        1 3UZ      0.474300
@<TRIPOS>BOND
     1    1    2 ar  
     2    1    7 ar  
     3    1   30 1   
     4    2    3 ar  
     5    2   31 1   
     6    3    4 1   
     7    3    5 ar  
     8    5    6 ar  
     9    5   32 1   
    10    6    7 ar  
    11    6   33 1   
    12    7    8 1   
    13    8    9 1   
    14    8   13 1   
    15    8   34 1   
    16    9   10 1   
    17   10   11 1   
    18   10   35 1   
    19   10   36 1   
    20   11   12 3   
    21   12   37 1   
    22   13   14 2   
    23   13   15 1   
    24   15   16 1   
    25   15   38 1   
    26   15   52 1   
    27   16   17 1   
    28   16   39 1   
    29   16   40 1   
    30   17   18 1   
    31   17   41 1   
    32   17   42 1   
    33   18   19 ar  
    34   18   23 ar  
    35   19   20 ar  
    36   19   43 1   
    37   20   21 1   
    38   20   25 ar  
    39   21   22 1   
    40   22   44 1   
    41   22   45 1   
    42   22   46 1   
    43   23   24 ar  
    44   23   47 1   
    45   24   25 ar  
    46   24   48 1   
    47   25   26 1   
    48   26   27 1   
    49   27   28 1   
    50   27   49 1   
    51   27   50 1   
    52   28   29 3   
    53   29   51 1   
@<TRIPOS>SUBSTRUCTURE
     1 3UZ         1 TEMP              0 ****  ****    0 ROOT
