@<TRIPOS>MOLECULE
3V0
   44    43     1     0     0
SMALL
bcc


@<TRIPOS>ATOM
      1 C1         56.3510   51.9680 -197.3650 c2        1 3V0     -0.085000
      2 F1         56.8270   53.5970 -189.5250 f         1 3V0     -0.068000
      3 I1         59.9560   48.8220 -191.3270 i         1 3V0      0.233000
      4 N1         56.2390   52.6920 -196.3310 n2        1 3V0     -0.074000
      5 O1         57.8420   56.1960 -194.5140 os        1 3V0     -0.084000
      6 C2         56.9580   55.9080 -196.7450 c1        1 3V0      0.359000
      7 N2         59.3320   57.0190 -192.2180 n         1 3V0     -0.368000
      8 O2         57.7350   55.9550 -190.9500 o         1 3V0     -0.365000
      9 C3         56.0920   53.1840 -195.2040 c1        1 3V0     -0.182000
     10 O3       -133.2440 -127.6940  479.6050 oh        1 3V0     -0.362000
     11 C4         56.0620   54.5800 -194.7380 c3        1 3V0      0.051000
     12 O4       -133.6020 -126.8030  476.9890 oh        1 3V0     -0.320000
     13 C5         56.9590   55.5780 -195.4480 c2        1 3V0     -0.354000
     14 O5       -131.3260 -125.6690  477.5260 oh        1 3V0     -0.075000
     15 C6         57.5620   55.6660 -193.2680 c2        1 3V0      0.085000
     16 C7         56.5870   54.7060 -193.3110 c2        1 3V0     -0.215000
     17 C8         58.2360   56.2400 -192.0620 c2        1 3V0      0.356000
     18 C9         56.7820   52.7580 -191.8080 c2        1 3V0     -0.116000
     19 C10        56.9680   51.7120 -192.6470 c2        1 3V0     -0.062000
     20 C11        57.6550   50.5240 -192.1580 c2        1 3V0     -0.141000
     21 C12        58.9740   50.4750 -191.9120 c2        1 3V0     -0.275000
     22 C13        58.1730   51.7030 -190.0680 c1        1 3V0      0.268000
     23 C14        57.2910   52.6820 -190.4190 c2        1 3V0     -0.219000
     24 C15      -134.1730 -126.6480  479.3880 c3        1 3V0     -0.045000
     25 C16      -133.6790 -125.9500  478.1110 c3        1 3V0     -0.045000
     26 C17      -132.3030 -125.3860  478.3200 c2        1 3V0      0.279000
     27 H1         57.3390   51.5830 -197.6790 h4        1 3V0      0.170000
     28 H2         55.4630   51.7120 -197.9730 h4        1 3V0      0.170000
     29 HN2        59.6700   57.2580 -193.1190 hn        1 3V0      0.262000
     30 H3         54.9870   54.9300 -194.7780 hc        1 3V0      0.156000
     31 HN3        55.0820   53.7030 -192.4240 hn        1 3V0      0.282000
     32 HO4      -133.7050 -127.7250  477.2810 ho        1 3V0      0.269000
     33 HO5      -131.5720 -126.3060  476.7940 ho        1 3V0      0.333000
     34 H10        56.5950   51.6940 -193.6930 ha        1 3V0      0.217000
     35 H11        56.9970   49.6400 -192.0340 ha        1 3V0      0.185000
     36 H13        59.6380   51.3360 -192.0890 h4        1 3V0      0.163000
     37 H15      -133.6070 -128.2850  480.2800 ho        1 3V0      0.263000
     38 H15A     -134.1780 -125.9330  480.2530 h1        1 3V0      0.127500
     39 H16      -135.2080 -127.0460  479.2110 h1        1 3V0      0.127500
     40 H17      -134.3780 -125.0980  477.8340 h1        1 3V0      0.204000
     41 H17A     -132.0420 -124.6850  479.1480 h4        1 3V0      0.244000
     42 N3         56.0480   53.9740 -192.1930 n4        1 3V0      0.107000
     43 H22        59.7620   57.4190 -191.4150 hn        1 3V0      0.262000
     44 H32        56.0540   54.6140 -191.3640 hn        1 3V0      0.282000
@<TRIPOS>BOND
     1    1    4 1   
     2    1   27 1   
     3    1   28 1   
     4    2   23 1   
     5    3   21 1   
     6    4    9 1   
     7    5   13 1   
     8    5   15 1   
     9    6   13 1   
    10    7   17 1   
    11    7   29 1   
    12    7   43 1   
    13    8   17 1   
    14    9   11 1   
    15   10   24 1   
    16   10   37 1   
    17   11   13 1   
    18   11   16 1   
    19   11   30 1   
    20   12   25 1   
    21   12   32 1   
    22   14   26 1   
    23   14   33 1   
    24   15   16 1   
    25   15   17 1   
    26   16   42 1   
    27   18   19 1   
    28   18   23 1   
    29   18   42 1   
    30   19   20 1   
    31   19   34 1   
    32   20   21 1   
    33   20   35 1   
    34   21   36 1   
    35   22   23 1   
    36   24   25 1   
    37   24   38 1   
    38   24   39 1   
    39   25   26 1   
    40   25   40 1   
    41   26   41 1   
    42   31   42 1   
    43   42   44 1   
@<TRIPOS>SUBSTRUCTURE
     1 3V0         1 TEMP              0 ****  ****    0 ROOT
