@<TRIPOS>MOLECULE
3V0
   42    37     1     0     0
SMALL
bcc


@<TRIPOS>ATOM
      1 C1         -0.9220   -0.1710   -5.4860 c1        1 3V0     -0.110000
      2 F1          1.5210    2.6640   -0.4210 f         1 3V0     -0.094000
      3 I1          6.1060    4.7470   -1.1050 i         1 3V0      0.164000
      4 N1          0.4440   -0.1290   -5.5000 n1        1 3V0     -0.156000
      5 O1         -1.3210   -0.1860   -1.7490 os        1 3V0     -0.090000
      6 C2         -1.6060   -0.2070   -4.2750 c1        1 3V0     -0.110000
      7 N2         -1.5190   -0.5820    1.2100 n3        1 3V0     -0.160000
      8 O2          0.7680   -0.3530    1.2030 o         1 3V0     -0.337000
      9 C3          1.1420   -0.1230   -4.3230 c1        1 3V0      0.004000
     10 N3          2.2610   -0.2530   -1.3590 n3        1 3V0     -0.239000
     11 O3         -1.5740   -0.7110    2.5880 os        1 3V0     -0.155000
     12 C4          0.4550   -0.1600   -3.0980 c1        1 3V0     -0.194000
     13 O4         -2.1780   -2.6200    4.7100 oh        1 3V0     -0.331000
     14 C5         -0.9030   -0.2010   -3.0830 c1        1 3V0      0.088000
     15 O5         -4.3130   -1.9780    6.3060 oh        1 3V0     -0.341000
     16 C6         -0.2090   -0.1350   -0.9570 c1        1 3V0     -0.192000
     17 C7          0.8990   -0.1180   -1.7780 c1        1 3V0      0.150000
     18 C8         -0.2600   -0.3310    0.5600 c1        1 3V0      0.333000
     19 C9          3.1230    0.8900   -1.3450 c2        1 3V0      0.058000
     20 C10         4.4660    0.7480   -1.6600 c2        1 3V0     -0.166000
     21 C11         5.3190    1.8380   -1.5690 c1        1 3V0     -0.080000
     22 C12         4.8280    3.0710   -1.1620 c1        1 3V0     -0.269000
     23 C13         3.4880    3.2130   -0.8470 c1        1 3V0     -0.104000
     24 C14         2.6330    2.1210   -0.9380 c1        1 3V0      0.053000
     25 C15        -2.8750   -1.1270    2.9830 c3        1 3V0     -0.080000
     26 C16        -2.8810   -1.4300    4.4720 c3        1 3V0      0.040000
     27 C17        -4.3090   -1.5820    4.9500 c3        1 3V0     -0.059000
     28 H1         -1.4200   -0.1750   -6.3290 ha        1 3V0      0.168000
     29 H2         -2.5810   -0.2370   -4.2650 ha        1 3V0      0.168000
     30 HN2        -2.2780   -0.6500    0.7170 hn        1 3V0      0.205000
     31 H3          2.1170   -0.0940   -4.3350 ha        1 3V0      0.178000
     32 HN3         2.5800   -1.0680   -1.1020 hn        1 3V0      0.278000
     33 HO4        -1.4460   -2.4430    5.1830 ho        1 3V0      0.225000
     34 HO5        -5.1360   -1.9060    6.6330 ho        1 3V0      0.209000
     35 H10         4.8110   -0.1170   -1.9460 ha        1 3V0      0.154000
     36 H11         6.2690    1.7380   -1.7920 ha        1 3V0      0.154000
     37 H13         3.1360    4.0860   -0.5950 ha        1 3V0      0.166000
     38 H15        -3.5180   -0.4130    2.7930 h1        1 3V0      0.100000
     39 H15A       -3.1250   -1.9320    2.4860 h1        1 3V0      0.100000
     40 H16        -2.4520   -0.6970    4.9550 h1        1 3V0      0.110000
     41 H17        -4.7770   -0.7240    4.8590 h1        1 3V0      0.082000
     42 H17A       -4.7630   -2.2610    4.4100 h1        1 3V0      0.082000
@<TRIPOS>BOND
     1    1    6 1   
     2    1   28 1   
     3    2   24 1   
     4    3   22 1   
     5    4    9 1   
     6    5   14 1   
     7    5   16 1   
     8    6   29 1   
     9    7   11 1   
    10    7   18 1   
    11    7   30 1   
    12    8   18 1   
    13    9   31 1   
    14   10   17 1   
    15   10   19 1   
    16   10   32 1   
    17   11   25 1   
    18   12   14 1   
    19   13   26 1   
    20   13   33 1   
    21   15   27 1   
    22   15   34 1   
    23   16   17 1   
    24   19   20 1   
    25   19   24 1   
    26   20   21 1   
    27   20   35 1   
    28   21   36 1   
    29   22   23 1   
    30   23   37 1   
    31   25   26 1   
    32   25   38 1   
    33   25   39 1   
    34   26   27 1   
    35   26   40 1   
    36   27   41 1   
    37   27   42 1   
@<TRIPOS>SUBSTRUCTURE
     1 3V0         1 TEMP              0 ****  ****    0 ROOT
