@<TRIPOS>MOLECULE
3V0
   42    44     1     0     0
SMALL
bcc


@<TRIPOS>ATOM
      1 C1         -0.0660    5.3200    0.8050 ca        1 3V0      0.429200
      2 F1          0.8150   -1.3740   -2.8250 f         1 3V0     -0.129900
      3 I1          5.6490   -1.2850   -0.5630 i         1 3V0     -0.122900
      4 N1          0.9770    4.6650    0.2390 nb        1 3V0     -0.682000
      5 O1         -2.6540    2.6920    0.6480 os        1 3V0     -0.181200
      6 C2         -1.3430    4.7750    1.0130 ca        1 3V0     -0.250300
      7 N2         -4.6710    0.7540    0.3300 n         1 3V0     -0.331400
      8 O2         -3.0480   -0.7140   -0.4970 o         1 3V0     -0.580100
      9 C3          0.8060    3.3930   -0.1550 ca        1 3V0      0.468200
     10 O3         -5.4440   -0.2720    0.7090 os        1 3V0     -0.273900
     11 C4         -0.4180    2.7230    0.0090 ca        1 3V0     -0.270100
     12 O4         -7.3980   -2.8890   -0.7290 oh        1 3V0     -0.598800
     13 C5         -1.5000    3.4540    0.5940 ca        1 3V0      0.131100
     14 O5         -8.9720   -2.4040    1.5470 oh        1 3V0     -0.612800
     15 C6         -2.3080    1.4360    0.0900 cc        1 3V0     -0.166100
     16 C7         -0.9650    1.4040   -0.3130 cd        1 3V0      0.238800
     17 C8         -3.3320    0.4000   -0.0150 c         1 3V0      0.659300
     18 C9          0.9840    0.0030   -0.8420 ca        1 3V0      0.138600
     19 C10         1.8080    0.4570    0.2060 ca        1 3V0     -0.166000
     20 C11         3.1470    0.0860    0.2790 ca        1 3V0     -0.080000
     21 C12         3.7050   -0.7580   -0.6790 ca        1 3V0      0.016900
     22 C13         2.9150   -1.2430   -1.7170 ca        1 3V0     -0.104000
     23 C14         1.5640   -0.8750   -1.8110 ca        1 3V0      0.087900
     24 C15        -6.1480   -0.9250   -0.3880 c3        1 3V0      0.127400
     25 C16        -7.0150   -1.9840    0.2950 c3        1 3V0      0.141100
     26 C17        -8.2450   -1.3440    0.9450 c3        1 3V0      0.091400
     27 H1          0.1470    6.3630    1.1070 h4        1 3V0      0.032100
     28 H2         -2.1590    5.3480    1.4670 ha        1 3V0      0.166000
     29 HN2        -4.7130    1.4550    1.0630 hn        1 3V0      0.308500
     30 H3          1.6780    2.8970   -0.6210 h4        1 3V0      0.041100
     31 HN3        -0.9820   -0.3670   -1.2920 hn        1 3V0      0.480800
     32 HO4        -8.0100   -3.5150   -0.3190 ho        1 3V0      0.424000
     33 HO5        -9.7560   -2.0130    1.9480 ho        1 3V0      0.408000
     34 H10         1.3870    1.1080    0.9900 ha        1 3V0      0.154000
     35 H11         3.7580    0.4660    1.1140 ha        1 3V0      0.154000
     36 H13         3.3280   -1.9200   -2.4840 ha        1 3V0      0.165000
     37 H15        -6.7700   -0.1820   -0.9450 h1        1 3V0      0.071200
     38 H15A       -5.4040   -1.4090   -1.0720 h1        1 3V0      0.071200
     39 H16        -6.4190   -2.5290    1.0800 h1        1 3V0      0.066700
     40 H17        -8.8790   -0.8360    0.1710 h1        1 3V0      0.039700
     41 H17A       -7.9200   -0.6000    1.7180 h1        1 3V0      0.039700
     42 N3         -0.3650    0.3600   -0.9700 nh        1 3V0     -0.605400
@<TRIPOS>BOND
     1    1    4 ar  
     2    1    6 ar  
     3    1   27 1   
     4    2   23 1   
     5    3   21 1   
     6    4    9 ar  
     7    5   13 1   
     8    5   15 1   
     9    6   13 ar  
    10    6   28 1   
    11    7   10 1   
    12    7   17 1   
    13    7   29 1   
    14    8   17 2   
    15    9   11 ar  
    16    9   30 1   
    17   10   24 1   
    18   11   13 ar  
    19   11   16 1   
    20   12   25 1   
    21   12   32 1   
    22   14   26 1   
    23   14   33 1   
    24   15   16 2   
    25   15   17 1   
    26   16   42 1   
    27   18   19 ar  
    28   18   23 ar  
    29   18   42 1   
    30   19   20 ar  
    31   19   34 1   
    32   20   21 ar  
    33   20   35 1   
    34   21   22 ar  
    35   22   23 ar  
    36   22   36 1   
    37   24   25 1   
    38   24   37 1   
    39   24   38 1   
    40   25   26 1   
    41   25   39 1   
    42   26   40 1   
    43   26   41 1   
    44   31   42 1   
@<TRIPOS>SUBSTRUCTURE
     1 3V0         1 TEMP              0 ****  ****    0 ROOT
