@<TRIPOS>MOLECULE
3V0
   43    42     1     0     0
SMALL
bcc


@<TRIPOS>ATOM
      1 C1          0.7820   -0.7950   -0.8740 c3        1 3V0     -0.021000
      2 F1          2.3980    0.4160    7.0460 f         1 3V0     -0.130000
      3 I1          6.8200    3.8730    5.1730 i         1 3V0      0.202000
      4 N1          2.0090   -0.1190   -0.7090 n2        1 3V0     -0.372000
      5 O1         -0.9970   -0.9130    2.4260 os        1 3V0     -0.044000
      6 C2         -0.1260   -0.9680    0.2400 c1        1 3V0     -0.041000
      7 N2         -2.7800   -1.3170    4.5660 nt        1 3V0     -0.387000
      8 O2         -1.2500   -0.3820    5.9780 o         1 3V0     -0.487000
      9 C3          3.0350    0.4480   -0.5640 c1        1 3V0      0.112000
     10 O3         -0.6630   -1.2440    8.5970 oh        1 3V0     -0.385000
     11 C4          0.9770    0.2400    2.2760 c2        1 3V0     -0.118000
     12 O4          1.4740    0.4020    9.9620 oh        1 3V0     -0.339000
     13 C5          0.0500   -0.5220    1.5600 c2        1 3V0     -0.046000
     14 O5          0.3180   -1.1330   11.7000 oh        1 3V0     -0.085000
     15 C6         -0.6990   -0.4030    3.6760 c2        1 3V0     -0.127000
     16 C7          0.5000    0.3380    3.6390 c2        1 3V0      0.048000
     17 C8         -1.5920   -0.6970    4.8040 c2        1 3V0      0.409000
     18 C9          2.3680    1.3980    4.8100 c2        1 3V0      0.052000
     19 C10         3.1030    2.0110    3.8450 c2        1 3V0     -0.198000
     20 C11         4.5060    2.3080    4.1080 c2        1 3V0     -0.092000
     21 C12         4.9030    3.3570    4.8520 c2        1 3V0     -0.279000
     22 C13         4.2760    1.7130    6.3750 c1        1 3V0      0.196000
     23 C14         3.0490    1.1800    6.1190 c2        1 3V0     -0.228000
     24 C15        -0.5890    0.1680    8.5930 c3        1 3V0     -0.023000
     25 C16         0.0680    0.5380    9.9360 c3        1 3V0     -0.051000
     26 C17        -0.4600   -0.3730   11.0050 c2        1 3V0      0.298000
     27 H1          0.1740   -0.2690   -1.6850 h1        1 3V0      0.170000
     28 H2          0.9860   -1.8470   -1.2660 h1        1 3V0      0.170000
     29 HN2        -3.0480   -1.5630    3.6430 hn        1 3V0      0.249000
     30 H3          1.8980    0.6760    1.8880 ha        1 3V0      0.191000
     31 HN3         0.5660    0.8440    5.5750 hn        1 3V0      0.239000
     32 HO4         1.7890    0.1190    9.0860 ho        1 3V0      0.275000
     33 HO5         1.2800   -1.0650   11.4390 ho        1 3V0      0.330000
     34 H10         2.7110    2.2970    2.8580 ha        1 3V0      0.176000
     35 H11         5.2280    1.6200    3.6260 ha        1 3V0      0.171000
     36 H13         4.1810    4.0710    5.2790 h4        1 3V0      0.161000
     37 H15        -0.9000   -1.5310    7.6990 ho        1 3V0      0.278000
     38 H15A       -1.6160    0.6140    8.5200 h1        1 3V0      0.129500
     39 H16         0.0460    0.5430    7.7440 h1        1 3V0      0.129500
     40 H17        -0.1750    1.6110   10.2090 h1        1 3V0      0.191000
     41 H17A       -1.5430   -0.4520   11.2600 h4        1 3V0      0.240000
     42 N3          1.0060    1.0680    4.6990 nu        1 3V0     -0.215000
     43 H22        -3.3990   -1.5070    5.3160 hn        1 3V0      0.249000
@<TRIPOS>BOND
     1    1    4 1   
     2    1    6 1   
     3    1   27 1   
     4    1   28 1   
     5    2   23 1   
     6    3   21 1   
     7    4    9 1   
     8    5   13 1   
     9    5   15 1   
    10    6   13 1   
    11    7   17 1   
    12    7   29 1   
    13    7   43 1   
    14    8   17 1   
    15   10   24 1   
    16   10   37 1   
    17   11   13 1   
    18   11   16 1   
    19   11   30 1   
    20   12   25 1   
    21   12   32 1   
    22   14   26 1   
    23   14   33 1   
    24   15   16 1   
    25   15   17 1   
    26   16   42 1   
    27   18   19 1   
    28   18   23 1   
    29   18   42 1   
    30   19   20 1   
    31   19   34 1   
    32   20   21 1   
    33   20   35 1   
    34   21   36 1   
    35   22   23 1   
    36   24   25 1   
    37   24   38 1   
    38   24   39 1   
    39   25   26 1   
    40   25   40 1   
    41   26   41 1   
    42   31   42 1   
@<TRIPOS>SUBSTRUCTURE
     1 3V0         1 TEMP              0 ****  ****    0 ROOT
