@<TRIPOS>MOLECULE
3V1
   53    56     1     0     0
SMALL
bcc


@<TRIPOS>ATOM
      1 C1         -0.6780   -0.9750    0.4950 ca        1 3V1      0.135100
      2 C2          0.7150   -1.0550    0.4090 ca        1 3V1     -0.205000
      3 C3          1.4720   -0.6190    1.4940 ca        1 3V1     -0.077000
      4 C4          0.8640   -0.1150    2.6360 ca        1 3V1     -0.207000
      5 C5         -0.5500   -0.0330    2.7210 ca        1 3V1      0.092600
      6 C6         -1.3270   -0.4750    1.6330 ca        1 3V1     -0.170000
      7 N7         -1.1130    0.5120    3.8870 ns        1 3V1     -0.473100
      8 C8         -2.4450    0.4310    4.2880 c         1 3V1      0.721700
      9 O9         -3.3180   -0.1460    3.6150 o         1 3V1     -0.571100
     10 C10        -2.7630    1.0840    5.5690 cc        1 3V1     -0.303000
     11 S11        -1.8120    2.2260    6.3560 ss        1 3V1     -0.043300
     12 C12        -2.9650    2.3430    7.6190 cc        1 3V1      0.475400
     13 N13        -4.0440    1.5640    7.4750 nd        1 3V1     -0.628000
     14 C14        -3.9400    0.8380    6.2950 cd        1 3V1      0.447600
     15 C15        -5.0020   -0.1000    5.8640 c3        1 3V1     -0.140400
     16 Cl16       -2.7280    3.3760    8.9220 cl        1 3V1     -0.079000
     17 O17        -1.5290   -1.3010   -0.5570 os        1 3V1     -0.243200
     18 C18        -1.0740   -2.2660   -1.4530 ca        1 3V1      0.077100
     19 C19        -1.3470   -2.0280   -2.8070 ca        1 3V1     -0.127000
     20 C20        -1.0350   -3.0010   -3.7460 ca        1 3V1     -0.145000
     21 C21        -0.4320   -4.2230   -3.3520 ca        1 3V1      0.051600
     22 C22        -0.1580   -4.4350   -1.9850 ca        1 3V1     -0.145000
     23 C23        -0.4820   -3.4640   -1.0430 ca        1 3V1     -0.127000
     24 N24        -0.1150   -5.1550   -4.3580 ns        1 3V1     -0.450100
     25 C25         0.2170   -6.4860   -4.1840 c         1 3V1      0.711300
     26 O26         0.3050   -7.0020   -3.0430 o         1 3V1     -0.650100
     27 C27         0.4760   -7.3000   -5.3980 ce        1 3V1     -0.250900
     28 C28         0.4940   -6.6410   -6.6510 cg        1 3V1      0.210500
     29 N29         0.5090   -6.0850   -7.6750 n1        1 3V1     -0.381800
     30 C30         0.7060   -8.6560   -5.3410 c2        1 3V1      0.303900
     31 O31         0.7240   -9.4040   -4.2150 oh        1 3V1     -0.492100
     32 C32         0.9620   -9.4690   -6.5470 cx        1 3V1     -0.148500
     33 C33         1.9230  -10.6360   -6.4730 cx        1 3V1     -0.096400
     34 C34         0.4590  -10.8950   -6.6110 cx        1 3V1     -0.096400
     35 H1          1.1970   -1.4540   -0.4940 ha        1 3V1      0.151000
     36 H2          2.5710   -0.6730    1.4440 ha        1 3V1      0.136000
     37 H3          1.4940    0.2210    3.4730 ha        1 3V1      0.131000
     38 H4         -2.4280   -0.4380    1.6480 ha        1 3V1      0.188000
     39 H5         -0.4580    0.8840    4.5390 hn        1 3V1      0.315500
     40 H6         -5.7620   -0.2730    6.6630 hc        1 3V1      0.072367
     41 H7         -5.5100    0.3200    4.9560 hc        1 3V1      0.072367
     42 H8         -4.5400   -1.0760    5.5700 hc        1 3V1      0.072367
     43 H9         -1.8190   -1.0830   -3.1120 ha        1 3V1      0.152500
     44 H10        -1.2620   -2.8050   -4.8060 ha        1 3V1      0.156000
     45 H11         0.3080   -5.3740   -1.6410 ha        1 3V1      0.156000
     46 H12        -0.2710   -3.6360    0.0230 ha        1 3V1      0.152500
     47 H13        -0.2240   -4.8180   -5.2900 hn        1 3V1      0.328500
     48 H14         0.5570   -8.8690   -3.4140 ho        1 3V1      0.484000
     49 H15         0.9440   -8.8740   -7.4830 hc        1 3V1      0.111700
     50 H16         2.4140  -10.8510   -5.5060 hc        1 3V1      0.086200
     51 H17         2.5940  -10.8080   -7.3340 hc        1 3V1      0.086200
     52 H18        -0.0950  -11.2960   -5.7410 hc        1 3V1      0.086200
     53 H19         0.0540  -11.2580   -7.5720 hc        1 3V1      0.086200
@<TRIPOS>BOND
     1    1    2 ar  
     2    1    6 ar  
     3    1   17 1   
     4    2    3 ar  
     5    2   35 1   
     6    3    4 ar  
     7    3   36 1   
     8    4    5 ar  
     9    4   37 1   
    10    5    6 ar  
    11    5    7 1   
    12    6   38 1   
    13    7    8 1   
    14    7   39 1   
    15    8    9 2   
    16    8   10 1   
    17   10   11 1   
    18   10   14 2   
    19   11   12 1   
    20   12   13 2   
    21   12   16 1   
    22   13   14 1   
    23   14   15 1   
    24   15   40 1   
    25   15   41 1   
    26   15   42 1   
    27   17   18 1   
    28   18   19 ar  
    29   18   23 ar  
    30   19   20 ar  
    31   19   43 1   
    32   20   21 ar  
    33   20   44 1   
    34   21   22 ar  
    35   21   24 1   
    36   22   23 ar  
    37   22   45 1   
    38   23   46 1   
    39   24   25 1   
    40   24   47 1   
    41   25   26 2   
    42   25   27 1   
    43   27   28 1   
    44   27   30 2   
    45   28   29 3   
    46   30   31 1   
    47   30   32 1   
    48   31   48 1   
    49   32   33 1   
    50   32   34 1   
    51   32   49 1   
    52   33   34 1   
    53   33   50 1   
    54   33   51 1   
    55   34   52 1   
    56   34   53 1   
@<TRIPOS>SUBSTRUCTURE
     1 3V1         1 TEMP              0 ****  ****    0 ROOT
