@<TRIPOS>MOLECULE
3V1
   53    56     1     0     0
SMALL
bcc


@<TRIPOS>ATOM
      1 C1         -0.7060   -1.0450    0.5150 ca        1 3V1      0.135100
      2 C2          0.6860   -1.1290    0.4310 ca        1 3V1     -0.205000
      3 C3          1.4440   -0.7000    1.5180 ca        1 3V1     -0.078000
      4 C4          0.8360   -0.2000    2.6620 ca        1 3V1     -0.207000
      5 C5         -0.5780   -0.1140    2.7460 ca        1 3V1      0.092600
      6 C6         -1.3550   -0.5480    1.6560 ca        1 3V1     -0.170000
      7 N7         -1.1400    0.4270    3.9140 n         1 3V1     -0.473100
      8 C8         -2.4730    0.3490    4.3130 c         1 3V1      0.721700
      9 O9         -3.3470   -0.2230    3.6360 o         1 3V1     -0.571100
     10 C10        -2.7900    0.9970    5.5960 cc        1 3V1     -0.303000
     11 S11        -1.8370    2.1330    6.3890 ss        1 3V1     -0.043300
     12 C12        -2.9910    2.2480    7.6520 cc        1 3V1      0.475400
     13 N13        -4.0720    1.4720    7.5030 nd        1 3V1     -0.628000
     14 C14        -3.9690    0.7510    6.3200 cd        1 3V1      0.447600
     15 C15        -5.0330   -0.1820    5.8840 c3        1 3V1     -0.140400
     16 CL16       -2.7520    3.2740    8.9600 cl        1 3V1     -0.079000
     17 O17        -1.5570   -1.3630   -0.5390 os        1 3V1     -0.243200
     18 C18        -1.1040   -2.3260   -1.4380 ca        1 3V1      0.077100
     19 C19        -1.3760   -2.0820   -2.7920 ca        1 3V1     -0.127000
     20 C20        -1.0660   -3.0520   -3.7340 ca        1 3V1     -0.145000
     21 C21        -0.4680   -4.2770   -3.3450 ca        1 3V1      0.051600
     22 C22        -0.1950   -4.4960   -1.9790 ca        1 3V1     -0.145000
     23 C23        -0.5170   -3.5270   -1.0330 ca        1 3V1     -0.127000
     24 N24        -0.1530   -5.2060   -4.3550 n         1 3V1     -0.450100
     25 C25         0.1740   -6.5390   -4.1860 c         1 3V1      0.711300
     26 O26         0.2600   -7.0590   -3.0470 o         1 3V1     -0.650100
     27 C27         0.4310   -7.3490   -5.4030 ce        1 3V1     -0.250900
     28 C28         0.4520   -6.6850   -6.6530 cg        1 3V1      0.210500
     29 N29         0.4700   -6.1250   -7.6750 n1        1 3V1     -0.381800
     30 C30         0.6560   -8.7060   -5.3510 c2        1 3V1      0.303900
     31 O31         0.6710   -9.4580   -4.2280 oh        1 3V1     -0.492100
     32 C32         0.9100   -9.5150   -6.5610 cx        1 3V1     -0.148500
     33 C33         1.8670  -10.6860   -6.4910 cx        1 3V1     -0.096400
     34 C34         0.4010  -10.9390   -6.6300 cx        1 3V1     -0.096400
     35 H1          1.1680   -1.5240   -0.4740 ha        1 3V1      0.151000
     36 H2          2.5420   -0.7570    1.4700 ha        1 3V1      0.136000
     37 H3          1.4660    0.1310    3.5020 ha        1 3V1      0.131000
     38 H4         -2.4560   -0.5070    1.6690 ha        1 3V1      0.188000
     39 H5         -0.4850    0.7950    4.5690 hn        1 3V1      0.315500
     40 H6         -5.7940   -0.3570    6.6820 hc        1 3V1      0.072367
     41 H7         -5.5390    0.2440    4.9780 hc        1 3V1      0.072367
     42 H8         -4.5730   -1.1580    5.5860 hc        1 3V1      0.072367
     43 H9         -1.8440   -1.1330   -3.0930 ha        1 3V1      0.152500
     44 H10        -1.2910   -2.8500   -4.7930 ha        1 3V1      0.156000
     45 H11         0.2670   -5.4370   -1.6390 ha        1 3V1      0.156000
     46 H12        -0.3070   -3.7040    0.0330 ha        1 3V1      0.152500
     47 H13        -0.2600   -4.8650   -5.2860 hn        1 3V1      0.328500
     48 H14         0.5060   -8.9260   -3.4250 ho        1 3V1      0.484000
     49 H15         0.8960   -8.9160   -7.4940 hc        1 3V1      0.111700
     50 H16         2.3550  -10.9080   -5.5240 hc        1 3V1      0.086200
     51 H17         2.5370  -10.8580   -7.3510 hc        1 3V1      0.086200
     52 H18        -0.0040  -11.2960   -7.5940 hc        1 3V1      0.086200
     53 H19        -0.1550  -11.3410   -5.7630 hc        1 3V1      0.086200
@<TRIPOS>BOND
     1    1    2 ar  
     2    1    6 ar  
     3    1   17 1   
     4    2    3 ar  
     5    2   35 1   
     6    3    4 ar  
     7    3   36 1   
     8    4    5 ar  
     9    4   37 1   
    10    5    6 ar  
    11    5    7 1   
    12    6   38 1   
    13    7    8 1   
    14    7   39 1   
    15    8    9 2   
    16    8   10 1   
    17   10   11 1   
    18   10   14 2   
    19   11   12 1   
    20   12   13 2   
    21   12   16 1   
    22   13   14 1   
    23   14   15 1   
    24   15   40 1   
    25   15   41 1   
    26   15   42 1   
    27   17   18 1   
    28   18   19 ar  
    29   18   23 ar  
    30   19   20 ar  
    31   19   43 1   
    32   20   21 ar  
    33   20   44 1   
    34   21   22 ar  
    35   21   24 1   
    36   22   23 ar  
    37   22   45 1   
    38   23   46 1   
    39   24   25 1   
    40   24   47 1   
    41   25   26 2   
    42   25   27 1   
    43   27   28 1   
    44   27   30 2   
    45   28   29 3   
    46   30   31 1   
    47   30   32 1   
    48   31   48 1   
    49   32   33 1   
    50   32   34 1   
    51   32   49 1   
    52   33   34 1   
    53   33   50 1   
    54   33   51 1   
    55   34   52 1   
    56   34   53 1   
@<TRIPOS>SUBSTRUCTURE
     1 3V1         1 TEMP              0 ****  ****    0 ROOT
