@<TRIPOS>MOLECULE
3V3
   41    40     1     0     0
SMALL
bcc


@<TRIPOS>ATOM
      1 C1          3.2920   -2.2110    0.6680 c3        1 3V3      0.096800
      2 C2          4.5570   -1.3760    0.4240 c3        1 3V3      0.099400
      3 C4          5.1760   -0.1090    2.3700 c3        1 3V3      0.077400
      4 O3          4.4900   -0.1430    1.1200 os        1 3V3     -0.430600
      5 C5          4.2270    0.4730    3.4130 c3        1 3V3      0.112400
      6 C7          3.2330   -1.1020    4.9330 c3        1 3V3      0.082400
      7 C8          1.8450   -1.6960    5.1740 c3        1 3V3      0.116400
      8 C10         2.1130   -4.0510    5.4270 c3        1 3V3      0.119400
      9 O6          3.1500   -0.4210    3.6830 os        1 3V3     -0.454600
     10 C11         2.4520   -5.2480    4.5440 c3        1 3V3      0.119400
     11 C13         4.4030   -6.1150    3.4760 c3        1 3V3      0.144400
     12 C14         5.7510   -5.6360    2.9670 c3        1 3V3     -0.183400
     13 C15         5.5440   -4.4540    2.0340 c         1 3V3      0.910600
     14 N1          3.2020   -2.7270    2.0560 n4        1 3V3     -0.834600
     15 O9          1.7260   -2.9780    4.5670 os        1 3V3     -0.450600
     16 O12         3.6950   -4.9510    3.9260 os        1 3V3     -0.450600
     17 O16         5.9450   -3.2980    2.3880 o         1 3V3     -0.873300
     18 H1          3.3450   -3.1010   -0.0270 hx        1 3V3      0.095700
     19 H2          2.3750   -1.5970    0.4580 hx        1 3V3      0.095700
     20 H3          4.5780   -1.0910   -0.6620 h1        1 3V3      0.103200
     21 H4          5.4730   -1.9800    0.6900 h1        1 3V3      0.103200
     22 H5          5.5720   -1.1140    2.6760 h1        1 3V3      0.077200
     23 H6          6.0390    0.5990    2.2350 h1        1 3V3      0.077200
     24 H7          3.7270    1.3940    3.0040 h1        1 3V3      0.058700
     25 H8          4.7980    0.7280    4.3420 h1        1 3V3      0.058700
     26 H9          3.4910   -0.3810    5.7520 h1        1 3V3      0.052200
     27 H10         4.0170   -1.9030    4.8700 h1        1 3V3      0.052200
     28 H11         1.0610   -1.0730    4.6620 h1        1 3V3      0.066200
     29 H12         1.6370   -1.7470    6.2730 h1        1 3V3      0.066200
     30 H13         1.2450   -4.2970    6.0940 h1        1 3V3      0.047700
     31 H14         3.0040   -3.7610    6.0420 h1        1 3V3      0.047700
     32 H15         2.5230   -6.1680    5.1810 h1        1 3V3      0.042700
     33 H16         1.6740   -5.3980    3.7490 h1        1 3V3      0.042700
     34 H17         3.8120   -6.5950    2.6510 h1        1 3V3      0.029700
     35 H18         4.5200   -6.8340    4.3280 h1        1 3V3      0.029700
     36 H19         6.2420   -6.4740    2.4130 hc        1 3V3      0.061200
     37 H20         6.4020   -5.3280    3.8220 hc        1 3V3      0.061200
     38 O1          4.8780   -4.6100    0.9640 o         1 3V3     -0.873300
     39 H22         3.1200   -3.7550    2.0510 hn        1 3V3      0.467467
     40 H23         4.0890   -2.5250    2.5610 hn        1 3V3      0.467467
     41 H131        2.4310   -2.3040    2.5750 hn        1 3V3      0.467467
@<TRIPOS>BOND
     1    1    2 1   
     2    1   14 1   
     3    1   18 1   
     4    1   19 1   
     5    2    4 1   
     6    2   20 1   
     7    2   21 1   
     8    3    4 1   
     9    3    5 1   
    10    3   22 1   
    11    3   23 1   
    12    5    9 1   
    13    5   24 1   
    14    5   25 1   
    15    6    7 1   
    16    6    9 1   
    17    6   26 1   
    18    6   27 1   
    19    7   15 1   
    20    7   28 1   
    21    7   29 1   
    22    8   10 1   
    23    8   15 1   
    24    8   30 1   
    25    8   31 1   
    26   10   16 1   
    27   10   32 1   
    28   10   33 1   
    29   11   12 1   
    30   11   16 1   
    31   11   34 1   
    32   11   35 1   
    33   12   13 1   
    34   12   36 1   
    35   12   37 1   
    36   13   17 1   
    37   13   38 1   
    38   14   39 1   
    39   14   40 1   
    40   14   41 1   
@<TRIPOS>SUBSTRUCTURE
     1 3V3         1 TEMP              0 ****  ****    0 ROOT
