@<TRIPOS>MOLECULE
3V4
   26    27     1     0     0
SMALL
bcc


@<TRIPOS>ATOM
      1 C10         0.0140    0.0660    0.3000 c3        1 3V4     -0.063600
      2 C7          1.4900    0.0400    0.0740 cx        1 3V4     -0.107000
      3 C9          1.8790   -0.7720   -1.1220 c3        1 3V4     -0.063600
      4 C6          2.4420    0.0390    1.2540 cx        1 3V4     -0.106700
      5 C1          1.9350    0.0530    2.6620 c3        1 3V4     -0.012200
      6 C5          2.3300    1.2630    0.3860 cx        1 3V4     -0.106700
      7 C4          1.7120    2.5150    0.9220 c3        1 3V4     -0.015200
      8 C3          1.4060    2.4760    2.3720 c2        1 3V4     -0.170200
      9 C2          1.5040    1.3920    3.1540 c2        1 3V4     -0.118400
     10 C8          1.1820    1.4400    4.6010 c3        1 3V4     -0.057900
     11 H1         -0.2440    0.6830    1.1960 hc        1 3V4      0.038033
     12 H2         -0.3670   -0.9720    0.4610 hc        1 3V4      0.038033
     13 H3         -0.5030    0.5000   -0.5910 hc        1 3V4      0.038033
     14 H4          2.9860   -0.7750   -1.2660 hc        1 3V4      0.038033
     15 H5          1.4030   -0.3530   -2.0420 hc        1 3V4      0.038033
     16 H6          1.5360   -1.8290   -0.9960 hc        1 3V4      0.038033
     17 H7          3.3590   -0.5780    1.1460 hc        1 3V4      0.075700
     18 H8          1.0650   -0.6570    2.7480 hc        1 3V4      0.051700
     19 H9          2.7420   -0.3320    3.3450 hc        1 3V4      0.051700
     20 H10         3.1710    1.4730   -0.3080 hc        1 3V4      0.075700
     21 H11         2.4070    3.3790    0.7310 hc        1 3V4      0.051700
     22 H12         0.7600    2.7290    0.3580 hc        1 3V4      0.051700
     23 H13         1.0750    3.4400    2.7930 ha        1 3V4      0.119000
     24 H16         0.7870    2.4410    4.9020 hc        1 3V4      0.039700
     25 H17         2.0990    1.2270    5.2060 hc        1 3V4      0.039700
     26 H18         0.4130    0.6670    4.8510 hc        1 3V4      0.039700
@<TRIPOS>BOND
     1    1    2 1   
     2    1   11 1   
     3    1   12 1   
     4    1   13 1   
     5    2    3 1   
     6    2    4 1   
     7    2    6 1   
     8    3   14 1   
     9    3   15 1   
    10    3   16 1   
    11    4    5 1   
    12    4    6 1   
    13    4   17 1   
    14    5    9 1   
    15    5   18 1   
    16    5   19 1   
    17    6    7 1   
    18    6   20 1   
    19    7    8 1   
    20    7   21 1   
    21    7   22 1   
    22    8    9 2   
    23    8   23 1   
    24    9   10 1   
    25   10   24 1   
    26   10   25 1   
    27   10   26 1   
@<TRIPOS>SUBSTRUCTURE
     1 3V4         1 TEMP              0 ****  ****    0 ROOT
