@<TRIPOS>MOLECULE
3V5
   39    39     1     0     0
SMALL
bcc


@<TRIPOS>ATOM
      1 OAF         2.0200    2.4790    0.2610 o         1 3V5     -0.576000
      2 CAS         1.9150    1.3650   -0.2710 c         1 3V5      0.642100
      3 OAH         1.6460    0.3740    0.6130 oh        1 3V5     -0.555100
      4 CAX         2.1370    1.0600   -1.7400 c3        1 3V5      0.080500
      5 CAW         2.1540    2.3510   -2.5970 c3        1 3V5     -0.009600
      6 SAQ         3.7990    2.9820   -2.7760 ss        1 3V5     -0.290200
      7 CAK         3.7070    4.6350   -2.0970 c3        1 3V5      0.244900
      8 NAN         3.4440    4.7720   -0.6970 n3        1 3V5     -0.869200
      9 CAJ         4.3810    4.2400    0.2290 c3        1 3V5      0.390000
     10 NAB         5.1030    5.3610    1.0020 n4        1 3V5     -0.878600
     11 CAM         1.5770    1.9150   -3.9400 c3        1 3V5     -0.091400
     12 NAO         1.2000    0.1110   -2.3390 n3        1 3V5     -0.806200
     13 CAV         0.7370    0.6590   -3.6240 c3        1 3V5      0.186500
     14 CAY         0.8080   -0.3870   -4.7490 c3        1 3V5     -0.287700
     15 CAR        -0.2890   -1.4190   -4.5860 c         1 3V5      0.575100
     16 CAA        -0.4430   -2.3740   -5.7210 c3        1 3V5     -0.205100
     17 OAE        -1.0120   -1.4400   -3.5860 o         1 3V5     -0.524100
     18 CAT         2.1640   -1.0510   -4.7950 c         1 3V5      0.592900
     19 OAG         3.1450   -0.4930   -5.2840 o         1 3V5     -0.516100
     20 H2          3.1630    0.5740   -1.7990 h1        1 3V5      0.112700
     21 H3          1.5020    3.1270   -2.1230 h1        1 3V5      0.083700
     22 H4          2.9170    5.2240   -2.6400 h2        1 3V5      0.101700
     23 H5          4.7130    5.0700   -2.3510 h2        1 3V5      0.101700
     24 H6          1.6150   -0.4920    0.1750 ho        1 3V5      0.457000
     25 H8          5.2060    3.6490   -0.2760 hx        1 3V5      0.122700
     26 H9          3.8700    3.6140    1.0280 hx        1 3V5      0.122700
     27 H10         5.6170    5.9730    0.3650 hn        1 3V5      0.451800
     28 H11         5.7560    4.9320    1.6600 hn        1 3V5      0.451800
     29 H13         2.4000    1.6680   -4.6630 hc        1 3V5      0.090200
     30 H14         0.9390    2.7120   -4.3900 hc        1 3V5      0.090200
     31 H15         0.4170   -0.0950   -1.7460 hn        1 3V5      0.387800
     32 H17        -0.3510    0.9630   -3.5440 h1        1 3V5      0.067700
     33 H18         0.6340    0.1560   -5.7230 hc        1 3V5      0.105700
     34 H19        -0.8530   -1.8330   -6.6100 hc        1 3V5      0.075700
     35 H20        -1.1460   -3.2000   -5.4490 hc        1 3V5      0.075700
     36 H21         0.5470   -2.8140   -5.9960 hc        1 3V5      0.075700
     37 H22         2.2190   -2.0690   -4.3520 h4        1 3V5      0.020200
     38 HAN2        2.4900    4.5950   -0.4360 hn        1 3V5      0.452800
     39 HAB3        4.4290    5.9310    1.5190 hn        1 3V5      0.451800
@<TRIPOS>BOND
     1    1    2 2   
     2    2    3 1   
     3    2    4 1   
     4    3   24 1   
     5    4    5 1   
     6    4   12 1   
     7    4   20 1   
     8    5    6 1   
     9    5   11 1   
    10    5   21 1   
    11    6    7 1   
    12    7    8 1   
    13    7   22 1   
    14    7   23 1   
    15    8    9 1   
    16    8   38 1   
    17    9   10 1   
    18    9   25 1   
    19    9   26 1   
    20   10   27 1   
    21   10   28 1   
    22   10   39 1   
    23   11   13 1   
    24   11   29 1   
    25   11   30 1   
    26   12   13 1   
    27   12   31 1   
    28   13   14 1   
    29   13   32 1   
    30   14   15 1   
    31   14   18 1   
    32   14   33 1   
    33   15   16 1   
    34   15   17 2   
    35   16   34 1   
    36   16   35 1   
    37   16   36 1   
    38   18   19 2   
    39   18   37 1   
@<TRIPOS>SUBSTRUCTURE
     1 3V5         1 TEMP              0 ****  ****    0 ROOT
