@<TRIPOS>MOLECULE
3V5
   39    39     1     0     0
SMALL
bcc


@<TRIPOS>ATOM
      1 OAF         1.9830    2.5340    0.2390 o         1 3V5     -0.576000
      2 CAS         1.8660    1.4130   -0.2730 c         1 3V5      0.642100
      3 OAH         1.5600    0.4440    0.6240 oh        1 3V5     -0.555100
      4 CAX         2.1130    1.0740   -1.7300 c3        1 3V5      0.080500
      5 CAW         2.1740    2.3470   -2.6120 c3        1 3V5     -0.009600
      6 SAQ         3.8340    2.9420   -2.7680 ss        1 3V5     -0.290200
      7 CAK         3.7610    4.6100   -2.1240 c3        1 3V5      0.244900
      8 NAN         3.4730    4.7800   -0.7330 n7        1 3V5     -0.869200
      9 CAJ         4.3790    4.2480    0.2240 c3        1 3V5      0.390000
     10 NAB         5.1070    5.3700    0.9900 nz        1 3V5     -0.878600
     11 CAM         1.6160    1.8960   -3.9580 c3        1 3V5     -0.091400
     12 NAO         1.1700    0.1320   -2.3310 n7        1 3V5     -0.806200
     13 CAV         0.7440    0.6640   -3.6350 c3        1 3V5      0.186500
     14 CAY         0.8170   -0.4050   -4.7380 c3        1 3V5     -0.287700
     15 CAR        -0.3040   -1.4120   -4.5780 c         1 3V5      0.575100
     16 CAA        -0.4540   -2.3860   -5.6970 c3        1 3V5     -0.205100
     17 OAE        -1.0480   -1.3980   -3.5930 o         1 3V5     -0.524100
     18 CAT         2.1600   -1.0970   -4.7430 c         1 3V5      0.592900
     19 OAG         3.1620   -0.5690   -5.2220 o         1 3V5     -0.516100
     20 H2          3.1300    0.5670   -1.7590 h1        1 3V5      0.112700
     21 H3          1.5270    3.1450   -2.1670 h1        1 3V5      0.083700
     22 H4          2.9950    5.2040   -2.6950 h2        1 3V5      0.101700
     23 H5          4.7810    5.0190   -2.3650 h2        1 3V5      0.101700
     24 H6          1.5210   -0.4290    0.2030 ho        1 3V5      0.457000
     25 H8          3.8390    3.6480    1.0240 hx        1 3V5      0.122700
     26 H9          5.2020    3.6310   -0.2520 hx        1 3V5      0.122700
     27 H10         5.7370    4.9420    1.6700 hn        1 3V5      0.451800
     28 H11         4.4340    5.9630    1.4810 hn        1 3V5      0.451800
     29 H13         2.4480    1.6180   -4.6580 hc        1 3V5      0.090200
     30 H14         1.0040    2.6970   -4.4370 hc        1 3V5      0.090200
     31 H15         0.3710   -0.0460   -1.7500 hn        1 3V5      0.387800
     32 H17        -0.3390    0.9910   -3.5840 h1        1 3V5      0.067700
     33 H18         0.6740    0.1220   -5.7260 hc        1 3V5      0.105700
     34 H19        -1.1800   -3.1920   -5.4250 hc        1 3V5      0.075700
     35 H20        -0.8340   -1.8550   -6.6050 hc        1 3V5      0.075700
     36 H21         0.5320   -2.8510   -5.9430 hc        1 3V5      0.075700
     37 H22         2.1850   -2.1070   -4.2790 h4        1 3V5      0.020200
     38 HAN2        2.5100    4.6260   -0.4890 hn        1 3V5      0.452800
     39 HAB3        5.6460    5.9590    0.3520 hn        1 3V5      0.451800
@<TRIPOS>BOND
     1    1    2 2   
     2    2    3 1   
     3    2    4 1   
     4    3   24 1   
     5    4    5 1   
     6    4   12 1   
     7    4   20 1   
     8    5    6 1   
     9    5   11 1   
    10    5   21 1   
    11    6    7 1   
    12    7    8 1   
    13    7   22 1   
    14    7   23 1   
    15    8    9 1   
    16    8   38 1   
    17    9   10 1   
    18    9   25 1   
    19    9   26 1   
    20   10   27 1   
    21   10   28 1   
    22   10   39 1   
    23   11   13 1   
    24   11   29 1   
    25   11   30 1   
    26   12   13 1   
    27   12   31 1   
    28   13   14 1   
    29   13   32 1   
    30   14   15 1   
    31   14   18 1   
    32   14   33 1   
    33   15   16 1   
    34   15   17 2   
    35   16   34 1   
    36   16   35 1   
    37   16   36 1   
    38   18   19 2   
    39   18   37 1   
@<TRIPOS>SUBSTRUCTURE
     1 3V5         1 TEMP              0 ****  ****    0 ROOT
