@<TRIPOS>MOLECULE
3V6
   48    49     1     0     0
SMALL
bcc


@<TRIPOS>ATOM
      1 ClI         0.2420   -2.0260   -0.0690 cl        1 3V6     -0.100900
      2 CAT         1.9110   -1.6640    0.1910 c3        1 3V6      0.102100
      3 ClJ         2.7360   -1.4530   -1.3850 cl        1 3V6     -0.100900
      4 CAX         2.1100   -0.4400    1.1110 c3        1 3V6      0.160800
      5 CAC         1.2810    0.7570    0.6480 c3        1 3V6     -0.142100
      6 OAM         1.6180   -0.7430    2.4100 os        1 3V6     -0.386900
      7 CAO         2.3570   -1.6530    3.1760 c         1 3V6      0.727800
      8 OAE         1.8280   -1.8740    4.2520 o         1 3V6     -0.451500
      9 CAQ         3.5980   -2.1580    2.5850 ce        1 3V6     -0.358400
     10 CAN         3.9420   -3.4740    2.7010 c2        1 3V6      0.229900
     11 OAG         3.0680   -4.3000    3.3290 oh        1 3V6     -0.437100
     12 CAK         5.1770   -4.0550    2.1080 c3        1 3V6     -0.103200
     13 CAS         6.1970   -2.9960    1.7330 c3        1 3V6     -0.080700
     14 CAB         7.2720   -3.6010    0.8560 c3        1 3V6     -0.103100
     15 CAU         5.5260   -1.8080    1.0280 c3        1 3V6      0.136100
     16 OAH         6.5170   -0.8320    0.6760 oh        1 3V6     -0.698800
     17 CAW         4.4840   -1.1470    1.9450 c3        1 3V6     -0.022500
     18 CAV         3.6120   -0.0250    1.3210 c3        1 3V6      0.087500
     19 NAL         4.1540    0.5960    0.0610 ny        1 3V6     -0.665800
     20 C           5.4750    1.2470    0.1930 c         1 3V6      0.543100
     21 O           5.8760    1.6160    1.2910 o         1 3V6     -0.411100
     22 CA          6.2770    1.5050   -1.1000 c3        1 3V6      0.074500
     23 CB          5.9330    0.5640   -2.2440 c3        1 3V6     -0.164100
     24 N           7.7450    1.4400   -0.7770 nz        1 3V6     -0.840600
     25 H1          2.3840   -2.5790    0.6320 h2        1 3V6      0.128700
     26 H2          1.3070    0.8590   -0.4630 hc        1 3V6      0.086033
     27 H3          1.6230    1.6970    1.1430 hc        1 3V6      0.086033
     28 H4          0.2110    0.5990    0.9570 hc        1 3V6      0.086033
     29 H5          3.4490   -5.1940    3.4020 ho        1 3V6      0.463000
     30 H6          5.6520   -4.7710    2.8380 hc        1 3V6      0.105700
     31 H7          4.8860   -4.6570    1.2010 hc        1 3V6      0.105700
     32 H8          6.6730   -2.6100    2.6810 hc        1 3V6      0.079700
     33 H9          6.8370   -4.0070   -0.0900 hc        1 3V6      0.058700
     34 H10         8.0390   -2.8330    0.5950 hc        1 3V6      0.058700
     35 H11         7.7800   -4.4380    1.3970 hc        1 3V6      0.058700
     36 H12         5.0840   -2.1360    0.0470 h1        1 3V6      0.085700
     37 H13         7.1160   -0.7470    1.4320 ho        1 3V6      0.442000
     38 H14         5.0720   -0.6370    2.7720 hc        1 3V6      0.096700
     39 H15         3.5790    0.8100    2.0970 hx        1 3V6      0.142700
     40 H16         3.4710    1.3140   -0.2410 hn        1 3V6      0.487300
     41 H17         6.0500    2.5790   -1.4080 hx        1 3V6      0.160700
     42 H18         4.8960    0.7740   -2.6110 hc        1 3V6      0.107367
     43 H19         6.6140    0.7300   -3.1220 hc        1 3V6      0.107367
     44 H20         6.0180   -0.5090   -1.9340 hc        1 3V6      0.107367
     45 H21         8.0060    0.4680   -0.5530 hn        1 3V6      0.487800
     46 H22         8.2880    1.7560   -1.5930 hn        1 3V6      0.487800
     47 HAL2        4.1650   -0.1650   -0.6710 hn        1 3V6      0.487300
     48 HN3         7.9600    2.0400    0.0330 hn        1 3V6      0.487800
@<TRIPOS>BOND
     1    1    2 1   
     2    2    3 1   
     3    2    4 1   
     4    2   25 1   
     5    4    5 1   
     6    4    6 1   
     7    4   18 1   
     8    5   26 1   
     9    5   27 1   
    10    5   28 1   
    11    6    7 1   
    12    7    8 2   
    13    7    9 1   
    14    9   10 2   
    15    9   17 1   
    16   10   11 1   
    17   10   12 1   
    18   11   29 1   
    19   12   13 1   
    20   12   30 1   
    21   12   31 1   
    22   13   14 1   
    23   13   15 1   
    24   13   32 1   
    25   14   33 1   
    26   14   34 1   
    27   14   35 1   
    28   15   16 1   
    29   15   17 1   
    30   15   36 1   
    31   16   37 1   
    32   17   18 1   
    33   17   38 1   
    34   18   19 1   
    35   18   39 1   
    36   19   20 1   
    37   19   40 1   
    38   19   47 1   
    39   20   21 2   
    40   20   22 1   
    41   22   23 1   
    42   22   24 1   
    43   22   41 1   
    44   23   42 1   
    45   23   43 1   
    46   23   44 1   
    47   24   45 1   
    48   24   46 1   
    49   24   48 1   
@<TRIPOS>SUBSTRUCTURE
     1 3V6         1 TEMP              0 ****  ****    0 ROOT
