@<TRIPOS>MOLECULE
3V6
   48    49     1     0     0
SMALL
bcc


@<TRIPOS>ATOM
      1 CLI         0.2450   -1.9670   -0.1370 cl        1 3V6     -0.100900
      2 CAT         1.9150   -1.6290    0.1480 c3        1 3V6      0.102100
      3 CLJ         2.7670   -1.4290   -1.4150 cl        1 3V6     -0.100900
      4 CAX         2.1170   -0.4080    1.0710 c3        1 3V6      0.160800
      5 CAC         1.3120    0.8000    0.5960 c3        1 3V6     -0.142100
      6 OAM         1.6020   -0.7040    2.3630 os        1 3V6     -0.386900
      7 CAO         2.3160   -1.6250    3.1390 c         1 3V6      0.727800
      8 OAE         1.7680   -1.8390    4.2070 o         1 3V6     -0.451500
      9 CAQ         3.5590   -2.1460    2.5670 ce        1 3V6     -0.358400
     10 CAN         3.8840   -3.4670    2.6870 c2        1 3V6      0.229900
     11 OAG         2.9880   -4.2810    3.3010 oh        1 3V6     -0.437100
     12 CAK         5.1190   -4.0650    2.1130 c3        1 3V6     -0.103200
     13 CAS         6.1590   -3.0200    1.7540 c3        1 3V6     -0.080700
     14 CAB         7.2390   -3.6400    0.8930 c3        1 3V6     -0.103100
     15 CAU         5.5150   -1.8220    1.0400 c3        1 3V6      0.136100
     16 OAH         6.5240   -0.8600    0.7020 oh        1 3V6     -0.698800
     17 CAW         4.4680   -1.1480    1.9400 c3        1 3V6     -0.022500
     18 CAV         3.6220   -0.0140    1.3040 c3        1 3V6      0.087500
     19 NAL         4.1900    0.6000    0.0530 n4        1 3V6     -0.665800
     20 C           5.5190    1.2320    0.2050 c         1 3V6      0.543100
     21 O           5.9080    1.5970    1.3080 o         1 3V6     -0.411100
     22 CA          6.3440    1.4790   -1.0770 c3        1 3V6      0.074500
     23 CB          6.0040    0.5420   -2.2260 c3        1 3V6     -0.164100
     24 N           7.8060    1.3940   -0.7310 n4        1 3V6     -0.840600
     25 H1          2.3690   -2.5510    0.5950 h2        1 3V6      0.128700
     26 H2          0.2350    0.6570    0.8890 hc        1 3V6      0.086033
     27 H3          1.6590    1.7350    1.0970 hc        1 3V6      0.086033
     28 H4          1.3560    0.9030   -0.5140 hc        1 3V6      0.086033
     29 H5          3.3550   -5.1810    3.3790 ho        1 3V6      0.463000
     30 H6          4.8330   -4.6630    1.2010 hc        1 3V6      0.105700
     31 H7          5.5720   -4.7880    2.8490 hc        1 3V6      0.105700
     32 H8          6.6260   -2.6400    2.7090 hc        1 3V6      0.079700
     33 H9          7.7270   -4.4840    1.4420 hc        1 3V6      0.058700
     34 H10         6.8130   -4.0390   -0.0590 hc        1 3V6      0.058700
     35 H11         8.0200   -2.8820    0.6440 hc        1 3V6      0.058700
     36 H12         5.0830   -2.1450    0.0510 h1        1 3V6      0.085700
     37 H13         7.1130   -0.7830    1.4680 ho        1 3V6      0.442000
     38 H14         5.0510   -0.6460    2.7770 hc        1 3V6      0.096700
     39 H15         3.5890    0.8220    2.0790 hx        1 3V6      0.142700
     40 H16         4.2020   -0.1610   -0.6800 hn        1 3V6      0.487300
     41 H17         6.1360    2.5560   -1.3880 hx        1 3V6      0.160700
     42 H18         6.7000    0.6990   -3.0930 hc        1 3V6      0.107367
     43 H19         4.9760    0.7670   -2.6090 hc        1 3V6      0.107367
     44 H20         6.0690   -0.5310   -1.9140 hc        1 3V6      0.107367
     45 H21         8.0170    1.9920    0.0820 hn        1 3V6      0.487800
     46 H22         8.3650    1.7020   -1.5390 hn        1 3V6      0.487800
     47 HAL2        3.5230    1.3270   -0.2600 hn        1 3V6      0.487300
     48 HN3         8.0500    0.4190   -0.5030 hn        1 3V6      0.487800
@<TRIPOS>BOND
     1    1    2 1   
     2    2    3 1   
     3    2    4 1   
     4    2   25 1   
     5    4    5 1   
     6    4    6 1   
     7    4   18 1   
     8    5   26 1   
     9    5   27 1   
    10    5   28 1   
    11    6    7 1   
    12    7    8 2   
    13    7    9 1   
    14    9   10 2   
    15    9   17 1   
    16   10   11 1   
    17   10   12 1   
    18   11   29 1   
    19   12   13 1   
    20   12   30 1   
    21   12   31 1   
    22   13   14 1   
    23   13   15 1   
    24   13   32 1   
    25   14   33 1   
    26   14   34 1   
    27   14   35 1   
    28   15   16 1   
    29   15   17 1   
    30   15   36 1   
    31   16   37 1   
    32   17   18 1   
    33   17   38 1   
    34   18   19 1   
    35   18   39 1   
    36   19   20 1   
    37   19   40 1   
    38   19   47 1   
    39   20   21 2   
    40   20   22 1   
    41   22   23 1   
    42   22   24 1   
    43   22   41 1   
    44   23   42 1   
    45   23   43 1   
    46   23   44 1   
    47   24   45 1   
    48   24   46 1   
    49   24   48 1   
@<TRIPOS>SUBSTRUCTURE
     1 3V6         1 TEMP              0 ****  ****    0 ROOT
