@<TRIPOS>MOLECULE
3V7
   22    22     1     0     0
SMALL
bcc


@<TRIPOS>ATOM
      1 C11         0.0170   -0.0790   -0.0460 cc        1 3V7      0.241600
      2 C12         1.4160    0.0460    0.0060 cd        1 3V7     -0.189600
      3 O1          4.9910    2.4650    3.7930 oh        1 3V7     -0.595800
      4 C7          4.7380    1.1840    3.2410 c3        1 3V7      0.133400
      5 C8          3.3370    1.2320    2.6530 c3        1 3V7     -0.108400
      6 C9          3.0520   -0.0840    1.9330 c3        1 3V7      0.056300
      7 N1          1.7260   -0.1680    1.3570 na        1 3V7      0.041400
      8 N2          0.5830   -0.3840    2.0560 nd        1 3V7     -0.165800
      9 N3         -0.4180   -0.3480    1.2780 nc        1 3V7     -0.352000
     10 O8         -0.0940    0.2770   -2.3600 oh        1 3V7     -0.606800
     11 C36        -0.8920    0.0290   -1.2080 c3        1 3V7      0.120100
     12 H13         2.1520    0.2460   -0.7700 h4        1 3V7      0.201000
     13 H6          4.8050    0.3970    4.0400 h1        1 3V7      0.022200
     14 H5          5.4970    0.9580    2.4440 h1        1 3V7      0.022200
     15 H7          2.5940    1.4040    3.4740 hc        1 3V7      0.074700
     16 H8          3.2600    2.0980    1.9460 hc        1 3V7      0.074700
     17 H10         3.7900   -0.2210    1.0920 h1        1 3V7      0.065700
     18 H9          3.1790   -0.9370    2.6610 h1        1 3V7      0.065700
     19 H44        -1.6170    0.8770   -1.0560 h1        1 3V7      0.043700
     20 H45        -1.4690   -0.9270   -1.3430 h1        1 3V7      0.043700
     21 H2         -0.7100    0.3550   -3.0980 ho        1 3V7      0.407000
     22 H1          5.8540    2.4160    4.2200 ho        1 3V7      0.404000
@<TRIPOS>BOND
     1    1    2 2   
     2    1    9 1   
     3    1   11 1   
     4    2    7 1   
     5    2   12 1   
     6    3    4 1   
     7    3   22 1   
     8    4    5 1   
     9    4   13 1   
    10    4   14 1   
    11    5    6 1   
    12    5   15 1   
    13    5   16 1   
    14    6    7 1   
    15    6   17 1   
    16    6   18 1   
    17    7    8 1   
    18    8    9 2   
    19   10   11 1   
    20   10   21 1   
    21   11   19 1   
    22   11   20 1   
@<TRIPOS>SUBSTRUCTURE
     1 3V7         1 TEMP              0 ****  ****    0 ROOT
