@<TRIPOS>MOLECULE
3V8
   30    29     1     0     0
SMALL
bcc


@<TRIPOS>ATOM
      1 C18        -0.7520    0.7320   -0.4200 c3        1 3V8     -0.231000
      2 C17         3.8650   -1.4460   -0.1450 c2        1 3V8     -0.092000
      3 C16         2.7110   -0.4450   -0.1840 c2        1 3V8      0.369000
      4 C19        -0.7030    0.7880    1.1090 c3        1 3V8     -0.039000
      5 C20         0.1790    1.8550    1.5890 c1        1 3V8     -0.076000
      6 C11        -5.8860    2.8960    2.9160 c3        1 3V8     -0.212000
      7 C12        -4.8240    2.1690    3.7100 c3        1 3V8     -0.068000
      8 C10        -6.7950    3.7460    3.8180 c2        1 3V8      0.324000
      9 O3         -6.3300    4.2270    4.8930 o         1 3V8     -0.598500
     10 O5          2.0710   -0.2570    0.8890 o         1 3V8     -0.569500
     11 N4          5.0960   -1.1390    0.0010 n2        1 3V8     -0.261000
     12 N5         -2.0330    0.8330    1.7280 na        1 3V8     -0.150000
     13 C30        -2.5250    1.8720    2.5280 c2        1 3V8     -0.134000
     14 C31        -3.8370    1.4680    2.8630 c2        1 3V8     -0.161000
     15 N8         -4.0320    0.2160    2.2320 n2        1 3V8     -0.128000
     16 N9         -2.9830   -0.1170    1.5880 n2        1 3V8     -0.049000
     17 H21         3.4930   -2.4910   -0.2560 h4        1 3V8      0.054000
     18 H20        -1.1500    1.6850   -0.8410 hc        1 3V8      0.101000
     19 H19         0.2980    0.5610   -0.7870 hc        1 3V8      0.101000
     20 H22        -1.3970   -0.1080   -0.7680 hc        1 3V8      0.101000
     21 H24         5.7150   -1.9260    0.0080 hn        1 3V8      0.079000
     22 H23        -0.1860   -0.1780    1.4620 h1        1 3V8      0.187000
     23 H11        -5.3240    1.4330    4.3960 hc        1 3V8      0.092000
     24 H10        -4.2880    2.9150    4.3580 hc        1 3V8      0.092000
     25 H13        -6.5140    2.1660    2.3470 hc        1 3V8      0.067000
     26 H12        -5.4070    3.5840    2.1730 hc        1 3V8      0.067000
     27 H42        -1.9260    2.7440    2.7850 h4        1 3V8      0.200000
     28 OXT         2.4120    0.0730   -1.2940 o         1 3V8     -0.569500
     29 H2          1.1600    1.8740    1.0860 ha        1 3V8      0.103000
     30 O1         -7.9840    3.9500    3.4300 o         1 3V8     -0.598500
@<TRIPOS>BOND
     1    1    4 1   
     2    1   18 1   
     3    1   19 1   
     4    1   20 1   
     5    2    3 1   
     6    2   11 1   
     7    2   17 1   
     8    3   10 1   
     9    3   28 1   
    10    4    5 1   
    11    4   12 1   
    12    4   22 1   
    13    5   29 1   
    14    6    7 1   
    15    6    8 1   
    16    6   25 1   
    17    6   26 1   
    18    7   14 1   
    19    7   23 1   
    20    7   24 1   
    21    8    9 1   
    22    8   30 1   
    23   11   21 1   
    24   12   13 1   
    25   12   16 1   
    26   13   14 1   
    27   13   27 1   
    28   14   15 1   
    29   15   16 1   
@<TRIPOS>SUBSTRUCTURE
     1 3V8         1 TEMP              0 ****  ****    0 ROOT
