@<TRIPOS>MOLECULE
3V8
   30    29     1     0     0
SMALL
bcc


@<TRIPOS>ATOM
      1 C18         1.8930   -0.9000   -2.2160 c3        1 3V8     -0.232000
      2 C17         2.6070   -1.2990   -0.9570 c2        1 3V8     -0.057000
      3 C16         2.7330   -0.0980    0.0050 c2        1 3V8      0.385000
      4 C19        -0.6180    1.2000    1.6760 c3        1 3V8     -0.090000
      5 C20         0.1630    1.3370    2.8910 c1        1 3V8     -0.099000
      6 C11        -5.9500    2.1930    3.8710 c3        1 3V8     -0.213000
      7 C12        -4.9700    3.1960    3.3040 c3        1 3V8     -0.069000
      8 C10        -6.9500    2.8550    4.8320 c2        1 3V8      0.325000
      9 O3         -6.5910    3.8710    5.4980 o         1 3V8     -0.597000
     10 O5          1.7160    0.1800    0.7010 o         1 3V8     -0.569500
     11 N4          3.0610   -2.4620   -0.6660 n2        1 3V8     -0.261000
     12 N5         -1.9850    1.6950    1.7720 na        1 3V8     -0.159000
     13 C30        -2.5850    2.2270    2.9210 c2        1 3V8     -0.135000
     14 C31        -3.8910    2.5730    2.5090 c2        1 3V8     -0.158000
     15 N8         -3.9740    2.2200    1.1400 n2        1 3V8     -0.125000
     16 N9         -2.8690    1.7220    0.7480 n2        1 3V8     -0.050000
     17 H21         2.4750   -0.0920   -2.7220 hc        1 3V8      0.075667
     18 H20         0.8880   -0.4930   -1.9420 hc        1 3V8      0.075667
     19 H19         1.7570   -1.7470   -2.9310 hc        1 3V8      0.075667
     20 H22        -0.0790    1.7380    0.8280 h1        1 3V8      0.169000
     21 H24         2.9060   -3.1530   -1.3770 hn        1 3V8      0.080000
     22 H23        -0.6370    0.1090    1.3540 h1        1 3V8      0.169000
     23 H11        -5.5300    3.9350    2.6710 hc        1 3V8      0.094000
     24 H10        -4.5120    3.7690    4.1560 hc        1 3V8      0.094000
     25 H13        -6.5130    1.6910    3.0460 hc        1 3V8      0.067000
     26 H12        -5.4030    1.4020    4.4420 hc        1 3V8      0.067000
     27 H42        -2.0580    2.3060    3.8690 h4        1 3V8      0.201000
     28 OXT         3.8040    0.5580   -0.0130 o         1 3V8     -0.569500
     29 H2          1.1920    0.9500    2.7970 ha        1 3V8      0.107000
     30 O1         -8.1010    2.3350    4.9340 o         1 3V8     -0.597000
@<TRIPOS>BOND
     1    1    2 1   
     2    1   17 1   
     3    1   18 1   
     4    1   19 1   
     5    2    3 1   
     6    2   11 1   
     7    3   10 1   
     8    3   28 1   
     9    4    5 1   
    10    4   12 1   
    11    4   20 1   
    12    4   22 1   
    13    5   29 1   
    14    6    7 1   
    15    6    8 1   
    16    6   25 1   
    17    6   26 1   
    18    7   14 1   
    19    7   23 1   
    20    7   24 1   
    21    8    9 1   
    22    8   30 1   
    23   11   21 1   
    24   12   13 1   
    25   12   16 1   
    26   13   14 1   
    27   13   27 1   
    28   14   15 1   
    29   15   16 1   
@<TRIPOS>SUBSTRUCTURE
     1 3V8         1 TEMP              0 ****  ****    0 ROOT
