@<TRIPOS>MOLECULE
3VB
   18    17     1     0     0
SMALL
bcc


@<TRIPOS>ATOM
      1 O6         -0.0210   -0.0800    0.1390 oh        1 3VB     -0.618800
      2 C11         1.3910    0.0230    0.0260 c3        1 3VB      0.095400
      3 C13         1.9260    0.1240    1.4570 c3        1 3VB      0.148100
      4 O7          1.5760   -1.0190    2.2210 oh        1 3VB     -0.602800
      5 C14         3.4580    0.2490    1.4450 c3        1 3VB      0.148100
      6 O8          3.9790   -0.7050    0.5350 oh        1 3VB     -0.602800
      7 C15         4.0180    0.0400    2.8540 c3        1 3VB      0.095400
      8 OAA         5.4270    0.1830    2.7440 oh        1 3VB     -0.618800
      9 H1         -0.3530   -0.3160   -0.7350 ho        1 3VB      0.410000
     10 H2          1.6640    0.9420   -0.5540 h1        1 3VB      0.049200
     11 H3          1.8160   -0.8850   -0.4790 h1        1 3VB      0.049200
     12 H4          1.4940    1.0360    1.9590 h1        1 3VB      0.047700
     13 H5          0.6510   -1.2140    2.0200 ho        1 3VB      0.422000
     14 H6          3.7310    1.2800    1.0780 h1        1 3VB      0.047700
     15 H7          4.9260   -0.7740    0.7170 ho        1 3VB      0.422000
     16 H8          3.7510   -0.9850    3.2240 h1        1 3VB      0.049200
     17 H9          3.6070    0.8140    3.5520 h1        1 3VB      0.049200
     18 H10         5.8020   -0.1150    3.5800 ho        1 3VB      0.410000
@<TRIPOS>BOND
     1    1    2 1   
     2    1    9 1   
     3    2    3 1   
     4    2   10 1   
     5    2   11 1   
     6    3    4 1   
     7    3    5 1   
     8    3   12 1   
     9    4   13 1   
    10    5    6 1   
    11    5    7 1   
    12    5   14 1   
    13    6   15 1   
    14    7    8 1   
    15    7   16 1   
    16    7   17 1   
    17    8   18 1   
@<TRIPOS>SUBSTRUCTURE
     1 3VB         1 TEMP              0 ****  ****    0 ROOT
