@<TRIPOS>MOLECULE
3VC
   45    49     1     0     0
SMALL
bcc


@<TRIPOS>ATOM
      1 C19        -0.4800   -0.1300   -0.0670 ca        1 3VC     -0.230200
      2 N5          0.7300   -0.8320    0.0350 nc        1 3VC     -0.540100
      3 C21         0.9050   -1.0370    1.3500 cd        1 3VC      0.398700
      4 N6         -0.1330   -0.5050    2.1470 na        1 3VC     -0.379000
      5 C20        -1.0410    0.0860    1.2620 ca        1 3VC      0.452800
      6 N4         -2.2200    0.7410    1.4940 nb        1 3VC     -0.735000
      7 C17        -2.8060    1.1640    0.3520 ca        1 3VC      0.685900
      8 N3         -2.4070    1.0380   -0.9430 nb        1 3VC     -0.795000
      9 C18        -1.2230    0.3840   -1.1860 ca        1 3VC      0.766200
     10 N7         -0.7090    0.2440   -2.4550 nh        1 3VC     -0.853900
     11 C10        -1.4530    0.5860   -3.6540 c3        1 3VC      0.282800
     12 C11        -1.3720    2.0800   -3.9940 c3        1 3VC     -0.103100
     13 C1         -0.9560   -0.2150   -4.8350 ca        1 3VC     -0.206600
     14 C5          0.3370   -0.0670   -5.2860 ca        1 3VC     -0.067000
     15 C4          0.7860   -0.8000   -6.4170 ca        1 3VC     -0.163300
     16 C9          2.1070   -0.6790   -6.9190 ca        1 3VC     -0.084000
     17 C8          2.5100   -1.3950   -8.0150 ca        1 3VC     -0.157000
     18 C7          1.5890   -2.2770   -8.6590 ca        1 3VC      0.135900
     19 F1          2.0120   -2.9740   -9.7420 f         1 3VC     -0.135900
     20 C6          0.2920   -2.4250   -8.1980 ca        1 3VC     -0.208300
     21 C3         -0.1390   -1.6820   -7.0540 ca        1 3VC      0.424600
     22 N1         -1.4300   -1.8410   -6.5930 nb        1 3VC     -0.642000
     23 C2         -1.8120   -1.1410   -5.5300 cp        1 3VC      0.401300
     24 C12        -3.2130   -1.3500   -5.0520 cp        1 3VC      0.342300
     25 C13        -4.2520   -0.6210   -5.6640 ca        1 3VC     -0.219300
     26 C14        -5.5610   -0.8320   -5.2260 ca        1 3VC     -0.093000
     27 C15        -5.7940   -1.7570   -4.2100 ca        1 3VC     -0.236300
     28 C16        -4.6910   -2.4430   -3.6650 ca        1 3VC      0.397200
     29 N2         -3.4210   -2.2590   -4.0670 nb        1 3VC     -0.640000
     30 H2          1.7550   -1.5620    1.8010 h5        1 3VC      0.072800
     31 H4         -3.7700    1.7030    0.4850 h5        1 3VC      0.050100
     32 H5          0.0840   -0.3490   -2.5580 hn        1 3VC      0.456800
     33 H6         -2.5490    0.3460   -3.4820 h1        1 3VC      0.084700
     34 H7         -1.8000    2.6890   -3.1630 hc        1 3VC      0.047700
     35 H8         -0.3170    2.4000   -4.1680 hc        1 3VC      0.047700
     36 H9         -1.9630    2.2690   -4.9210 hc        1 3VC      0.047700
     37 H10         1.0360    0.6220   -4.7850 ha        1 3VC      0.148000
     38 H11         2.8050    0.0050   -6.4100 ha        1 3VC      0.143000
     39 H12         3.5310   -1.3120   -8.4160 ha        1 3VC      0.153000
     40 H13        -0.4070   -3.1100   -8.7010 ha        1 3VC      0.170000
     41 H14        -4.0310    0.0910   -6.4710 ha        1 3VC      0.150000
     42 H15        -6.3950   -0.2780   -5.6820 ha        1 3VC      0.142000
     43 H16        -6.8080   -1.9540   -3.8380 ha        1 3VC      0.146000
     44 H17        -4.8290   -3.1880   -2.8600 h4        1 3VC      0.027100
     45 H161       -0.2140   -0.5410    3.1280 hn        1 3VC      0.317700
@<TRIPOS>BOND
     1    1    2 1   
     2    1    5 ar  
     3    1    9 ar  
     4    2    3 2   
     5    3    4 1   
     6    3   30 1   
     7    4    5 1   
     8    4   45 1   
     9    5    6 ar  
    10    6    7 ar  
    11    7    8 ar  
    12    7   31 1   
    13    8    9 ar  
    14    9   10 1   
    15   10   11 1   
    16   10   32 1   
    17   11   12 1   
    18   11   13 1   
    19   11   33 1   
    20   12   34 1   
    21   12   35 1   
    22   12   36 1   
    23   13   14 ar  
    24   13   23 ar  
    25   14   15 ar  
    26   14   37 1   
    27   15   16 ar  
    28   15   21 ar  
    29   16   17 ar  
    30   16   38 1   
    31   17   18 ar  
    32   17   39 1   
    33   18   19 1   
    34   18   20 ar  
    35   20   21 ar  
    36   20   40 1   
    37   21   22 ar  
    38   22   23 ar  
    39   23   24 1   
    40   24   25 ar  
    41   24   29 ar  
    42   25   26 ar  
    43   25   41 1   
    44   26   27 ar  
    45   26   42 1   
    46   27   28 ar  
    47   27   43 1   
    48   28   29 ar  
    49   28   44 1   
@<TRIPOS>SUBSTRUCTURE
     1 3VC         1 TEMP              0 ****  ****    0 ROOT
