@<TRIPOS>MOLECULE
3VC
   45    49     1     0     0
SMALL
bcc


@<TRIPOS>ATOM
      1 C19        -0.4830   -0.1400   -0.0650 ca        1 3VC     -0.230200
      2 N5          0.7280   -0.8390    0.0360 nc        1 3VC     -0.540100
      3 C21         0.9020   -1.0470    1.3510 cd        1 3VC      0.398700
      4 N6         -0.1370   -0.5200    2.1490 na        1 3VC     -0.379000
      5 C20        -1.0460    0.0700    1.2650 ca        1 3VC      0.452800
      6 N4         -2.2270    0.7220    1.4970 nb        1 3VC     -0.735000
      7 C17        -2.8130    1.1470    0.3560 ca        1 3VC      0.685900
      8 N3         -2.4130    1.0250   -0.9390 nb        1 3VC     -0.795000
      9 C18        -1.2270    0.3750   -1.1830 ca        1 3VC      0.766200
     10 N7         -0.7110    0.2400   -2.4510 nu        1 3VC     -0.853900
     11 C10        -1.4560    0.5840   -3.6510 c3        1 3VC      0.282800
     12 C11        -1.3760    2.0790   -3.9860 c3        1 3VC     -0.103100
     13 C1         -0.9560   -0.2120   -4.8330 ca        1 3VC     -0.206600
     14 C5          0.3380   -0.0620   -5.2820 ca        1 3VC     -0.067000
     15 C4          0.7900   -0.7910   -6.4140 ca        1 3VC     -0.163300
     16 C9          2.1120   -0.6670   -6.9140 ca        1 3VC     -0.084000
     17 C8          2.5170   -1.3800   -8.0110 ca        1 3VC     -0.157000
     18 C7          1.5980   -2.2600   -8.6600 ca        1 3VC      0.135900
     19 F1          2.0230   -2.9530   -9.7440 f         1 3VC     -0.135900
     20 C6          0.3000   -2.4100   -8.2010 ca        1 3VC     -0.208300
     21 C3         -0.1330   -1.6720   -7.0560 ca        1 3VC      0.424600
     22 N1         -1.4260   -1.8320   -6.5980 nb        1 3VC     -0.642000
     23 C2         -1.8100   -1.1370   -5.5330 cp        1 3VC      0.401300
     24 C12        -3.2110   -1.3480   -5.0580 cp        1 3VC      0.342300
     25 C13        -4.2500   -0.6140   -5.6670 ca        1 3VC     -0.219300
     26 C14        -5.5590   -0.8280   -5.2320 ca        1 3VC     -0.093000
     27 C15        -5.7940   -1.7590   -4.2210 ca        1 3VC     -0.236300
     28 C16        -4.6920   -2.4490   -3.6800 ca        1 3VC      0.397200
     29 N2         -3.4210   -2.2630   -4.0790 nb        1 3VC     -0.640000
     30 H2          1.7540   -1.5710    1.8010 h5        1 3VC      0.072800
     31 H4         -3.7790    1.6830    0.4890 h5        1 3VC      0.050100
     32 H5          0.0840   -0.3500   -2.5570 hn        1 3VC      0.456800
     33 H6         -2.5500    0.3420   -3.4800 h1        1 3VC      0.084700
     34 H7         -1.8060    2.6850   -3.1530 hc        1 3VC      0.047700
     35 H8         -0.3220    2.4010   -4.1590 hc        1 3VC      0.047700
     36 H9         -1.9680    2.2700   -4.9130 hc        1 3VC      0.047700
     37 H10         1.0360    0.6260   -4.7780 ha        1 3VC      0.148000
     38 H11         2.8080    0.0150   -6.4010 ha        1 3VC      0.143000
     39 H12         3.5380   -1.2950   -8.4100 ha        1 3VC      0.153000
     40 H13        -0.3980   -3.0940   -8.7080 ha        1 3VC      0.170000
     41 H14        -4.0270    0.1020   -6.4690 ha        1 3VC      0.150000
     42 H15        -6.3920   -0.2700   -5.6860 ha        1 3VC      0.142000
     43 H16        -6.8080   -1.9570   -3.8520 ha        1 3VC      0.146000
     44 H17        -4.8310   -3.1990   -2.8800 h4        1 3VC      0.027100
     45 H161       -0.2190   -0.5590    3.1290 hn        1 3VC      0.317700
@<TRIPOS>BOND
     1    1    2 1   
     2    1    5 ar  
     3    1    9 ar  
     4    2    3 2   
     5    3    4 1   
     6    3   30 1   
     7    4    5 1   
     8    4   45 1   
     9    5    6 ar  
    10    6    7 ar  
    11    7    8 ar  
    12    7   31 1   
    13    8    9 ar  
    14    9   10 1   
    15   10   11 1   
    16   10   32 1   
    17   11   12 1   
    18   11   13 1   
    19   11   33 1   
    20   12   34 1   
    21   12   35 1   
    22   12   36 1   
    23   13   14 ar  
    24   13   23 ar  
    25   14   15 ar  
    26   14   37 1   
    27   15   16 ar  
    28   15   21 ar  
    29   16   17 ar  
    30   16   38 1   
    31   17   18 ar  
    32   17   39 1   
    33   18   19 1   
    34   18   20 ar  
    35   20   21 ar  
    36   20   40 1   
    37   21   22 ar  
    38   22   23 ar  
    39   23   24 1   
    40   24   25 ar  
    41   24   29 ar  
    42   25   26 ar  
    43   25   41 1   
    44   26   27 ar  
    45   26   42 1   
    46   27   28 ar  
    47   27   43 1   
    48   28   29 ar  
    49   28   44 1   
@<TRIPOS>SUBSTRUCTURE
     1 3VC         1 TEMP              0 ****  ****    0 ROOT
