@<TRIPOS>MOLECULE
3VD
   46    50     1     0     0
SMALL
bcc


@<TRIPOS>ATOM
      1 C18        -0.2330   -0.1060    0.0610 ca        1 3VD     -0.228200
      2 N21         1.1200   -0.4730    0.0820 nc        1 3VD     -0.543100
      3 C22         1.4540   -0.5000    1.3810 cd        1 3VD      0.401700
      4 N23         0.3890   -0.1650    2.2460 na        1 3VD     -0.378000
      5 C19        -0.7130    0.0950    1.4250 ca        1 3VD      0.452800
      6 N20        -1.9920    0.4680    1.7340 nb        1 3VD     -0.729000
      7 C15        -2.7620    0.6330    0.6340 ca        1 3VD      0.685900
      8 N16        -2.4550    0.4840   -0.6840 nb        1 3VD     -0.788000
      9 C17        -1.1800    0.0910   -1.0040 ca        1 3VD      0.755200
     10 N13        -0.7940   -0.1780   -2.3020 nh        1 3VD     -0.846900
     11 C12        -1.6030    0.1850   -3.4520 c3        1 3VD      0.266800
     12 C30        -1.6280    1.6900   -3.7470 c3        1 3VD     -0.118100
     13 C7         -1.1160   -0.5440   -4.6840 ca        1 3VD     -0.190600
     14 C6          0.1560   -0.3270   -5.1630 ca        1 3VD     -0.081000
     15 C5          0.6030   -0.9870   -6.3400 ca        1 3VD     -0.138300
     16 C11         1.9060   -0.7920   -6.8630 ca        1 3VD     -0.111000
     17 C10         2.2970   -1.4450   -8.0050 ca        1 3VD     -0.117000
     18 C9          1.4070   -2.3160   -8.6750 ca        1 3VD     -0.121000
     19 C8          0.1340   -2.5270   -8.1930 ca        1 3VD     -0.020900
     20 CL1        -0.9080   -3.5780   -9.0200 cl        1 3VD     -0.060400
     21 C4         -0.3130   -1.8640   -6.9970 ca        1 3VD      0.403600
     22 N3         -1.5840   -2.0830   -6.5150 nb        1 3VD     -0.634000
     23 C2         -1.9670   -1.4610   -5.4020 cp        1 3VD      0.491800
     24 C1         -3.3390   -1.7370   -4.9150 cp        1 3VD     -0.129500
     25 C24        -3.5240   -2.4410   -3.7220 ca        1 3VD     -0.141000
     26 C25        -4.8320   -2.7170   -3.2850 ca        1 3VD      0.124900
     27 F1         -5.0230   -3.4000   -2.1310 f         1 3VD     -0.137900
     28 C26        -5.9420   -2.2910   -4.0380 ca        1 3VD     -0.156000
     29 C27        -5.7330   -1.5990   -5.2270 ca        1 3VD     -0.111000
     30 C28        -4.4400   -1.3250   -5.6730 ca        1 3VD     -0.113000
     31 H2          2.4460   -0.7520    1.7740 h5        1 3VD      0.073800
     32 H4         -3.8120    0.9400    0.8300 h5        1 3VD      0.054100
     33 H5          0.1860   -0.2780   -2.4570 hn        1 3VD      0.444800
     34 H6         -2.6680   -0.1360   -3.2280 h1        1 3VD      0.102700
     35 H7         -2.0490    2.2480   -2.8770 hc        1 3VD      0.048700
     36 H8         -2.2770    1.8730   -4.6360 hc        1 3VD      0.048700
     37 H9         -0.6050    2.0780   -3.9660 hc        1 3VD      0.048700
     38 H10         0.8470    0.3650   -4.6540 ha        1 3VD      0.142000
     39 H11         2.5920   -0.1130   -6.3350 ha        1 3VD      0.139000
     40 H12         3.3070   -1.3000   -8.4180 ha        1 3VD      0.142000
     41 H13         1.7490   -2.8250   -9.5900 ha        1 3VD      0.151000
     42 H14        -2.6630   -2.7790   -3.1260 ha        1 3VD      0.161000
     43 H15        -6.9580   -2.5130   -3.6830 ha        1 3VD      0.149000
     44 H16        -6.5970   -1.2700   -5.8230 ha        1 3VD      0.140000
     45 H17        -4.2850   -0.7930   -6.6240 ha        1 3VD      0.147000
     46 H1          0.4030   -0.1310    3.2300 hn        1 3VD      0.319700
@<TRIPOS>BOND
     1    1    2 1   
     2    1    5 ar  
     3    1    9 ar  
     4    2    3 2   
     5    3    4 1   
     6    3   31 1   
     7    4    5 1   
     8    4   46 1   
     9    5    6 ar  
    10    6    7 ar  
    11    7    8 ar  
    12    7   32 1   
    13    8    9 ar  
    14    9   10 1   
    15   10   11 1   
    16   10   33 1   
    17   11   12 1   
    18   11   13 1   
    19   11   34 1   
    20   12   35 1   
    21   12   36 1   
    22   12   37 1   
    23   13   14 ar  
    24   13   23 ar  
    25   14   15 ar  
    26   14   38 1   
    27   15   16 ar  
    28   15   21 ar  
    29   16   17 ar  
    30   16   39 1   
    31   17   18 ar  
    32   17   40 1   
    33   18   19 ar  
    34   18   41 1   
    35   19   20 1   
    36   19   21 ar  
    37   21   22 ar  
    38   22   23 ar  
    39   23   24 1   
    40   24   25 ar  
    41   24   30 ar  
    42   25   26 ar  
    43   25   42 1   
    44   26   27 1   
    45   26   28 ar  
    46   28   29 ar  
    47   28   43 1   
    48   29   30 ar  
    49   29   44 1   
    50   30   45 1   
@<TRIPOS>SUBSTRUCTURE
     1 3VD         1 TEMP              0 ****  ****    0 ROOT
