@<TRIPOS>MOLECULE
3VD
   46    50     1     0     0
SMALL
bcc


@<TRIPOS>ATOM
      1 C18        -0.2290   -0.1000    0.0580 ca        1 3VD     -0.228200
      2 N21         1.1220   -0.4730    0.0790 nc        1 3VD     -0.543100
      3 C22         1.4570   -0.4990    1.3780 cd        1 3VD      0.401700
      4 N23         0.3940   -0.1570    2.2430 na        1 3VD     -0.378000
      5 C19        -0.7080    0.1050    1.4210 ca        1 3VD      0.452800
      6 N20        -1.9850    0.4840    1.7310 nb        1 3VD     -0.729000
      7 C15        -2.7540    0.6500    0.6310 ca        1 3VD      0.685900
      8 N16        -2.4490    0.4980   -0.6870 nb        1 3VD     -0.788000
      9 C17        -1.1750    0.0980   -1.0070 ca        1 3VD      0.755200
     10 N13        -0.7910   -0.1750   -2.3050 nu        1 3VD     -0.846900
     11 C12        -1.6000    0.1880   -3.4550 c3        1 3VD      0.266800
     12 C30        -1.6200    1.6920   -3.7540 c3        1 3VD     -0.118100
     13 C7         -1.1160   -0.5460   -4.6850 ca        1 3VD     -0.190600
     14 C6          0.1570   -0.3350   -5.1650 ca        1 3VD     -0.081000
     15 C5          0.6000   -1.0000   -6.3410 ca        1 3VD     -0.138300
     16 C11         1.9040   -0.8110   -6.8650 ca        1 3VD     -0.111000
     17 C10         2.2920   -1.4680   -8.0060 ca        1 3VD     -0.117000
     18 C9          1.3990   -2.3380   -8.6720 ca        1 3VD     -0.121000
     19 C8          0.1260   -2.5430   -8.1890 ca        1 3VD     -0.020900
     20 Cl1        -0.9210   -3.5940   -9.0120 cl        1 3VD     -0.060400
     21 C4         -0.3190   -1.8760   -6.9950 ca        1 3VD      0.403600
     22 N3         -1.5900   -2.0900   -6.5110 nb        1 3VD     -0.634000
     23 C2         -1.9700   -1.4630   -5.4000 cp        1 3VD      0.491800
     24 C1         -3.3430   -1.7340   -4.9110 cp        1 3VD     -0.129500
     25 C24        -3.5280   -2.4330   -3.7160 ca        1 3VD     -0.141000
     26 C25        -4.8370   -2.7050   -3.2760 ca        1 3VD      0.124900
     27 F1         -5.0290   -3.3830   -2.1200 f         1 3VD     -0.137900
     28 C26        -5.9460   -2.2790   -4.0310 ca        1 3VD     -0.156000
     29 C27        -5.7360   -1.5910   -5.2220 ca        1 3VD     -0.111000
     30 C28        -4.4430   -1.3220   -5.6700 ca        1 3VD     -0.113000
     31 H2          2.4480   -0.7550    1.7710 h5        1 3VD      0.073800
     32 H4         -3.8030    0.9630    0.8270 h5        1 3VD      0.054100
     33 H5          0.1880   -0.2800   -2.4600 hn        1 3VD      0.444800
     34 H6         -2.6660   -0.1290   -3.2300 h1        1 3VD      0.102700
     35 H7         -0.5950    2.0750   -3.9740 hc        1 3VD      0.048700
     36 H8         -2.0380    2.2540   -2.8850 hc        1 3VD      0.048700
     37 H9         -2.2690    1.8750   -4.6440 hc        1 3VD      0.048700
     38 H10         0.8490    0.3560   -4.6600 ha        1 3VD      0.142000
     39 H11         2.5920   -0.1320   -6.3400 ha        1 3VD      0.139000
     40 H12         3.3030   -1.3280   -8.4190 ha        1 3VD      0.142000
     41 H13         1.7390   -2.8510   -9.5860 ha        1 3VD      0.151000
     42 H14        -2.6690   -2.7710   -3.1180 ha        1 3VD      0.161000
     43 H15        -6.9630   -2.4970   -3.6740 ha        1 3VD      0.149000
     44 H16        -6.6000   -1.2620   -5.8190 ha        1 3VD      0.140000
     45 H17        -4.2870   -0.7940   -6.6220 ha        1 3VD      0.147000
     46 H1          0.4090   -0.1210    3.2270 hn        1 3VD      0.319700
@<TRIPOS>BOND
     1    1    2 1   
     2    1    5 ar  
     3    1    9 ar  
     4    2    3 2   
     5    3    4 1   
     6    3   31 1   
     7    4    5 1   
     8    4   46 1   
     9    5    6 ar  
    10    6    7 ar  
    11    7    8 ar  
    12    7   32 1   
    13    8    9 ar  
    14    9   10 1   
    15   10   11 1   
    16   10   33 1   
    17   11   12 1   
    18   11   13 1   
    19   11   34 1   
    20   12   35 1   
    21   12   36 1   
    22   12   37 1   
    23   13   14 ar  
    24   13   23 ar  
    25   14   15 ar  
    26   14   38 1   
    27   15   16 ar  
    28   15   21 ar  
    29   16   17 ar  
    30   16   39 1   
    31   17   18 ar  
    32   17   40 1   
    33   18   19 ar  
    34   18   41 1   
    35   19   20 1   
    36   19   21 ar  
    37   21   22 ar  
    38   22   23 ar  
    39   23   24 1   
    40   24   25 ar  
    41   24   30 ar  
    42   25   26 ar  
    43   25   42 1   
    44   26   27 1   
    45   26   28 ar  
    46   28   29 ar  
    47   28   43 1   
    48   29   30 ar  
    49   29   44 1   
    50   30   45 1   
@<TRIPOS>SUBSTRUCTURE
     1 3VD         1 TEMP              0 ****  ****    0 ROOT
