@<TRIPOS>MOLECULE
3VE
   48    52     1     0     0
SMALL
bcc


@<TRIPOS>ATOM
      1 C30         0.8050    0.6240    0.3230 c3        1 3VE     -0.155400
      2 C29         2.2400    0.8270   -0.0410 ca        1 3VE      0.455600
      3 N28         3.1200    1.1730    0.9320 nb        1 3VE     -0.670000
      4 C27         4.4030    1.3700    0.5860 ca        1 3VE      0.413200
      5 C26         4.8890    1.2370   -0.7280 ca        1 3VE     -0.256300
      6 C25         3.9890    0.8790   -1.7280 ca        1 3VE     -0.070000
      7 C11         2.6470    0.6620   -1.3910 cp        1 3VE     -0.276800
      8 C2          1.6750    0.3050   -2.4460 cp        1 3VE      0.500800
      9 N3          0.8290    1.2520   -2.8470 nb        1 3VE     -0.635000
     10 C6         -0.0780    0.9570   -3.8400 ca        1 3VE      0.402600
     11 C7         -1.0070    1.9560   -4.2950 ca        1 3VE     -0.021900
     12 CL1        -0.9910    3.5050   -3.6040 cl        1 3VE     -0.060400
     13 C8         -1.9150    1.6670   -5.2900 ca        1 3VE     -0.120000
     14 C9         -1.9510    0.3840   -5.8830 ca        1 3VE     -0.118000
     15 C10        -1.0800   -0.5960   -5.4760 ca        1 3VE     -0.111000
     16 C5         -0.1340   -0.3320   -4.4540 ca        1 3VE     -0.139300
     17 C4          0.7830   -1.3190   -4.0020 ca        1 3VE     -0.082000
     18 C1          1.6880   -1.0240   -3.0080 ca        1 3VE     -0.193600
     19 C13         2.6700   -2.0680   -2.5260 c3        1 3VE      0.271800
     20 C15         3.6290   -2.4080   -3.6730 c3        1 3VE     -0.117100
     21 N14         1.9630   -3.2170   -1.9910 nh        1 3VE     -0.850900
     22 C16         2.5640   -4.1600   -1.1850 ca        1 3VE      0.761200
     23 C21         1.8310   -5.3470   -0.8340 ca        1 3VE     -0.230200
     24 N22         0.5670   -5.8320   -1.1960 nc        1 3VE     -0.544100
     25 C23         0.4350   -6.9920   -0.5340 cd        1 3VE      0.400700
     26 N24         1.5560   -7.3190    0.2610 na        1 3VE     -0.378000
     27 C20         2.4730   -6.2770    0.0890 ca        1 3VE      0.453800
     28 N17         3.7210   -6.0860    0.6170 nb        1 3VE     -0.731000
     29 C18         4.2930   -4.9400    0.1860 ca        1 3VE      0.686900
     30 N19         3.8220   -3.9870   -0.6650 nb        1 3VE     -0.790000
     31 H1          0.6670    0.4770    1.4220 hc        1 3VE      0.061033
     32 H2          0.4030   -0.2710   -0.2110 hc        1 3VE      0.061033
     33 H3          0.2190    1.5240    0.0080 hc        1 3VE      0.061033
     34 H4          5.0790    1.6530    1.4130 h4        1 3VE      0.023100
     35 H5          5.9490    1.4130   -0.9520 ha        1 3VE      0.146000
     36 H6          4.3230    0.7660   -2.7710 ha        1 3VE      0.141000
     37 H7         -2.6250    2.4340   -5.6370 ha        1 3VE      0.151000
     38 H8         -2.6890    0.1880   -6.6750 ha        1 3VE      0.142000
     39 H9         -1.1020   -1.5980   -5.9310 ha        1 3VE      0.139000
     40 H10         0.7550   -2.3160   -4.4710 ha        1 3VE      0.142000
     41 H11         3.2890   -1.6290   -1.6830 h1        1 3VE      0.101700
     42 H12         4.4000   -3.1400   -3.3320 hc        1 3VE      0.047700
     43 H13         3.0820   -2.8380   -4.5450 hc        1 3VE      0.047700
     44 H14         4.1440   -1.4720   -3.9990 hc        1 3VE      0.047700
     45 H15         1.1210   -3.4890   -2.4470 hn        1 3VE      0.447800
     46 H17        -0.4400   -7.6510   -0.5790 h5        1 3VE      0.073800
     47 H18         1.6740   -8.1110    0.8350 hn        1 3VE      0.318700
     48 H19         5.3120   -4.7380    0.5830 h5        1 3VE      0.053100
@<TRIPOS>BOND
     1    1    2 1   
     2    1   31 1   
     3    1   32 1   
     4    1   33 1   
     5    2    3 ar  
     6    2    7 ar  
     7    3    4 ar  
     8    4    5 ar  
     9    4   34 1   
    10    5    6 ar  
    11    5   35 1   
    12    6    7 ar  
    13    6   36 1   
    14    7    8 1   
    15    8    9 ar  
    16    8   18 ar  
    17    9   10 ar  
    18   10   11 ar  
    19   10   16 ar  
    20   11   12 1   
    21   11   13 ar  
    22   13   14 ar  
    23   13   37 1   
    24   14   15 ar  
    25   14   38 1   
    26   15   16 ar  
    27   15   39 1   
    28   16   17 ar  
    29   17   18 ar  
    30   17   40 1   
    31   18   19 1   
    32   19   20 1   
    33   19   21 1   
    34   19   41 1   
    35   20   42 1   
    36   20   43 1   
    37   20   44 1   
    38   21   22 1   
    39   21   45 1   
    40   22   23 ar  
    41   22   30 ar  
    42   23   24 1   
    43   23   27 ar  
    44   24   25 2   
    45   25   26 1   
    46   25   46 1   
    47   26   27 1   
    48   26   47 1   
    49   27   28 ar  
    50   28   29 ar  
    51   29   30 ar  
    52   29   48 1   
@<TRIPOS>SUBSTRUCTURE
     1 3VE         1 TEMP              0 ****  ****    0 ROOT
