@<TRIPOS>MOLECULE
3VE
   48    52     1     0     0
SMALL
bcc


@<TRIPOS>ATOM
      1 C30         0.7640    0.6050    0.3260 c3        1 3VE     -0.155400
      2 C29         2.1990    0.8240   -0.0270 ca        1 3VE      0.455600
      3 N28         3.0690    1.1760    0.9540 nb        1 3VE     -0.670000
      4 C27         4.3510    1.3890    0.6170 ca        1 3VE      0.413200
      5 C26         4.8490    1.2660   -0.6930 ca        1 3VE     -0.256300
      6 C25         3.9590    0.9020   -1.7020 ca        1 3VE     -0.070000
      7 C11         2.6170    0.6700   -1.3740 cp        1 3VE     -0.276800
      8 C2          1.6570    0.3060   -2.4370 cp        1 3VE      0.500800
      9 N3          0.8020    1.2450   -2.8400 nb        1 3VE     -0.635000
     10 C6         -0.0940    0.9440   -3.8410 ca        1 3VE      0.402600
     11 C7         -1.0310    1.9350   -4.2970 ca        1 3VE     -0.021900
     12 Cl1        -1.0380    3.4810   -3.6000 cl        1 3VE     -0.060400
     13 C8         -1.9290    1.6400   -5.3010 ca        1 3VE     -0.120000
     14 C9         -1.9460    0.3600   -5.8990 ca        1 3VE     -0.118000
     15 C10        -1.0670   -0.6130   -5.4910 ca        1 3VE     -0.111000
     16 C5         -0.1310   -0.3420   -4.4610 ca        1 3VE     -0.139300
     17 C4          0.7940   -1.3210   -4.0070 ca        1 3VE     -0.082000
     18 C1          1.6890   -1.0210   -3.0060 ca        1 3VE     -0.193600
     19 C13         2.6790   -2.0550   -2.5220 c3        1 3VE      0.271800
     20 C15         3.6500   -2.3790   -3.6640 c3        1 3VE     -0.117100
     21 N14         1.9820   -3.2140   -1.9960 nu        1 3VE     -0.850900
     22 C16         2.5880   -4.1540   -1.1910 ca        1 3VE      0.761200
     23 C21         1.8670   -5.3510   -0.8500 ca        1 3VE     -0.230200
     24 N22         0.6100   -5.8490   -1.2230 nc        1 3VE     -0.544100
     25 C23         0.4870   -7.0130   -0.5670 cd        1 3VE      0.400700
     26 N24         1.6070   -7.3320    0.2330 na        1 3VE     -0.378000
     27 C20         2.5140   -6.2790    0.0720 ca        1 3VE      0.453800
     28 N17         3.7560   -6.0770    0.6090 nb        1 3VE     -0.731000
     29 C18         4.3180   -4.9220    0.1860 ca        1 3VE      0.686900
     30 N19         3.8410   -3.9700   -0.6630 nb        1 3VE     -0.790000
     31 H1          0.1700    1.5000    0.0120 hc        1 3VE      0.061033
     32 H2          0.3750   -0.2930   -0.2140 hc        1 3VE      0.061033
     33 H3          0.6200    0.4510    1.4240 hc        1 3VE      0.061033
     34 H4          5.0190    1.6750    1.4500 h4        1 3VE      0.023100
     35 H5          5.9080    1.4540   -0.9100 ha        1 3VE      0.146000
     36 H6          4.3010    0.7980   -2.7420 ha        1 3VE      0.141000
     37 H7         -2.6460    2.4000   -5.6490 ha        1 3VE      0.151000
     38 H8         -2.6760    0.1590   -6.6980 ha        1 3VE      0.142000
     39 H9         -1.0740   -1.6120   -5.9510 ha        1 3VE      0.139000
     40 H10         0.7800   -2.3160   -4.4800 ha        1 3VE      0.142000
     41 H11         3.2870   -1.6130   -1.6720 h1        1 3VE      0.101700
     42 H12         4.1570   -1.4370   -3.9830 hc        1 3VE      0.047700
     43 H13         3.1130   -2.8120   -4.5420 hc        1 3VE      0.047700
     44 H14         4.4260   -3.1040   -3.3210 hc        1 3VE      0.047700
     45 H15         1.1450   -3.4930   -2.4590 hn        1 3VE      0.447800
     46 H17        -0.3800   -7.6820   -0.6210 h5        1 3VE      0.073800
     47 H18         1.7300   -8.1250    0.8040 hn        1 3VE      0.318700
     48 H19         5.3320   -4.7110    0.5910 h5        1 3VE      0.053100
@<TRIPOS>BOND
     1    1    2 1   
     2    1   31 1   
     3    1   32 1   
     4    1   33 1   
     5    2    3 ar  
     6    2    7 ar  
     7    3    4 ar  
     8    4    5 ar  
     9    4   34 1   
    10    5    6 ar  
    11    5   35 1   
    12    6    7 ar  
    13    6   36 1   
    14    7    8 1   
    15    8    9 ar  
    16    8   18 ar  
    17    9   10 ar  
    18   10   11 ar  
    19   10   16 ar  
    20   11   12 1   
    21   11   13 ar  
    22   13   14 ar  
    23   13   37 1   
    24   14   15 ar  
    25   14   38 1   
    26   15   16 ar  
    27   15   39 1   
    28   16   17 ar  
    29   17   18 ar  
    30   17   40 1   
    31   18   19 1   
    32   19   20 1   
    33   19   21 1   
    34   19   41 1   
    35   20   42 1   
    36   20   43 1   
    37   20   44 1   
    38   21   22 1   
    39   21   45 1   
    40   22   23 ar  
    41   22   30 ar  
    42   23   24 1   
    43   23   27 ar  
    44   24   25 2   
    45   25   26 1   
    46   25   46 1   
    47   26   27 1   
    48   26   47 1   
    49   27   28 ar  
    50   28   29 ar  
    51   29   30 ar  
    52   29   48 1   
@<TRIPOS>SUBSTRUCTURE
     1 3VE         1 TEMP              0 ****  ****    0 ROOT
