@<TRIPOS>MOLECULE
3VF
   54    56     1     0     0
SMALL
bcc


@<TRIPOS>ATOM
      1 C1          0.2920   -0.1910    0.3280 ca        1 3VF      0.376600
      2 C2          1.3020    0.7860    0.3360 ca        1 3VF     -0.316600
      3 C3          2.0020    0.9620    1.5530 ca        1 3VF      0.460200
      4 C11        -2.7770   -5.1560   -3.8780 ca        1 3VF      0.245100
      5 C12        -3.7200   -4.1410   -4.1810 ca        1 3VF     -0.188600
      6 C13        -3.5810   -2.8910   -3.5950 ca        1 3VF      0.018000
      7 C14        -2.5260   -2.6290   -2.6940 ca        1 3VF     -0.260600
      8 C15        -1.5910   -3.6400   -2.4090 ca        1 3VF     -0.035000
      9 C16        -1.7100   -4.8880   -2.9930 ca        1 3VF     -0.215000
     10 C18        -4.8010   -3.9240   -6.5070 c3        1 3VF     -0.082700
     11 C20        -5.0340   -2.4360   -6.5180 ca        1 3VF     -0.071300
     12 C22        -2.4750   -1.2930   -2.1290 c         1 3VF      0.584700
     13 C23        -4.2210   -1.5690   -7.2540 ca        1 3VF     -0.134000
     14 C24        -4.4960   -0.1970   -7.2620 ca        1 3VF      0.024900
     15 C25        -5.5750    0.3270   -6.5470 ca        1 3VF     -0.116000
     16 C26        -6.3850   -0.5490   -5.8160 ca        1 3VF      0.024900
     17 C27        -6.1230   -1.9200   -5.8010 ca        1 3VF     -0.134000
     18 C30        -2.0960   -7.4290   -4.1540 c3        1 3VF      0.102700
     19 N4          1.7310    0.2490    2.6580 nb        1 3VF     -0.619000
     20 C5          0.7210   -0.6790    2.5500 ca        1 3VF      0.785000
     21 N6         -0.0140   -0.9320    1.4250 nb        1 3VF     -0.716000
     22 C7         -0.4520   -0.4410   -0.9620 c3        1 3VF      0.064500
     23 N8         -1.7580   -1.1390   -0.7890 ny        1 3VF     -0.672800
     24 C9          0.4050   -1.4570    3.7210 cg        1 3VF      0.114800
     25 N10         0.1540   -2.0820    4.6670 n1        1 3VF     -0.254800
     26 O19        -5.8680   -5.0220   -4.6240 o         1 3VF     -0.473100
     27 Cl1        -3.5010    0.8460   -8.1570 cl        1 3VF     -0.065900
     28 Cl2        -7.7020    0.0640   -4.9410 cl        1 3VF     -0.065900
     29 C31        -3.4460   -4.3200   -7.0760 c3        1 3VF     -0.090100
     30 C32        -5.8940   -4.6000   -7.3350 c3        1 3VF     -0.090100
     31 O33        -2.9650   -0.2530   -2.5500 o         1 3VF     -0.432100
     32 H1          1.5440    1.3870   -0.5500 ha        1 3VF      0.179000
     33 H2          2.8150    1.7110    1.6440 h4        1 3VF      0.069100
     34 H3         -4.3090   -2.0920   -3.8370 ha        1 3VF      0.181000
     35 H4         -0.7340   -3.4590   -1.7410 ha        1 3VF      0.131000
     36 H5         -0.9700   -5.6720   -2.7650 ha        1 3VF      0.170000
     37 H6         -3.3740   -1.9530   -7.8440 ha        1 3VF      0.160000
     38 H7         -5.7920    1.4070   -6.5670 ha        1 3VF      0.171000
     39 H8         -6.7850   -2.6060   -5.2440 ha        1 3VF      0.160000
     40 H9         -2.5070   -8.2810   -4.7560 h1        1 3VF      0.068700
     41 H10        -1.0490   -7.1930   -4.4600 h1        1 3VF      0.068700
     42 H11        -2.1620   -7.6470   -3.0610 h1        1 3VF      0.068700
     43 H12         0.1970   -1.0760   -1.6360 hx        1 3VF      0.122200
     44 H13        -0.6550    0.5470   -1.4720 hx        1 3VF      0.122200
     45 H14        -2.3500   -0.5810   -0.1600 hn        1 3VF      0.469300
     46 H17        -3.4240   -4.1440   -8.1780 hc        1 3VF      0.054200
     47 H18        -3.2640   -5.4080   -6.8890 hc        1 3VF      0.054200
     48 H19        -2.6240   -3.7350   -6.5980 hc        1 3VF      0.054200
     49 H20        -5.7350   -5.7050   -7.3430 hc        1 3VF      0.054200
     50 H21        -5.8670   -4.2180   -8.3830 hc        1 3VF      0.054200
     51 H22        -6.8990   -4.3880   -6.8950 hc        1 3VF      0.054200
     52 C17        -4.8890   -4.4220   -5.0660 c         1 3VF      0.588700
     53 H82        -1.6150   -2.0590   -0.3560 hn        1 3VF      0.469300
     54 O21        -2.9690   -6.3490   -4.5030 os        1 3VF     -0.291900
@<TRIPOS>BOND
     1    1    2 ar  
     2    1   21 ar  
     3    1   22 1   
     4    2    3 ar  
     5    2   32 1   
     6    3   19 ar  
     7    3   33 1   
     8    4    5 ar  
     9    4    9 ar  
    10    4   54 1   
    11    5    6 ar  
    12    5   52 1   
    13    6    7 ar  
    14    6   34 1   
    15    7    8 ar  
    16    7   12 1   
    17    8    9 ar  
    18    8   35 1   
    19    9   36 1   
    20   10   11 1   
    21   10   29 1   
    22   10   30 1   
    23   10   52 1   
    24   11   13 ar  
    25   11   17 ar  
    26   12   23 1   
    27   12   31 2   
    28   13   14 ar  
    29   13   37 1   
    30   14   15 ar  
    31   14   27 1   
    32   15   16 ar  
    33   15   38 1   
    34   16   17 ar  
    35   16   28 1   
    36   17   39 1   
    37   18   40 1   
    38   18   41 1   
    39   18   42 1   
    40   18   54 1   
    41   19   20 ar  
    42   20   21 ar  
    43   20   24 1   
    44   22   23 1   
    45   22   43 1   
    46   22   44 1   
    47   23   45 1   
    48   23   53 1   
    49   24   25 3   
    50   26   52 2   
    51   29   46 1   
    52   29   47 1   
    53   29   48 1   
    54   30   49 1   
    55   30   50 1   
    56   30   51 1   
@<TRIPOS>SUBSTRUCTURE
     1 3VF         1 TEMP              0 ****  ****    0 ROOT
