@<TRIPOS>MOLECULE
3VJ
   56    57     1     0     0
SMALL
bcc


@<TRIPOS>ATOM
      1 C1          0.2410    0.5160    0.0260 ca        1 3VJ      0.282100
      2 C2          1.2960   -0.4190    0.2230 ca        1 3VJ     -0.193600
      3 C3          1.8100   -0.6030    1.4920 ca        1 3VJ      0.036000
      4 C13         5.2530   -0.2050   -0.3550 ca        1 3VJ     -0.137000
      5 C14         6.3080   -0.5530    0.4970 ca        1 3VJ      0.022400
      6 C15         6.3730   -1.8200    1.0820 ca        1 3VJ     -0.119000
      7 C16         5.3560   -2.7410    0.8080 ca        1 3VJ      0.022400
      8 C17         4.2990   -2.4060   -0.0400 ca        1 3VJ     -0.137000
      9 C22         1.8000   -0.0100    6.3890 c3        1 3VJ      0.029800
     10 C23         1.1380    0.5730    7.6250 c         1 3VJ      0.511100
     11 C26         0.7630   -0.6610    9.7490 c3        1 3VJ     -0.006500
     12 C30         1.3710   -1.0480   11.0910 c2        1 3VJ      0.372200
     13 C4          1.2930    0.1170    2.6040 ca        1 3VJ     -0.285600
     14 C5          0.2470    1.0430    2.3940 ca        1 3VJ     -0.025000
     15 C6         -0.2700    1.2430    1.1330 ca        1 3VJ     -0.215000
     16 C7          1.7980   -1.2530   -0.9150 c         1 3VJ      0.583700
     17 C8          3.1090   -0.8190   -1.5650 c3        1 3VJ     -0.079700
     18 O9          1.1570   -2.2390   -1.2710 o         1 3VJ     -0.459100
     19 C10         4.2420   -1.1310   -0.6230 ca        1 3VJ     -0.075300
     20 O11        -0.2010    0.6520   -1.2420 os        1 3VJ     -0.270900
     21 N20         1.1900    0.4570    5.1250 n4        1 3VJ     -0.701800
     22 O21         2.8780   -0.8430    4.1770 o         1 3VJ     -0.446100
     23 O24         0.1820    1.3350    7.6260 o         1 3VJ     -0.376100
     24 N25         1.7220    0.1730    8.9440 n4        1 3VJ     -0.656800
     25 N31         0.8820   -0.8960   12.2480 n2        1 3VJ     -0.620100
     26 H1          2.6370   -1.3250    1.6420 ha        1 3VJ      0.188000
     27 H2          5.2450    0.7920   -0.8230 ha        1 3VJ      0.162000
     28 H3          7.2200   -2.0970    1.7310 ha        1 3VJ      0.173000
     29 H4          3.5240   -3.1530   -0.2830 ha        1 3VJ      0.162000
     30 H5          1.7370   -1.1440    6.4180 hx        1 3VJ      0.165700
     31 H6          2.9030    0.2640    6.3720 hx        1 3VJ      0.165700
     32 H7         -0.1890   -0.0650    9.8670 hx        1 3VJ      0.124200
     33 H8          0.5390   -1.6030    9.1700 hx        1 3VJ      0.124200
     34 H9         -1.0200    2.5860   -1.2380 h1        1 3VJ      0.079033
     35 H10        -1.4660    1.4150   -2.5940 h1        1 3VJ      0.079033
     36 H11        -2.2030    1.2040   -0.9160 h1        1 3VJ      0.079033
     37 H12         4.2820   -1.3290   -3.3280 hc        1 3VJ      0.057367
     38 H13         3.3120   -2.7070   -2.6440 hc        1 3VJ      0.057367
     39 H14         2.4800   -1.3890   -3.5720 hc        1 3VJ      0.057367
     40 H15         3.0000    1.2890   -0.9900 hc        1 3VJ      0.057367
     41 H16         2.0670    0.8500   -2.4850 hc        1 3VJ      0.057367
     42 H17         3.8740    0.9640   -2.5510 hc        1 3VJ      0.057367
     43 H18         2.3410   -1.5890   11.0140 h4        1 3VJ      0.051800
     44 H19        -0.1750    1.6360    3.2210 ha        1 3VJ      0.121000
     45 H20        -1.0840    1.9710    0.9800 ha        1 3VJ      0.180000
     46 H21         1.2570    1.4780    5.0520 hn        1 3VJ      0.465800
     47 H22         2.5990   -0.3480    8.8130 hn        1 3VJ      0.482800
     48 H23         0.0010   -0.4430   12.3810 hn        1 3VJ      0.435400
     49 C12         1.9060   -0.1770    3.8630 c         1 3VJ      0.612700
     50 CL1         7.5280    0.5790    0.8180 cl        1 3VJ     -0.059900
     51 C27        -1.3050    1.5360   -1.4890 c3        1 3VJ      0.098700
     52 C28         3.3100   -1.6110   -2.8580 c3        1 3VJ     -0.091600
     53 C29         3.0090    0.6600   -1.9120 c3        1 3VJ     -0.091600
     54 H202        0.1970    0.2000    5.0890 hn        1 3VJ      0.465800
     55 H252        1.9340    1.0290    9.4870 hn        1 3VJ      0.482800
     56 CL2         5.4120   -4.2830    1.5100 cl        1 3VJ     -0.059900
@<TRIPOS>BOND
     1    1    2 ar  
     2    1   15 ar  
     3    1   20 1   
     4    2    3 ar  
     5    2   16 1   
     6    3   13 ar  
     7    3   26 1   
     8    4    5 ar  
     9    4   19 ar  
    10    4   27 1   
    11    5    6 ar  
    12    5   50 1   
    13    6    7 ar  
    14    6   28 1   
    15    7    8 ar  
    16    7   56 1   
    17    8   19 ar  
    18    8   29 1   
    19    9   10 1   
    20    9   21 1   
    21    9   30 1   
    22    9   31 1   
    23   10   23 2   
    24   10   24 1   
    25   11   12 1   
    26   11   24 1   
    27   11   32 1   
    28   11   33 1   
    29   12   25 2   
    30   12   43 1   
    31   13   14 ar  
    32   13   49 1   
    33   14   15 ar  
    34   14   44 1   
    35   15   45 1   
    36   16   17 1   
    37   16   18 2   
    38   17   19 1   
    39   17   52 1   
    40   17   53 1   
    41   20   51 1   
    42   21   46 1   
    43   21   49 1   
    44   21   54 1   
    45   22   49 2   
    46   24   47 1   
    47   24   55 1   
    48   25   48 1   
    49   34   51 1   
    50   35   51 1   
    51   36   51 1   
    52   37   52 1   
    53   38   52 1   
    54   39   52 1   
    55   40   53 1   
    56   41   53 1   
    57   42   53 1   
@<TRIPOS>SUBSTRUCTURE
     1 3VJ         1 TEMP              0 ****  ****    0 ROOT
