@<TRIPOS>MOLECULE
3VK
   72    72     1     0     0
SMALL
bcc


@<TRIPOS>ATOM
      1 C1          3.2480   -1.5040    1.7320 ca        1 3VK     -0.045000
      2 C2          3.1670   -1.6850    3.1190 ca        1 3VK      0.042400
      3 C3          2.4650   -0.7580    3.9110 ca        1 3VK     -0.150500
      4 C14         3.4630    4.3310    3.9980 c3        1 3VK      0.067500
      5 C15         3.4290    5.2340    2.7500 c         1 3VK      0.528100
      6 C18         4.9280    4.2120    4.5740 c3        1 3VK     -0.051000
      7 C19         4.8640    3.4410    5.8880 c3        1 3VK     -0.139433
      8 C20         5.8330    3.4980    3.5840 c3        1 3VK     -0.139433
      9 C21         5.4720    5.6010    4.8650 c3        1 3VK     -0.139433
     10 C22         3.5670    7.5350    1.7170 c3        1 3VK      0.024800
     11 C23         4.5830    8.6490    1.9870 c         1 3VK      0.523100
     12 C25         4.7760   11.1500    1.9960 c3        1 3VK      0.107800
     13 C27         3.5520   11.9340    2.4430 c3        1 3VK     -0.082400
     14 C28         2.8040   11.3730    3.6330 c3        1 3VK     -0.350600
     15 C30         0.2290   10.7660    3.7780 c3        1 3VK     -0.415300
     16 C4          1.8630    0.3480    3.3070 ca        1 3VK     -0.252300
     17 C5          1.9450    0.5400    1.9180 ca        1 3VK     -0.150500
     18 C6          2.6390   -0.3860    1.1340 ca        1 3VK      0.042400
     19 CL7         2.7310   -0.1720   -0.5290 cl        1 3VK      0.054600
     20 CL8         3.8860   -3.0150    3.8420 cl        1 3VK      0.054600
     21 C9          1.0380    1.2810    4.1370 c3        1 3VK      0.154800
     22 C10         1.4560    2.7420    3.8790 c         1 3VK      0.528100
     23 N11        -0.4320    1.0780    3.8940 n4        1 3VK     -0.780000
     24 O12         0.7280    3.7220    3.8590 o         1 3VK     -0.407100
     25 N13         2.9310    2.9560    3.6570 n4        1 3VK     -0.673800
     26 N24         4.4710    9.9000    1.1940 n4        1 3VK     -0.663800
     27 O26         5.4760    8.5310    2.8190 o         1 3VK     -0.399100
     28 S29         1.6610   10.1710    3.2630 s6        1 3VK      1.334000
     29 O31         1.7580    9.8910    1.8630 o         1 3VK     -0.750800
     30 O32         2.0680    8.9430    3.8950 o         1 3VK     -0.750800
     31 C33        -0.9840   -0.0680    4.7230 c3        1 3VK      0.125800
     32 C34        -2.4100   -0.3890    4.3390 c3        1 3VK     -0.153100
     33 H1          3.7800   -2.2490    1.1030 ha        1 3VK      0.226000
     34 H2          2.3860   -0.9300    4.9990 ha        1 3VK      0.155500
     35 H3          2.7970    4.7660    4.8070 hx        1 3VK      0.151700
     36 H4          4.6810    2.3490    5.7410 hc        1 3VK      0.081589
     37 H5          4.0940    3.8680    6.5750 hc        1 3VK      0.081589
     38 H6          5.8590    3.5200    6.4080 hc        1 3VK      0.081589
     39 H7          6.9040    3.6310    3.8980 hc        1 3VK      0.081589
     40 H8          5.7240    3.9160    2.5550 hc        1 3VK      0.081589
     41 H9          5.6430    2.3970    3.5580 hc        1 3VK      0.081589
     42 H10         6.4020    5.5020    5.4940 hc        1 3VK      0.081589
     43 H11         4.7500    6.2120    5.4590 hc        1 3VK      0.081589
     44 H12         5.7910    6.1270    3.9310 hc        1 3VK      0.081589
     45 H13         3.9770    6.8840    0.8820 hx        1 3VK      0.186200
     46 H14         2.5680    7.9700    1.3770 hx        1 3VK      0.186200
     47 H15         5.3900   11.8170    1.3110 hx        1 3VK      0.143200
     48 H16         5.4230   10.8670    2.8780 hx        1 3VK      0.143200
     49 H17         3.9520   12.9580    2.7250 hc        1 3VK      0.129200
     50 H18         2.8460   12.1040    1.5820 hc        1 3VK      0.129200
     51 H19         2.3320   12.2650    4.1530 h1        1 3VK      0.166700
     52 H20         3.5460   11.0100    4.4020 h1        1 3VK      0.166700
     53 H21        -0.6540   10.1130    3.5110 h1        1 3VK      0.185700
     54 H22        -0.0580   11.7730    3.3510 h1        1 3VK      0.185700
     55 H23         0.1380   10.9090    4.8940 h1        1 3VK      0.185700
     56 H24         1.4270    1.3810    1.4320 ha        1 3VK      0.155500
     57 H25         1.2220    1.0950    5.2490 hx        1 3VK      0.165700
     58 H26        -0.9630    1.9310    4.1170 hn        1 3VK      0.472300
     59 H28         3.4500    2.2630    4.2330 hn        1 3VK      0.506300
     60 H29         2.3580    6.9620    3.2990 hn        1 3VK      0.515800
     61 H30         5.1510    9.8470    0.4150 hn        1 3VK      0.507300
     62 H31        -0.3150   -0.9600    4.5450 hx        1 3VK      0.117200
     63 H32        -0.9250    0.2400    5.8060 hx        1 3VK      0.117200
     64 H33        -3.1030    0.4700    4.5160 hc        1 3VK      0.107033
     65 H34        -2.7500   -1.2400    4.9940 hc        1 3VK      0.107033
     66 H35        -2.5000   -0.7270    3.2770 hc        1 3VK      0.107033
     67 N16         3.3150    6.7140    2.9500 n4        1 3VK     -0.657800
     68 H112       -0.5830    0.8500    2.8970 hn        1 3VK      0.472300
     69 H132        3.1390    2.7250    2.6640 hn        1 3VK      0.506300
     70 H242        3.5110    9.9850    0.7930 hn        1 3VK      0.507300
     71 H162        3.9690    7.0100    3.7040 hn        1 3VK      0.515800
     72 O17         3.4890    4.8060    1.6050 o         1 3VK     -0.391100
@<TRIPOS>BOND
     1    1    2 ar  
     2    1   18 ar  
     3    1   33 1   
     4    2    3 ar  
     5    2   20 1   
     6    3   16 ar  
     7    3   34 1   
     8    4    5 1   
     9    4    6 1   
    10    4   25 1   
    11    4   35 1   
    12    5   67 1   
    13    5   72 2   
    14    6    7 1   
    15    6    8 1   
    16    6    9 1   
    17    7   36 1   
    18    7   37 1   
    19    7   38 1   
    20    8   39 1   
    21    8   40 1   
    22    8   41 1   
    23    9   42 1   
    24    9   43 1   
    25    9   44 1   
    26   10   11 1   
    27   10   45 1   
    28   10   46 1   
    29   10   67 1   
    30   11   26 1   
    31   11   27 2   
    32   12   13 1   
    33   12   26 1   
    34   12   47 1   
    35   12   48 1   
    36   13   14 1   
    37   13   49 1   
    38   13   50 1   
    39   14   28 1   
    40   14   51 1   
    41   14   52 1   
    42   15   28 1   
    43   15   53 1   
    44   15   54 1   
    45   15   55 1   
    46   16   17 ar  
    47   16   21 1   
    48   17   18 ar  
    49   17   56 1   
    50   18   19 1   
    51   21   22 1   
    52   21   23 1   
    53   21   57 1   
    54   22   24 2   
    55   22   25 1   
    56   23   31 1   
    57   23   58 1   
    58   23   68 1   
    59   25   59 1   
    60   25   69 1   
    61   26   61 1   
    62   26   70 1   
    63   28   29 2   
    64   28   30 2   
    65   31   32 1   
    66   31   62 1   
    67   31   63 1   
    68   32   64 1   
    69   32   65 1   
    70   32   66 1   
    71   60   67 1   
    72   67   71 1   
@<TRIPOS>SUBSTRUCTURE
     1 3VK         1 TEMP              0 ****  ****    0 ROOT
