@<TRIPOS>MOLECULE
3VK
   72    71     1     0     0
SMALL
bcc


@<TRIPOS>ATOM
      1 C1       -310.5770 -884.5700 -211.5960 c2        1 3VK     -0.220000
      2 C2       -310.6540 -885.3220 -212.7820 c2        1 3VK      0.156000
      3 C3       -311.6230 -886.3660 -212.9160 c2        1 3VK     -0.215000
      4 C14       358.6140  206.1750  518.8650 c3        1 3VK      0.083000
      5 C15       359.8970  205.8360  519.7030 c2        1 3VK      0.180000
      6 C18       357.5380  205.1950  519.2800 c2        1 3VK     -0.181000
      7 C19       356.4090  205.8000  520.0270 c3        1 3VK     -0.201000
      8 C20       -10.0450  142.6820   16.3280 c3        1 3VK     -0.266000
      9 C21       357.5640  203.9100  518.9160 c2        1 3VK     -0.160000
     10 C22       360.3660  206.8030  521.9680 c3        1 3VK     -0.226000
     11 C23       359.5830  208.1050  522.0300 c2        1 3VK      0.184000
     12 C25       -95.1060    0.7960 -574.4160 cx        1 3VK     -0.078000
     13 C27       -93.9800    0.2470 -573.5190 cu        1 3VK     -0.069000
     14 C28       -94.9440    0.2550 -573.0790 DU        1 3VK     -0.795000
     15 C30       -96.5580    0.0900 -571.1170 DU        1 3VK     -0.984000
     16 C4       -312.4950 -886.6470 -211.9060 c2        1 3VK      0.021000
     17 C5       -312.4770 -885.8800 -210.6390 c3        1 3VK     -0.203000
     18 C6       -311.4420 -884.8250 -210.5460 c2        1 3VK      0.090000
     19 Cl7      -311.3560 -883.9480 -209.1400 cl        1 3VK      0.198000
     20 Cl8      -309.6160 -885.0080 -214.0350 cl        1 3VK      0.204000
     21 C9       -313.5380 -887.7310 -211.9600 c3        1 3VK     -0.053000
     22 C10      -315.2800 -890.7060 -213.8580 c1        1 3VK      0.451000
     23 N11      -313.8840 -888.3170 -213.2280 n7        1 3VK     -0.358000
     24 O12      -316.2880 -890.9180 -213.3410 o         1 3VK      0.143000
     25 N13       358.8560  206.2200  517.4770 n8        1 3VK     -0.354000
     26 N24       197.5800   66.2840  253.4500 n9        1 3VK     -0.396000
     27 O26       358.4750  208.2190  521.5150 o         1 3VK     -0.252000
     28 S29       -95.4880    0.0300 -571.7750 s6        1 3VK      2.686000
     29 O31       -96.0610    0.0280 -572.5150 os        1 3VK     -0.409000
     30 O32       -94.3520    0.8370 -571.0330 o         1 3VK     -0.725000
     31 C33      -313.1400 -889.4700 -213.6700 c3        1 3VK     -0.063000
     32 C34      -314.0280 -890.4280 -214.5010 c3        1 3VK     -0.176000
     33 H1       -309.8130 -883.7680 -211.5080 ha        1 3VK      0.224000
     34 H2       -311.6310 -886.9330 -213.8640 ha        1 3VK      0.177000
     35 H3        358.3350  207.2230  519.2180 h1        1 3VK      0.163000
     36 H4        355.7980  205.0170  520.5400 hc        1 3VK      0.105333
     37 H5        355.7410  206.3490  519.3120 hc        1 3VK      0.105333
     38 H6        356.7650  206.5390  520.7900 hc        1 3VK      0.105333
     39 H7        -10.5240  142.1850   15.4560 hc        1 3VK      0.066000
     40 H8        -10.6440  143.5710   16.6230 hc        1 3VK      0.066000
     41 H9         -9.9960  141.9690   17.1790 hc        1 3VK      0.066000
     42 H10        -9.0170  143.0020   16.0530 hc        1 3VK      0.066000
     43 H11       356.7550  203.2130  519.1870 ha        1 3VK      0.140500
     44 H12       358.3730  203.4660  518.3180 ha        1 3VK      0.140500
     45 H13       361.3740  207.0000  521.4930 hx        1 3VK      0.174500
     46 H14       360.5420  206.4520  523.0290 hx        1 3VK      0.174500
     47 H15       196.5840   66.2310  253.4280 hn        1 3VK      0.132000
     48 H16       197.9580   65.3660  253.3490 hn        1 3VK      0.132000
     49 H17       -94.9290    0.1310 -575.3000 hc        1 3VK      0.159000
     50 H18       -95.9490    0.4870 -574.6610 hc        1 3VK      0.159000
     51 H19       -93.9740    0.2780 -573.0870 ha        1 3VK      0.156000
     52 H20       -92.9190    0.9370 -573.6990 ha        1 3VK      0.173000
     53 H21       -97.4170    0.3890 -571.7800 ha        1 3VK      0.242500
     54 H22       -96.1220    0.0490 -570.7250 DU        1 3VK      0.243000
     55 H23       -97.0760    0.6550 -570.2070 ha        1 3VK      0.242500
     56 H24      -312.3570 -886.5990 -209.7650 hc        1 3VK      0.211000
     57 H25      -314.5040 -887.2870 -211.5590 h1        1 3VK      0.147500
     58 H26      -313.4980 -885.4000 -210.4820 hc        1 3VK      0.211000
     59 H28       359.5140  206.9030  517.1750 hn        1 3VK      0.211500
     60 H29       358.6780  205.7510  521.3970 hn        1 3VK      0.260500
     61 H30       360.1070  208.9150  522.5820 h4        1 3VK      0.171000
     62 H31      -312.7300 -890.0380 -212.7860 h1        1 3VK      0.132000
     63 H32      -313.2150 -888.5400 -211.2370 h1        1 3VK      0.147500
     64 H33      -314.2490 -889.9850 -215.5230 hc        1 3VK      0.219000
     65 H34      -312.2700 -889.2140 -214.3470 h1        1 3VK      0.132000
     66 H35      -313.4670 -891.4030 -214.6660 hc        1 3VK      0.219000
     67 N16       359.6910  205.7160  521.2100 ny        1 3VK     -0.107000
     68 H112     -313.9900 -887.6300 -213.9500 hn        1 3VK      0.205000
     69 H132      358.9370  205.3420  517.0160 hn        1 3VK      0.211500
     70 H242      197.8930   66.8510  252.6900 hn        1 3VK      0.132000
     71 H162      360.0600  204.8130  521.5270 hn        1 3VK      0.260500
     72 O17       361.0390  205.6730  519.3110 o         1 3VK     -0.187000
@<TRIPOS>BOND
     1    1    2 1   
     2    1   18 1   
     3    1   33 1   
     4    2    3 1   
     5    2   20 1   
     6    3   16 1   
     7    3   34 1   
     8    4    5 1   
     9    4    6 1   
    10    4   25 1   
    11    4   35 1   
    12    5   67 1   
    13    5   72 1   
    14    6    7 1   
    15    6    9 1   
    16    7   36 1   
    17    7   37 1   
    18    7   38 1   
    19    8   39 1   
    20    8   40 1   
    21    8   41 1   
    22    8   42 1   
    23    9   43 1   
    24    9   44 1   
    25   10   11 1   
    26   10   45 1   
    27   10   46 1   
    28   10   67 1   
    29   11   27 1   
    30   11   61 1   
    31   12   13 1   
    32   12   14 1   
    33   12   49 1   
    34   12   50 1   
    35   13   14 1   
    36   13   52 1   
    37   14   28 1   
    38   14   29 1   
    39   14   51 1   
    40   15   28 1   
    41   15   29 1   
    42   15   53 1   
    43   15   54 1   
    44   15   55 1   
    45   16   17 1   
    46   16   21 1   
    47   17   18 1   
    48   17   56 1   
    49   17   58 1   
    50   18   19 1   
    51   21   23 1   
    52   21   57 1   
    53   21   63 1   
    54   22   24 1   
    55   22   32 1   
    56   23   31 1   
    57   23   68 1   
    58   25   59 1   
    59   25   69 1   
    60   26   47 1   
    61   26   48 1   
    62   26   70 1   
    63   28   30 1   
    64   28   54 1   
    65   31   32 1   
    66   31   62 1   
    67   31   65 1   
    68   32   64 1   
    69   32   66 1   
    70   60   67 1   
    71   67   71 1   
@<TRIPOS>SUBSTRUCTURE
     1 3VK         1 TEMP              0 ****  ****    0 ROOT
