@<TRIPOS>MOLECULE
3VM
   69   104     1     0     0
SMALL
bcc


@<TRIPOS>ATOM
      1 C13         0.0000    0.0000    0.0000 c3        1 3VM     -0.334000
      2 C18         1.8490    0.0040    3.7230 DU        1 3VM     -0.051000
      3 C17        -0.7470    0.0150   -3.6870 c2        1 3VM     -0.307000
      4 C16        -0.0280    0.0030    2.4060 c3        1 3VM     -0.032000
      5 C15         0.3560    1.2950   -7.0970 c3        1 3VM     -0.364000
      6 C19         0.4370   -2.3220   -5.5010 c2        1 3VM      0.140000
      7 C20        -0.8210   -3.5670   -7.6170 DU        1 3VM     -0.055000
      8 C21         0.1670   -4.8930   -5.7420 DU        1 3VM      0.398000
      9 C22        -1.2790   -4.8620   -8.2910 DU        1 3VM      0.266000
     10 C23        -0.2910   -6.1880   -6.4170 DU        1 3VM      0.052000
     11 C24        -0.8000   -3.7620   -6.0990 c3        1 3VM      0.330000
     12 C11        -2.7600    0.0080   -2.5560 c2        1 3VM     -0.024000
     13 C12         1.4450    0.0020    2.3920 c2        1 3VM     -0.343000
     14 C1          1.8690    1.4230   -9.4070 c3        1 3VM      0.052000
     15 C2          2.2910    2.0810   -8.2670 c2        1 3VM      0.059000
     16 C3          0.6920    0.6990   -9.3920 c3        1 3VM     -0.126000
     17 C4          2.1170    0.0000    1.1540 c2        1 3VM     -0.081000
     18 C5          1.4070    0.0000    0.0000 c3        1 3VM     -0.327000
     19 C6          1.5340    2.0170   -7.1120 c2        1 3VM      0.382000
     20 C7         -0.0660    0.6350   -8.2360 c2        1 3VM     -0.168000
     21 C8         -2.1230    0.0070   -1.3310 c2        1 3VM      0.006000
     22 C9         -0.7160    0.0020    1.1760 c2        1 3VM     -0.062000
     23 C10        -0.0320    0.0110   -2.5070 c2        1 3VM      0.083000
     24 C14        -0.7260    0.0060   -1.2930 c3        1 3VM      0.393000
     25 C25        -0.3120   -5.9930   -7.9340 DU        1 3VM      0.429000
     26 C26        -0.4660    1.2190   -5.8360 DU        1 3VM     -0.159000
     27 C28        -0.0120    0.0200   -5.0020 DU        1 3VM     -0.574000
     28 N29        -2.0670    0.0110   -3.6790 n7        1 3VM      0.022000
     29 N30         0.7420    0.0040    4.4860 n7        1 3VM     -0.165000
     30 N31        -0.3970    0.0040    3.6750 n7        1 3VM      0.080000
     31 N32         3.1570    0.0030    4.1810 n8        1 3VM     -0.087000
     32 N34        -0.3030   -1.2180   -5.7280 ny        1 3VM     -0.076000
     33 O35         1.5990   -2.5790   -5.2690 o         1 3VM     -0.138000
     34 H2         -0.3690   -4.5260   -7.8410 DU        1 3VM     -0.145000
     35 H3          0.2490   -5.3920   -6.7000 DU        1 3VM      0.076000
     36 H4         -0.3610   -4.2240   -6.4110 DU        1 3VM     -0.368500
     37 H5         -0.4750   -4.7880   -7.5680 DU        1 3VM      0.473000
     38 H6         -0.8760   -4.9090   -7.2870 DU        1 3VM     -0.251000
     39 H7         -1.0820   -5.7630   -7.0230 DU        1 3VM      0.108500
     40 H8         -0.6050   -5.7280   -7.3460 DU        1 3VM     -0.579000
     41 H9         -0.4230   -4.7770   -6.1200 DU        1 3VM     -0.368500
     42 H10        -2.4050   -0.8690   -3.0840 DU        1 3VM      0.201000
     43 H13         1.4370    0.5830   -8.8770 DU        1 3VM      0.131500
     44 H14         1.5190    1.8200   -7.5530 ha        1 3VM     -0.199000
     45 H15         1.5850    1.0950   -9.8600 DU        1 3VM      0.131500
     46 H16         2.2380    0.2910    0.1170 DU        1 3VM      0.350000
     47 H17         1.2980    0.0190   -1.0780 hc        1 3VM      0.243000
     48 H18         1.7440    1.7820   -6.0760 ha        1 3VM      0.124000
     49 H19         0.2470    0.5720   -7.2010 DU        1 3VM      0.240000
     50 H20        -1.4870    0.4100   -2.1100 DU        1 3VM     -0.053000
     51 H21        -0.7520    0.0160    0.0940 DU        1 3VM      0.373000
     52 H22        -0.8840    0.0080   -1.8380 ha        1 3VM     -0.317000
     53 H23        -0.4300   -5.4160   -7.0250 DU        1 3VM      0.108500
     54 H24        -0.0350    0.9250   -4.8860 DU        1 3VM      0.284000
     55 H25        -0.3120    0.2070   -6.1880 DU        1 3VM      0.226000
     56 H26        -0.1730    1.0840   -5.1310 DU        1 3VM      0.284000
     57 H27         0.5340    0.1050    3.5130 DU        1 3VM      0.353000
     58 H28         2.9290    0.0120    3.2060 DU        1 3VM      0.266500
     59 H29         2.2760    0.0030    4.6570 DU        1 3VM      0.266500
     60 H30        -0.3870   -6.7550   -9.1900 DU        1 3VM     -0.328000
     61 H31        -0.3730   -6.6050   -9.2780 DU        1 3VM      0.256000
     62 H33        -0.0330   -2.1310   -6.0380 DU        1 3VM      0.257000
     63 C27        -0.7700   -7.2880   -8.6090 DU        1 3VM      0.438000
     64 N33        -0.6750   -7.1400  -10.0680 nz        1 3VM      0.071000
     65 H11        -0.0360   -6.6950   -8.0770 hx        1 3VM     -0.141500
     66 H12        -0.3310   -6.2980   -8.6400 hx        1 3VM     -0.141500
     67 H342       -1.1130   -1.0730   -5.1580 hn        1 3VM      0.211000
     68 H333        0.1180   -6.6110   -9.7600 DU        1 3VM      0.122000
     69 H1          0.1750   -3.3150   -7.9610 ha        1 3VM      0.080000
@<TRIPOS>BOND
     1    1   18 1   
     2    1   22 1   
     3    1   24 1   
     4    1   51 1   
     5    2   13 1   
     6    2   29 1   
     7    2   31 1   
     8    2   58 1   
     9    2   59 1   
    10    3   23 1   
    11    3   27 1   
    12    3   28 1   
    13    4   13 1   
    14    4   22 1   
    15    4   30 1   
    16    4   57 1   
    17    5   19 1   
    18    5   20 1   
    19    5   26 1   
    20    5   49 1   
    21    6   32 1   
    22    6   33 1   
    23    6   62 1   
    24    7    9 1   
    25    7   11 1   
    26    7   34 1   
    27    7   37 1   
    28    7   69 1   
    29    8   10 1   
    30    8   11 1   
    31    8   35 1   
    32    8   36 1   
    33    8   41 1   
    34    9   25 1   
    35    9   34 1   
    36    9   37 1   
    37    9   38 1   
    38   10   25 1   
    39   10   35 1   
    40   10   39 1   
    41   10   40 1   
    42   10   53 1   
    43   11   36 1   
    44   11   41 1   
    45   12   21 1   
    46   12   28 1   
    47   12   42 1   
    48   13   17 1   
    49   14   15 1   
    50   14   16 1   
    51   14   43 1   
    52   14   45 1   
    53   15   19 1   
    54   15   44 1   
    55   16   20 1   
    56   16   43 1   
    57   16   45 1   
    58   17   18 1   
    59   17   46 1   
    60   18   46 1   
    61   18   47 1   
    62   19   48 1   
    63   20   49 1   
    64   21   24 1   
    65   21   50 1   
    66   22   51 1   
    67   23   24 1   
    68   23   52 1   
    69   24   50 1   
    70   25   37 1   
    71   25   39 1   
    72   25   40 1   
    73   25   53 1   
    74   26   27 1   
    75   26   54 1   
    76   26   55 1   
    77   26   56 1   
    78   27   32 1   
    79   27   54 1   
    80   27   55 1   
    81   27   56 1   
    82   28   42 1   
    83   29   30 1   
    84   29   57 1   
    85   30   57 1   
    86   31   58 1   
    87   31   59 1   
    88   32   62 1   
    89   32   67 1   
    90   34   37 1   
    91   36   41 1   
    92   37   38 1   
    93   39   40 1   
    94   40   53 1   
    95   54   56 1   
    96   60   63 1   
    97   60   64 1   
    98   61   63 1   
    99   61   64 1   
   100   61   68 1   
   101   63   64 1   
   102   63   65 1   
   103   63   66 1   
   104   64   68 1   
@<TRIPOS>SUBSTRUCTURE
     1 3VM         1 TEMP              0 ****  ****    0 ROOT
