@<TRIPOS>MOLECULE
3VO
   34    36     1     0     0
SMALL
bcc


@<TRIPOS>ATOM
      1 C4          0.0150    0.0100    0.0560 ca        1 3VO     -0.162300
      2 N2         -4.4780    0.6330   -0.7750 nz        1 3VO     -0.803600
      3 C7          1.4310    0.0700    0.0350 ca        1 3VO      0.163900
      4 C6          0.1190   -0.1470    2.4940 ca        1 3VO     -0.173000
      5 C9         -0.4480    1.2960   -2.0750 c3        1 3VO     -0.101700
      6 C13         1.5240   -0.0670    2.4570 ca        1 3VO      0.186900
      7 C8         -0.7950    0.0270   -1.2340 c3        1 3VO      0.182500
      8 O1         -0.9830   -1.2300   -3.3470 os        1 3VO     -0.396600
      9 C1         -0.5420   -0.1350   -4.1440 c3        1 3VO      0.116400
     10 C2         -0.9410    1.1850   -3.5110 c3        1 3VO     -0.118400
     11 C3         -0.3890   -1.2400   -2.0660 c3        1 3VO      0.141400
     12 C5         -0.6030   -0.1130    1.3090 ca        1 3VO     -0.075000
     13 C10        -0.9590    2.5600   -1.4230 c3        1 3VO     -0.013300
     14 S1         -2.7250    2.6080   -1.1950 ss        1 3VO     -0.165300
     15 C11        -3.0260    0.9290   -0.9790 c2        1 3VO      0.485100
     16 N1         -2.2320   -0.0830   -0.9740 n2        1 3VO     -0.538900
     17 C12         2.1820    0.0390    1.2240 ca        1 3VO     -0.195000
     18 F1          2.1240    0.1600   -1.1270 f         1 3VO     -0.129900
     19 F2          2.2360   -0.0960    3.6020 f         1 3VO     -0.106900
     20 H1         -4.8140    1.1710    0.0300 hn        1 3VO      0.473133
     21 H2         -4.9870    0.9190   -1.6190 hn        1 3VO      0.473133
     22 H3         -0.3940   -0.2450    3.4630 ha        1 3VO      0.169000
     23 H4          0.6790    1.3700   -2.1120 hc        1 3VO      0.119700
     24 H5         -1.0610   -0.2870   -5.1290 h1        1 3VO      0.073700
     25 H6          0.5700   -0.1900   -4.2880 h1        1 3VO      0.073700
     26 H7         -2.0570    1.2910   -3.5440 hc        1 3VO      0.062200
     27 H8         -0.5060    2.0260   -4.1140 hc        1 3VO      0.062200
     28 H9          0.7300   -1.2590   -2.1490 h1        1 3VO      0.088200
     29 H10        -0.7630   -2.1800   -1.5810 h1        1 3VO      0.088200
     30 H11        -1.6960   -0.2010    1.3960 ha        1 3VO      0.133000
     31 H12        -0.7350    3.4510   -2.0660 h1        1 3VO      0.113200
     32 H13        -0.4660    2.7070   -0.4290 h1        1 3VO      0.113200
     33 H14         3.2820    0.0910    1.1790 ha        1 3VO      0.186000
     34 H23        -4.6430   -0.3700   -0.6080 hn        1 3VO      0.473133
@<TRIPOS>BOND
     1    1    3 ar  
     2    1    7 1   
     3    1   12 ar  
     4    2   15 1   
     5    2   20 1   
     6    2   21 1   
     7    2   34 1   
     8    3   17 ar  
     9    3   18 1   
    10    4    6 ar  
    11    4   12 ar  
    12    4   22 1   
    13    5    7 1   
    14    5   10 1   
    15    5   13 1   
    16    5   23 1   
    17    6   17 ar  
    18    6   19 1   
    19    7   11 1   
    20    7   16 1   
    21    8    9 1   
    22    8   11 1   
    23    9   10 1   
    24    9   24 1   
    25    9   25 1   
    26   10   26 1   
    27   10   27 1   
    28   11   28 1   
    29   11   29 1   
    30   12   30 1   
    31   13   14 1   
    32   13   31 1   
    33   13   32 1   
    34   14   15 1   
    35   15   16 2   
    36   17   33 1   
@<TRIPOS>SUBSTRUCTURE
     1 3VO         1 TEMP              0 ****  ****    0 ROOT
