@<TRIPOS>MOLECULE
3VP
   37    39     1     0     0
SMALL
bcc


@<TRIPOS>ATOM
      1 C4         -0.0350   -0.0130    0.0170 ca        1 3VP      0.164900
      2 N2          5.8570   -0.7630   -0.7510 nz        1 3VP     -0.803600
      3 C7          2.1990   -0.0390   -1.2410 c3        1 3VP      0.182500
      4 C6         -0.1370    0.1170    2.4390 ca        1 3VP      0.187900
      5 C9          1.9200    0.1410   -4.1540 c3        1 3VP      0.091100
      6 C13         4.3990   -1.0120   -0.9780 c2        1 3VP      0.484100
      7 C8          1.8390    1.2450   -2.0680 c3        1 3VP      0.143400
      8 C1          1.2700    0.1480    2.4840 ca        1 3VP     -0.173000
      9 C2          1.9970    0.0940    1.3020 ca        1 3VP     -0.075000
     10 C3          1.3820   -0.0010    0.0460 ca        1 3VP     -0.163300
     11 C5         -0.7910    0.0390    1.2010 ca        1 3VP     -0.194000
     12 F1         -0.8540    0.1650    3.5800 f         1 3VP     -0.105900
     13 F2         -0.7230   -0.0720   -1.1500 f         1 3VP     -0.129900
     14 O1          2.4280    1.2130   -3.3510 os        1 3VP     -0.394600
     15 C10         2.3030   -1.1910   -3.5260 c3        1 3VP     -0.112400
     16 C11         1.8130   -1.2920   -2.0880 c3        1 3VP     -0.101700
     17 C12         2.2870   -2.5750   -1.4440 c3        1 3VP     -0.014300
     18 S1          4.0500   -2.6790   -1.2180 ss        1 3VP     -0.163300
     19 N1          3.6360    0.0230   -0.9710 n2        1 3VP     -0.539900
     20 C14         2.5690    0.3100   -5.5420 c3        1 3VP      0.172900
     21 F3          1.8350    1.1600   -6.3380 f         1 3VP     -0.220300
     22 H12         6.0540    0.2360   -0.5980 hn        1 3VP      0.473467
     23 H13         6.1580   -1.2980    0.0710 hn        1 3VP      0.473467
     24 H1          0.8010    0.2340   -4.2370 h1        1 3VP      0.079700
     25 H6          2.2550    2.1700   -1.5850 h1        1 3VP      0.090700
     26 H7          0.7220    1.3120   -2.1440 h1        1 3VP      0.090700
     27 H3          1.7810    0.2230    3.4560 ha        1 3VP      0.170000
     28 H4          3.0930    0.1440    1.3960 ha        1 3VP      0.132000
     29 H5         -1.8920    0.0260    1.1500 ha        1 3VP      0.187000
     30 H8          1.8470   -2.0240   -4.1250 hc        1 3VP      0.063700
     31 H9          3.4170   -1.3150   -3.5670 hc        1 3VP      0.063700
     32 H2          0.6840   -1.3330   -2.1220 hc        1 3VP      0.121700
     33 H10         2.0340   -3.4560   -2.0920 h1        1 3VP      0.114200
     34 H11         1.7900   -2.7120   -0.4510 h1        1 3VP      0.114200
     35 H14         2.6250   -0.6970   -6.0400 h1        1 3VP      0.057700
     36 H15         3.6070    0.7280   -5.4200 h1        1 3VP      0.057700
     37 H23         6.3730   -1.0830   -1.5790 hn        1 3VP      0.473467
@<TRIPOS>BOND
     1    1   10 ar  
     2    1   11 ar  
     3    1   13 1   
     4    2    6 1   
     5    2   22 1   
     6    2   23 1   
     7    2   37 1   
     8    3    7 1   
     9    3   10 1   
    10    3   16 1   
    11    3   19 1   
    12    4    8 ar  
    13    4   11 ar  
    14    4   12 1   
    15    5   14 1   
    16    5   15 1   
    17    5   20 1   
    18    5   24 1   
    19    6   18 1   
    20    6   19 2   
    21    7   14 1   
    22    7   25 1   
    23    7   26 1   
    24    8    9 ar  
    25    8   27 1   
    26    9   10 ar  
    27    9   28 1   
    28   11   29 1   
    29   15   16 1   
    30   15   30 1   
    31   15   31 1   
    32   16   17 1   
    33   16   32 1   
    34   17   18 1   
    35   17   33 1   
    36   17   34 1   
    37   20   21 1   
    38   20   35 1   
    39   20   36 1   
@<TRIPOS>SUBSTRUCTURE
     1 3VP         1 TEMP              0 ****  ****    0 ROOT
