@<TRIPOS>MOLECULE
3VP
   37    39     1     0     0
SMALL
bcc


@<TRIPOS>ATOM
      1 C4         -0.0370   -0.0100    0.0130 ca        1 3VP      0.164900
      2 N2          5.8550   -0.7670   -0.7440 n4        1 3VP     -0.803600
      3 C7          2.1990   -0.0390   -1.2400 c3        1 3VP      0.182500
      4 C6         -0.1430    0.1190    2.4350 ca        1 3VP      0.187900
      5 C9          1.9260    0.1430   -4.1540 c3        1 3VP      0.091100
      6 C13         4.3980   -1.0150   -0.9740 c2        1 3VP      0.484100
      7 C8          1.8420    1.2460   -2.0680 c3        1 3VP      0.143400
      8 C1          1.2640    0.1480    2.4820 ca        1 3VP     -0.173000
      9 C2          1.9930    0.0930    1.3020 ca        1 3VP     -0.075000
     10 C3          1.3800    0.0000    0.0440 ca        1 3VP     -0.163300
     11 C5         -0.7950    0.0420    1.1960 ca        1 3VP     -0.194000
     12 F1         -0.8620    0.1680    3.5750 f         1 3VP     -0.105900
     13 F2         -0.7230   -0.0690   -1.1550 f         1 3VP     -0.129900
     14 O1          2.4330    1.2140   -3.3500 os        1 3VP     -0.394600
     15 C10         2.3060   -1.1910   -3.5260 c3        1 3VP     -0.112400
     16 C11         1.8140   -1.2920   -2.0890 c3        1 3VP     -0.101700
     17 C12         2.2840   -2.5750   -1.4450 c3        1 3VP     -0.014300
     18 S1          4.0470   -2.6810   -1.2160 ss        1 3VP     -0.163300
     19 N1          3.6360    0.0220   -0.9680 n2        1 3VP     -0.539900
     20 C14         2.5780    0.3110   -5.5410 c3        1 3VP      0.172900
     21 F3          1.8460    1.1620   -6.3380 f         1 3VP     -0.220300
     22 H12         6.3730   -1.0870   -1.5710 hn        1 3VP      0.473467
     23 H13         6.1540   -1.3040    0.0780 hn        1 3VP      0.473467
     24 H1          0.8070    0.2360   -4.2400 h1        1 3VP      0.079700
     25 H6          2.2580    2.1700   -1.5840 h1        1 3VP      0.090700
     26 H7          0.7250    1.3140   -2.1460 h1        1 3VP      0.090700
     27 H3          1.7730    0.2220    3.4560 ha        1 3VP      0.170000
     28 H4          3.0880    0.1420    1.3980 ha        1 3VP      0.132000
     29 H5         -1.8960    0.0310    1.1430 ha        1 3VP      0.187000
     30 H8          3.4200   -1.3160   -3.5650 hc        1 3VP      0.063700
     31 H9          1.8500   -2.0220   -4.1270 hc        1 3VP      0.063700
     32 H2          0.6840   -1.3310   -2.1250 hc        1 3VP      0.121700
     33 H10         2.0320   -3.4550   -2.0930 h1        1 3VP      0.114200
     34 H11         1.7860   -2.7120   -0.4520 h1        1 3VP      0.114200
     35 H14         2.6330   -0.6960   -6.0390 h1        1 3VP      0.057700
     36 H15         3.6150    0.7280   -5.4170 h1        1 3VP      0.057700
     37 H23         6.0530    0.2320   -0.5890 hn        1 3VP      0.473467
@<TRIPOS>BOND
     1    1   10 ar  
     2    1   11 ar  
     3    1   13 1   
     4    2    6 1   
     5    2   22 1   
     6    2   23 1   
     7    2   37 1   
     8    3    7 1   
     9    3   10 1   
    10    3   16 1   
    11    3   19 1   
    12    4    8 ar  
    13    4   11 ar  
    14    4   12 1   
    15    5   14 1   
    16    5   15 1   
    17    5   20 1   
    18    5   24 1   
    19    6   18 1   
    20    6   19 2   
    21    7   14 1   
    22    7   25 1   
    23    7   26 1   
    24    8    9 ar  
    25    8   27 1   
    26    9   10 ar  
    27    9   28 1   
    28   11   29 1   
    29   15   16 1   
    30   15   30 1   
    31   15   31 1   
    32   16   17 1   
    33   16   32 1   
    34   17   18 1   
    35   17   33 1   
    36   17   34 1   
    37   20   21 1   
    38   20   35 1   
    39   20   36 1   
@<TRIPOS>SUBSTRUCTURE
     1 3VP         1 TEMP              0 ****  ****    0 ROOT
