@<TRIPOS>MOLECULE
3VQ
   23    24     1     0     0
SMALL
bcc


@<TRIPOS>ATOM
      1 CAF        -0.1020    0.0000   -0.0020 ca        1 3VQ     -0.222300
      2 CAD         1.2940   -0.0000   -0.0680 ca        1 3VQ     -0.085000
      3 CAC         2.0260   -0.0010    1.1170 ca        1 3VQ     -0.200300
      4 CAE         1.3200   -0.0010    2.3410 ca        1 3VQ      0.410200
      5 NAI        -0.0170   -0.0010    2.4310 nb        1 3VQ     -0.632000
      6 CAL        -0.7270   -0.0000    1.2650 ca        1 3VQ      0.426800
      7 CAN        -2.1790    0.0000    1.3450 cc        1 3VQ     -0.027600
      8 SAJ        -3.1580    0.0110   -0.0170 ss        1 3VQ      0.053200
      9 CAH        -2.9350   -0.0080    2.5180 cd        1 3VQ     -0.149000
     10 CAG        -4.3200   -0.0050    2.2540 cd        1 3VQ      0.005000
     11 CAM        -4.5900    0.0060    0.8710 cc        1 3VQ     -0.312700
     12 CAK        -5.9320    0.0110    0.3950 c         1 3VQ      0.619700
     13 OAB        -6.9990    0.0070    0.9930 o         1 3VQ     -0.427100
     14 NAA        -6.0980    0.0220   -1.1280 n4        1 3VQ     -0.768400
     15 H1         -0.7020    0.0000   -0.9230 ha        1 3VQ      0.136000
     16 H2          1.8030   -0.0000   -1.0440 ha        1 3VQ      0.159000
     17 H3          3.1260   -0.0010    1.1120 ha        1 3VQ      0.168000
     18 H4          1.8610   -0.0020    3.3070 h4        1 3VQ      0.047100
     19 H5         -2.5060   -0.0160    3.5280 ha        1 3VQ      0.213000
     20 H6         -5.0970   -0.0100    3.0290 ha        1 3VQ      0.194000
     21 H7         -5.6640   -0.8090   -1.5350 hn        1 3VQ      0.464133
     22 H8         -5.6610    0.8580   -1.5220 hn        1 3VQ      0.464133
     23 HAA3       -7.0990    0.0260   -1.3590 hn        1 3VQ      0.464133
@<TRIPOS>BOND
     1    1    2 ar  
     2    1    6 ar  
     3    1   15 1   
     4    2    3 ar  
     5    2   16 1   
     6    3    4 ar  
     7    3   17 1   
     8    4    5 ar  
     9    4   18 1   
    10    5    6 ar  
    11    6    7 1   
    12    7    8 1   
    13    7    9 2   
    14    8   11 1   
    15    9   10 1   
    16    9   19 1   
    17   10   11 2   
    18   10   20 1   
    19   11   12 1   
    20   12   13 2   
    21   12   14 1   
    22   14   21 1   
    23   14   22 1   
    24   14   23 1   
@<TRIPOS>SUBSTRUCTURE
     1 3VQ         1 TEMP              0 ****  ****    0 ROOT
