@<TRIPOS>MOLECULE
3VR
   31    32     1     0     0
SMALL
bcc


@<TRIPOS>ATOM
      1 CAA        -0.1020   -0.0770    0.0640 c3        1 3VR      0.076100
      2 NAL         1.3730    0.0060    0.0340 ny        1 3VR     -0.764000
      3 CAI         1.9740    0.0050    1.4150 c3        1 3VR      0.175100
      4 CAM         3.4590    0.0470    1.3340 ca        1 3VR     -0.193300
      5 CAE         4.1410    1.2560    1.5140 ca        1 3VR     -0.104000
      6 CAG         5.5330    1.2840    1.4460 ca        1 3VR     -0.095000
      7 CAD         4.1760   -1.1340    1.1000 ca        1 3VR     -0.104000
      8 CAF         5.5660   -1.1030    1.0320 ca        1 3VR     -0.095000
      9 CAN         6.2490    0.1090    1.1990 ca        1 3VR     -0.048300
     10 CAJ         7.7510    0.1340    1.1270 c3        1 3VR      0.097600
     11 NAO         8.2690   -0.0130   -0.2170 na        1 3VR      0.061400
     12 NAK         7.9250   -1.0150   -1.0480 nc        1 3VR     -0.533800
     13 CAC         8.6330   -0.8340   -2.1890 cd        1 3VR      0.310200
     14 CAB         9.4720    0.3430   -2.0820 cd        1 3VR     -0.285300
     15 CAH         9.2130    0.8490   -0.8040 cc        1 3VR     -0.133300
     16 H1         -0.4970   -0.0690   -0.9890 hx        1 3VR      0.108700
     17 H2         -0.4160   -1.0270    0.5740 hx        1 3VR      0.108700
     18 H3         -0.5170    0.8020    0.6270 hx        1 3VR      0.108700
     19 H4          1.6640    0.8640   -0.4520 hn        1 3VR      0.454800
     20 H6          1.6240   -0.9330    1.9360 hx        1 3VR      0.108700
     21 H7          1.5670    0.9010    1.9650 hx        1 3VR      0.108700
     22 H8          3.5870    2.1850    1.7190 ha        1 3VR      0.140000
     23 H9          6.0660    2.2390    1.5870 ha        1 3VR      0.168500
     24 H10         3.6470   -2.0920    0.9820 ha        1 3VR      0.140000
     25 H11         6.1310   -2.0300    0.8350 ha        1 3VR      0.168500
     26 H12         8.1420    1.1100    1.5360 h1        1 3VR      0.079200
     27 H13         8.1530   -0.7070    1.7670 h1        1 3VR      0.079200
     28 H14         8.5520   -1.5150   -3.0370 h4        1 3VR      0.049100
     29 H15        10.1500    0.7300   -2.8330 ha        1 3VR      0.177000
     30 H16         9.6160    1.7130   -0.2780 h4        1 3VR      0.180000
     31 HAL2        1.7590   -0.7910   -0.4900 hn        1 3VR      0.454800
@<TRIPOS>BOND
     1    1    2 1   
     2    1   16 1   
     3    1   17 1   
     4    1   18 1   
     5    2    3 1   
     6    2   19 1   
     7    2   31 1   
     8    3    4 1   
     9    3   20 1   
    10    3   21 1   
    11    4    5 ar  
    12    4    7 ar  
    13    5    6 ar  
    14    5   22 1   
    15    6    9 ar  
    16    6   23 1   
    17    7    8 ar  
    18    7   24 1   
    19    8    9 ar  
    20    8   25 1   
    21    9   10 1   
    22   10   11 1   
    23   10   26 1   
    24   10   27 1   
    25   11   12 1   
    26   11   15 1   
    27   12   13 2   
    28   13   14 1   
    29   13   28 1   
    30   14   15 2   
    31   14   29 1   
    32   15   30 1   
@<TRIPOS>SUBSTRUCTURE
     1 3VR         1 TEMP              0 ****  ****    0 ROOT
