@<TRIPOS>MOLECULE
3VR
   31    32     1     0     0
SMALL
bcc


@<TRIPOS>ATOM
      1 CAA        -0.1030   -0.0740    0.0650 c3        1 3VR      0.076100
      2 NAL         1.3710    0.0080    0.0330 n4        1 3VR     -0.764000
      3 CAI         1.9750    0.0080    1.4130 c3        1 3VR      0.175100
      4 CAM         3.4600    0.0500    1.3310 ca        1 3VR     -0.193300
      5 CAE         4.1410    1.2580    1.5090 ca        1 3VR     -0.104000
      6 CAG         5.5340    1.2870    1.4390 ca        1 3VR     -0.095000
      7 CAD         4.1760   -1.1310    1.0960 ca        1 3VR     -0.104000
      8 CAF         5.5660   -1.1000    1.0260 ca        1 3VR     -0.095000
      9 CAN         6.2490    0.1110    1.1920 ca        1 3VR     -0.048300
     10 CAJ         7.7510    0.1360    1.1180 c3        1 3VR      0.097600
     11 NAO         8.2680   -0.0120   -0.2270 na        1 3VR      0.061400
     12 NAK         7.9230   -1.0160   -1.0560 nc        1 3VR     -0.533800
     13 CAC         8.6300   -0.8360   -2.1970 cd        1 3VR      0.310200
     14 CAB         9.4660    0.3430   -2.0940 cd        1 3VR     -0.285300
     15 CAH         9.2090    0.8500   -0.8170 cc        1 3VR     -0.133300
     16 H1         -0.5180    0.8040    0.6280 hx        1 3VR      0.108700
     17 H2         -0.4170   -1.0240    0.5770 hx        1 3VR      0.108700
     18 H3         -0.5000   -0.0670   -0.9870 hx        1 3VR      0.108700
     19 H4          1.6620    0.8660   -0.4530 hn        1 3VR      0.454800
     20 H6          1.6250   -0.9300    1.9350 hx        1 3VR      0.108700
     21 H7          1.5680    0.9040    1.9640 hx        1 3VR      0.108700
     22 H8          3.5880    2.1870    1.7140 ha        1 3VR      0.140000
     23 H9          6.0660    2.2410    1.5790 ha        1 3VR      0.168500
     24 H10         3.6460   -2.0900    0.9800 ha        1 3VR      0.140000
     25 H11         6.1310   -2.0280    0.8300 ha        1 3VR      0.168500
     26 H12         8.1430    1.1120    1.5250 h1        1 3VR      0.079200
     27 H13         8.1540   -0.7050    1.7590 h1        1 3VR      0.079200
     28 H14         8.5480   -1.5190   -3.0440 h4        1 3VR      0.049100
     29 H15        10.1430    0.7300   -2.8470 ha        1 3VR      0.177000
     30 H16         9.6120    1.7160   -0.2920 h4        1 3VR      0.180000
     31 HAL2        1.7560   -0.7880   -0.4900 hn        1 3VR      0.454800
@<TRIPOS>BOND
     1    1    2 1   
     2    1   16 1   
     3    1   17 1   
     4    1   18 1   
     5    2    3 1   
     6    2   19 1   
     7    2   31 1   
     8    3    4 1   
     9    3   20 1   
    10    3   21 1   
    11    4    5 ar  
    12    4    7 ar  
    13    5    6 ar  
    14    5   22 1   
    15    6    9 ar  
    16    6   23 1   
    17    7    8 ar  
    18    7   24 1   
    19    8    9 ar  
    20    8   25 1   
    21    9   10 1   
    22   10   11 1   
    23   10   26 1   
    24   10   27 1   
    25   11   12 1   
    26   11   15 1   
    27   12   13 2   
    28   13   14 1   
    29   13   28 1   
    30   14   15 2   
    31   14   29 1   
    32   15   30 1   
@<TRIPOS>SUBSTRUCTURE
     1 3VR         1 TEMP              0 ****  ****    0 ROOT
