@<TRIPOS>MOLECULE
3VS
   24    25     1     0     0
SMALL
bcc


@<TRIPOS>ATOM
      1 CAF         0.0080    0.0020   -0.0290 ca        1 3VS     -0.181500
      2 CAD         1.3900    0.0020   -0.0100 ca        1 3VS     -0.018000
      3 CAL         2.0980   -0.0020    1.2110 ca        1 3VS     -0.260600
      4 CAK         3.5420   -0.0010    1.1220 c         1 3VS      0.582700
      5 OAB         4.2690    0.0010    0.1380 o         1 3VS     -0.430100
      6 NAA         4.3210   -0.0040    2.4340 nz        1 3VS     -0.763400
      7 CAE         1.3710   -0.0050    2.4160 ca        1 3VS     -0.018000
      8 CAG        -0.0090   -0.0050    2.4080 ca        1 3VS     -0.181500
      9 CAM        -0.7370   -0.0010    1.1810 ca        1 3VS      0.153800
     10 NAN        -2.1180   -0.0010    1.1750 na        1 3VS     -0.178000
     11 CAH        -2.9700    0.0000    0.0380 cc        1 3VS     -0.236600
     12 CAC        -4.2760   -0.0000    0.5240 cd        1 3VS      0.343200
     13 NAJ        -4.2710   -0.0010    1.9340 nd        1 3VS     -0.617000
     14 CAI        -2.9930   -0.0020    2.3080 cc        1 3VS      0.429400
     15 H1         -0.5080    0.0050   -1.0050 ha        1 3VS      0.171000
     16 H2          1.9520    0.0050   -0.9630 ha        1 3VS      0.150500
     17 H3          4.0860   -0.8390    2.9770 hn        1 3VS      0.465467
     18 H4          4.0850    0.8270    2.9810 hn        1 3VS      0.465467
     19 H5          1.8750   -0.0080    3.3950 ha        1 3VS      0.150500
     20 H6         -0.5450   -0.0080    3.3720 ha        1 3VS      0.171000
     21 H7         -2.5890    0.0010   -0.9820 h4        1 3VS      0.193000
     22 H8         -5.2150    0.0010   -0.0330 h4        1 3VS      0.070100
     23 H9         -2.6260   -0.0030    3.3400 h5        1 3VS      0.074100
     24 HAA3        5.3290   -0.0040    2.2340 hn        1 3VS      0.465467
@<TRIPOS>BOND
     1    1    2 ar  
     2    1    9 ar  
     3    1   15 1   
     4    2    3 ar  
     5    2   16 1   
     6    3    4 1   
     7    3    7 ar  
     8    4    5 2   
     9    4    6 1   
    10    6   17 1   
    11    6   18 1   
    12    6   24 1   
    13    7    8 ar  
    14    7   19 1   
    15    8    9 ar  
    16    8   20 1   
    17    9   10 1   
    18   10   11 1   
    19   10   14 1   
    20   11   12 2   
    21   11   21 1   
    22   12   13 1   
    23   12   22 1   
    24   13   14 2   
    25   14   23 1   
@<TRIPOS>SUBSTRUCTURE
     1 3VS         1 TEMP              0 ****  ****    0 ROOT
