@<TRIPOS>MOLECULE
3VW
   29    30     1     0     0
SMALL
bcc


@<TRIPOS>ATOM
      1 CAI         0.1830   -0.1120    0.0050 c3        1 3VW     -0.071400
      2 CAG         1.6960    0.0630    0.1200 c3        1 3VW      0.165300
      3 NAK         2.1430    0.2900    1.4790 n3        1 3VW     -0.819200
      4 CAH         1.4390    1.3580    2.1610 c3        1 3VW      0.165300
      5 CAJ        -0.0800    1.2200    2.0930 c3        1 3VW     -0.071400
      6 CAN        -0.5430    1.0610    0.6510 c3        1 3VW     -0.158700
      7 CAL        -2.0380    0.8330    0.6000 c         1 3VW      0.580700
      8 OAA        -2.6050    0.0770    1.3970 o         1 3VW     -0.526100
      9 CAM        -2.8000    1.5710   -0.4330 ca        1 3VW     -0.170600
     10 CAE        -4.1330    1.9170   -0.1690 ca        1 3VW     -0.087000
     11 CAC        -4.8770    2.6160   -1.1170 ca        1 3VW     -0.141500
     12 CAB        -4.3010    2.9640   -2.3390 ca        1 3VW     -0.105000
     13 CAD        -2.9800    2.6090   -2.6120 ca        1 3VW     -0.141500
     14 CAF        -2.2300    1.9170   -1.6630 ca        1 3VW     -0.087000
     15 H1         -0.1330   -1.0640    0.5070 hc        1 3VW      0.059200
     16 H2         -0.0880   -0.1840   -1.0790 hc        1 3VW      0.059200
     17 H3          2.0050    0.9020   -0.5730 h1        1 3VW      0.027950
     18 H4          2.1980   -0.8780   -0.2430 h1        1 3VW      0.027950
     19 H5          3.1300    0.4690    1.4890 hn        1 3VW      0.363800
     20 H7          1.7180    2.3750    1.7520 h1        1 3VW      0.027950
     21 H8          1.7570    1.3280    3.2420 h1        1 3VW      0.027950
     22 H9         -0.5440    2.1330    2.5450 hc        1 3VW      0.059200
     23 H10        -0.4160    0.3310    2.6890 hc        1 3VW      0.059200
     24 H11        -0.2920    2.0040    0.0900 hc        1 3VW      0.061700
     25 H12        -4.5840    1.6220    0.7920 ha        1 3VW      0.143500
     26 H13        -5.9200    2.8900   -0.9010 ha        1 3VW      0.136500
     27 H14        -4.8890    3.5140   -3.0880 ha        1 3VW      0.135000
     28 H15        -2.5280    2.8750   -3.5790 ha        1 3VW      0.136500
     29 H16        -1.1900    1.6330   -1.8910 ha        1 3VW      0.143500
@<TRIPOS>BOND
     1    1    2 1   
     2    1    6 1   
     3    1   15 1   
     4    1   16 1   
     5    2    3 1   
     6    2   17 1   
     7    2   18 1   
     8    3    4 1   
     9    3   19 1   
    10    4    5 1   
    11    4   20 1   
    12    4   21 1   
    13    5    6 1   
    14    5   22 1   
    15    5   23 1   
    16    6    7 1   
    17    6   24 1   
    18    7    8 2   
    19    7    9 1   
    20    9   10 ar  
    21    9   14 ar  
    22   10   11 ar  
    23   10   25 1   
    24   11   12 ar  
    25   11   26 1   
    26   12   13 ar  
    27   12   27 1   
    28   13   14 ar  
    29   13   28 1   
    30   14   29 1   
@<TRIPOS>SUBSTRUCTURE
     1 3VW         1 TEMP              0 ****  ****    0 ROOT
