@<TRIPOS>MOLECULE
3VW
   29    30     1     0     0
SMALL
bcc


@<TRIPOS>ATOM
      1 CAI         0.1770   -0.1170    0.0010 c3        1 3VW     -0.071400
      2 CAG         1.6910    0.0520    0.1120 c3        1 3VW      0.165300
      3 NAK         2.1420    0.2760    1.4710 n7        1 3VW     -0.819200
      4 CAH         1.4440    1.3460    2.1560 c3        1 3VW      0.165300
      5 CAJ        -0.0760    1.2140    2.0910 c3        1 3VW     -0.071400
      6 CAN        -0.5420    1.0580    0.6500 c3        1 3VW     -0.158700
      7 CAL        -2.0390    0.8360    0.6020 c         1 3VW      0.580700
      8 OAA        -2.6070    0.0810    1.4000 o         1 3VW     -0.526100
      9 CAM        -2.8000    1.5780   -0.4290 ca        1 3VW     -0.170600
     10 CAE        -4.1310    1.9280   -0.1620 ca        1 3VW     -0.087000
     11 CAC        -4.8750    2.6320   -1.1070 ca        1 3VW     -0.141500
     12 CAB        -4.3000    2.9790   -2.3300 ca        1 3VW     -0.105000
     13 CAD        -2.9810    2.6190   -2.6070 ca        1 3VW     -0.141500
     14 CAF        -2.2310    1.9230   -1.6600 ca        1 3VW     -0.087000
     15 H1         -0.0970   -0.1860   -1.0830 hc        1 3VW      0.059200
     16 H2         -0.1410   -1.0680    0.5020 hc        1 3VW      0.059200
     17 H3          2.1880   -0.8910   -0.2530 h1        1 3VW      0.027950
     18 H4          2.0020    0.8910   -0.5810 h1        1 3VW      0.027950
     19 H5          3.1300    0.4520    1.4790 hn        1 3VW      0.363800
     20 H7          1.7650    1.3140    3.2350 h1        1 3VW      0.027950
     21 H8          1.7260    2.3630    1.7470 h1        1 3VW      0.027950
     22 H9         -0.5350    2.1280    2.5450 hc        1 3VW      0.059200
     23 H10        -0.4140    0.3250    2.6870 hc        1 3VW      0.059200
     24 H11        -0.2890    2.0010    0.0890 hc        1 3VW      0.061700
     25 H12        -4.5820    1.6340    0.8000 ha        1 3VW      0.143500
     26 H13        -5.9170    2.9090   -0.8890 ha        1 3VW      0.136500
     27 H14        -4.8880    3.5320   -3.0770 ha        1 3VW      0.135000
     28 H15        -2.5300    2.8850   -3.5740 ha        1 3VW      0.136500
     29 H16        -1.1940    1.6370   -1.8900 ha        1 3VW      0.143500
@<TRIPOS>BOND
     1    1    2 1   
     2    1    6 1   
     3    1   15 1   
     4    1   16 1   
     5    2    3 1   
     6    2   17 1   
     7    2   18 1   
     8    3    4 1   
     9    3   19 1   
    10    4    5 1   
    11    4   20 1   
    12    4   21 1   
    13    5    6 1   
    14    5   22 1   
    15    5   23 1   
    16    6    7 1   
    17    6   24 1   
    18    7    8 2   
    19    7    9 1   
    20    9   10 ar  
    21    9   14 ar  
    22   10   11 ar  
    23   10   25 1   
    24   11   12 ar  
    25   11   26 1   
    26   12   13 ar  
    27   12   27 1   
    28   13   14 ar  
    29   13   28 1   
    30   14   29 1   
@<TRIPOS>SUBSTRUCTURE
     1 3VW         1 TEMP              0 ****  ****    0 ROOT
