@<TRIPOS>MOLECULE
3VX
   23    24     1     0     0
SMALL
bcc


@<TRIPOS>ATOM
      1 CAA        -0.1220   -0.1460   -0.2000 c3        1 3VX     -0.179100
      2 CAJ         1.3630   -0.2910    0.0430 c         1 3VX      0.668100
      3 OAB         1.7950   -0.8220    1.0810 o         1 3VX     -0.582100
      4 NAI         2.1920    0.2040   -0.9600 n         1 3VX     -0.477100
      5 CAL         3.5920    0.2050   -1.0030 ca        1 3VX      0.100600
      6 CAF         4.3900   -0.3390    0.0470 ca        1 3VX     -0.133000
      7 CAM         5.7580   -0.2930   -0.0830 ca        1 3VX     -0.039800
      8 CAH         6.8220   -0.7700    0.8260 cc        1 3VX     -0.060200
      9 CAG         8.0350   -0.5110    0.2800 cd        1 3VX     -0.240200
     10 CAK         7.8610    0.1680   -1.0520 c         1 3VX      0.577900
     11 OAC         8.7480    0.5410   -1.8140 o         1 3VX     -0.499100
     12 CAN         6.3840    0.2810   -1.2330 ca        1 3VX     -0.215600
     13 CAE         5.6200    0.8070   -2.2480 ca        1 3VX     -0.026000
     14 CAD         4.2230    0.7700   -2.1340 ca        1 3VX     -0.209000
     15 H1         -0.4240   -0.6950   -1.1250 hc        1 3VX      0.071367
     16 H2         -0.4000    0.9300   -0.3040 hc        1 3VX      0.071367
     17 H3         -0.6680   -0.5790    0.6730 hc        1 3VX      0.071367
     18 H4          1.7400    0.6100   -1.7500 hn        1 3VX      0.317500
     19 H5          3.9260   -0.7860    0.9410 ha        1 3VX      0.182000
     20 H6          6.6010   -1.2510    1.7800 ha        1 3VX      0.155000
     21 H7          9.0230   -0.7300    0.6820 ha        1 3VX      0.164000
     22 H8          6.0880    1.2530   -3.1400 ha        1 3VX      0.150000
     23 H9          3.6240    1.1940   -2.9540 ha        1 3VX      0.133000
@<TRIPOS>BOND
     1    1    2 1   
     2    1   15 1   
     3    1   16 1   
     4    1   17 1   
     5    2    3 2   
     6    2    4 1   
     7    4    5 1   
     8    4   18 1   
     9    5    6 ar  
    10    5   14 ar  
    11    6    7 ar  
    12    6   19 1   
    13    7    8 1   
    14    7   12 ar  
    15    8    9 2   
    16    8   20 1   
    17    9   10 1   
    18    9   21 1   
    19   10   11 2   
    20   10   12 1   
    21   12   13 ar  
    22   13   14 ar  
    23   13   22 1   
    24   14   23 1   
@<TRIPOS>SUBSTRUCTURE
     1 3VX         1 TEMP              0 ****  ****    0 ROOT
