@<TRIPOS>MOLECULE
3VX
   23    24     1     0     0
SMALL
bcc


@<TRIPOS>ATOM
      1 CAA        -0.1220   -0.1530   -0.2000 c3        1 3VX     -0.179100
      2 CAJ         1.3640   -0.2930    0.0450 c         1 3VX      0.668100
      3 OAB         1.7960   -0.8150    1.0870 o         1 3VX     -0.582100
      4 NAI         2.1910    0.1960   -0.9620 ns        1 3VX     -0.477100
      5 CAL         3.5920    0.2010   -1.0050 ca        1 3VX      0.100600
      6 CAF         4.3910   -0.3330    0.0490 ca        1 3VX     -0.133000
      7 CAM         5.7580   -0.2850   -0.0810 ca        1 3VX     -0.039800
      8 CAH         6.8240   -0.7520    0.8320 cc        1 3VX     -0.060200
      9 CAG         8.0360   -0.4950    0.2850 cd        1 3VX     -0.240200
     10 CAK         7.8610    0.1720   -1.0530 c         1 3VX      0.577900
     11 OAC         8.7460    0.5410   -1.8180 o         1 3VX     -0.499100
     12 CAN         6.3840    0.2810   -1.2350 ca        1 3VX     -0.215600
     13 CAE         5.6190    0.7970   -2.2550 ca        1 3VX     -0.026000
     14 CAD         4.2220    0.7570   -2.1400 ca        1 3VX     -0.209000
     15 H1         -0.6670   -0.5820    0.6760 hc        1 3VX      0.071367
     16 H2         -0.4220   -0.7100   -1.1210 hc        1 3VX      0.071367
     17 H3         -0.4020    0.9210   -0.3120 hc        1 3VX      0.071367
     18 H4          1.7390    0.5950   -1.7550 hn        1 3VX      0.317500
     19 H5          3.9270   -0.7740    0.9470 ha        1 3VX      0.182000
     20 H6          6.6030   -1.2260    1.7900 ha        1 3VX      0.155000
     21 H7          9.0250   -0.7080    0.6890 ha        1 3VX      0.164000
     22 H8          6.0860    1.2360   -3.1500 ha        1 3VX      0.150000
     23 H9          3.6210    1.1730   -2.9640 ha        1 3VX      0.133000
@<TRIPOS>BOND
     1    1    2 1   
     2    1   15 1   
     3    1   16 1   
     4    1   17 1   
     5    2    3 2   
     6    2    4 1   
     7    4    5 1   
     8    4   18 1   
     9    5    6 ar  
    10    5   14 ar  
    11    6    7 ar  
    12    6   19 1   
    13    7    8 1   
    14    7   12 ar  
    15    8    9 2   
    16    8   20 1   
    17    9   10 1   
    18    9   21 1   
    19   10   11 2   
    20   10   12 1   
    21   12   13 ar  
    22   13   14 ar  
    23   13   22 1   
    24   14   23 1   
@<TRIPOS>SUBSTRUCTURE
     1 3VX         1 TEMP              0 ****  ****    0 ROOT
