@<TRIPOS>MOLECULE
3W1
   28    29     1     0     0
SMALL
bcc


@<TRIPOS>ATOM
      1 CAH         0.1880   -0.1220    0.0630 cc        1 3W1     -0.126300
      2 CAL         1.5520    0.1690    0.2080 cd        1 3W1     -0.164900
      3 Cl1         2.7440    0.0810   -0.9430 cl        1 3W1     -0.014400
      4 CAG         1.7060    0.5760    1.5940 cd        1 3W1      0.330200
      5 NAK         0.5110    0.5270    2.2250 nc        1 3W1     -0.519800
      6 NAO        -0.3980    0.1260    1.3140 na        1 3W1      0.067400
      7 CAJ        -1.7960   -0.0920    1.6180 c3        1 3W1      0.098600
      8 CAN        -2.0500   -1.2630    2.5300 ca        1 3W1     -0.053300
      9 CAE        -1.6070   -1.2300    3.8580 ca        1 3W1     -0.099500
     10 CAC        -1.8490   -2.3100    4.7020 ca        1 3W1     -0.099500
     11 CAM        -2.5480   -3.4280    4.2270 ca        1 3W1     -0.197300
     12 CAI        -2.7580   -4.6010    5.1170 c3        1 3W1      0.175100
     13 NAA        -3.9460   -4.3890    6.0130 nz        1 3W1     -0.845600
     14 CAD        -2.9990   -3.4600    2.9040 ca        1 3W1     -0.099500
     15 CAF        -2.7470   -2.3810    2.0580 ca        1 3W1     -0.099500
     16 H1         -0.3850   -0.4520   -0.8030 h4        1 3W1      0.189000
     17 H2          2.6240    0.8920    2.0940 h4        1 3W1      0.062100
     18 H3         -2.2100    0.8370    2.1140 h1        1 3W1      0.084200
     19 H4         -2.3340   -0.2430    0.6390 h1        1 3W1      0.084200
     20 H5         -1.0500   -0.3530    4.2330 ha        1 3W1      0.171500
     21 H6         -1.4700   -2.2880    5.7360 ha        1 3W1      0.141000
     22 H7         -1.8610   -4.7660    5.7830 hx        1 3W1      0.114200
     23 H8         -2.9480   -5.5390    4.5190 hx        1 3W1      0.114200
     24 H9         -3.8110   -3.5380    6.5690 hn        1 3W1      0.457800
     25 H10        -4.7930   -4.2730    5.4480 hn        1 3W1      0.457800
     26 H12        -3.5340   -4.3410    2.5150 ha        1 3W1      0.141000
     27 H13        -3.0920   -2.4180    1.0120 ha        1 3W1      0.171500
     28 HAA3       -4.0660   -5.1880    6.6420 hn        1 3W1      0.457800
@<TRIPOS>BOND
     1    1    2 2   
     2    1    6 1   
     3    1   16 1   
     4    2    3 1   
     5    2    4 1   
     6    4    5 2   
     7    4   17 1   
     8    5    6 1   
     9    6    7 1   
    10    7    8 1   
    11    7   18 1   
    12    7   19 1   
    13    8    9 ar  
    14    8   15 ar  
    15    9   10 ar  
    16    9   20 1   
    17   10   11 ar  
    18   10   21 1   
    19   11   12 1   
    20   11   14 ar  
    21   12   13 1   
    22   12   22 1   
    23   12   23 1   
    24   13   24 1   
    25   13   25 1   
    26   13   28 1   
    27   14   15 ar  
    28   14   26 1   
    29   15   27 1   
@<TRIPOS>SUBSTRUCTURE
     1 3W1         1 TEMP              0 ****  ****    0 ROOT
