@<TRIPOS>MOLECULE
3W1
   28    29     1     0     0
SMALL
bcc


@<TRIPOS>ATOM
      1 CAH         0.1930   -0.1470    0.0510 cc        1 3W1     -0.126300
      2 CAL         1.5590    0.1390    0.1930 cd        1 3W1     -0.164900
      3 CL1         2.7490    0.0390   -0.9580 cl        1 3W1     -0.014400
      4 CAG         1.7150    0.5530    1.5770 cd        1 3W1      0.330200
      5 NAK         0.5210    0.5120    2.2090 nc        1 3W1     -0.519800
      6 NAO        -0.3910    0.1100    1.3010 na        1 3W1      0.067400
      7 CAJ        -1.7900   -0.1000    1.6070 c3        1 3W1      0.098600
      8 CAN        -2.0490   -1.2640    2.5270 ca        1 3W1     -0.053300
      9 CAE        -1.6050   -1.2230    3.8550 ca        1 3W1     -0.099500
     10 CAC        -1.8520   -2.2970    4.7060 ca        1 3W1     -0.099500
     11 CAM        -2.5540   -3.4160    4.2390 ca        1 3W1     -0.197300
     12 CAI        -2.7690   -4.5810    5.1360 c3        1 3W1      0.175100
     13 NAA        -3.9570   -4.3600    6.0310 n4        1 3W1     -0.845600
     14 CAD        -3.0060   -3.4540    2.9150 ca        1 3W1     -0.099500
     15 CAF        -2.7490   -2.3820    2.0620 ca        1 3W1     -0.099500
     16 H1         -0.3820   -0.4780   -0.8130 h4        1 3W1      0.189000
     17 H2          2.6350    0.8670    2.0750 h4        1 3W1      0.062100
     18 H3         -2.3290   -0.2550    0.6290 h1        1 3W1      0.084200
     19 H4         -2.1990    0.8340    2.0970 h1        1 3W1      0.084200
     20 H5         -1.0450   -0.3460    4.2240 ha        1 3W1      0.171500
     21 H6         -1.4720   -2.2690    5.7390 ha        1 3W1      0.141000
     22 H7         -1.8730   -4.7450    5.8030 hx        1 3W1      0.114200
     23 H8         -2.9620   -5.5230    4.5440 hx        1 3W1      0.114200
     24 H9         -4.8030   -4.2440    5.4640 hn        1 3W1      0.457800
     25 H10        -3.8190   -3.5050    6.5800 hn        1 3W1      0.457800
     26 H12        -3.5430   -4.3360    2.5330 ha        1 3W1      0.141000
     27 H13        -3.0950   -2.4250    1.0160 ha        1 3W1      0.171500
     28 HAA3       -4.0800   -5.1540    6.6640 hn        1 3W1      0.457800
@<TRIPOS>BOND
     1    1    2 2   
     2    1    6 1   
     3    1   16 1   
     4    2    3 1   
     5    2    4 1   
     6    4    5 2   
     7    4   17 1   
     8    5    6 1   
     9    6    7 1   
    10    7    8 1   
    11    7   18 1   
    12    7   19 1   
    13    8    9 ar  
    14    8   15 ar  
    15    9   10 ar  
    16    9   20 1   
    17   10   11 ar  
    18   10   21 1   
    19   11   12 1   
    20   11   14 ar  
    21   12   13 1   
    22   12   22 1   
    23   12   23 1   
    24   13   24 1   
    25   13   25 1   
    26   13   28 1   
    27   14   15 ar  
    28   14   26 1   
    29   15   27 1   
@<TRIPOS>SUBSTRUCTURE
     1 3W1         1 TEMP              0 ****  ****    0 ROOT
