@<TRIPOS>MOLECULE
3W2
   55    71     1     0     0
SMALL
bcc


@<TRIPOS>ATOM
      1 C6          0.0000    0.0000    0.0000 c3        1 3W2     -0.391000
      2 C9          3.5580    1.2530   -0.6880 c2        1 3W2      0.394000
      3 C8          2.0330    1.2610   -0.7130 c3        1 3W2     -0.276000
      4 C18        -4.1500   -2.3280    1.9470 c2        1 3W2     -0.125000
      5 C16        -2.9150   -0.6380    3.8090 c3        1 3W2      0.025000
      6 C19        -5.0600   -3.0130    1.1580 c2        1 3W2      0.009000
      7 C26         4.1580   -2.2660   -1.1730 c2        1 3W2     -0.444000
      8 C1          1.5310    0.0000    0.0000 DU        1 3W2     -0.245000
      9 C2          2.0400    0.0000    1.4430 DU        1 3W2     -0.261000
     10 C3          1.5570   -1.2690    2.1520 c3        1 3W2     -0.473000
     11 N4          0.0940   -1.3500    2.0290 nx        1 3W2      0.040000
     12 C5         -0.5070   -1.2690    0.6910 c3        1 3W2     -0.390000
     13 O7          1.9990   -1.1820   -0.6630 os        1 3W2     -0.158000
     14 C11        -0.6800   -1.4970    3.1230 c2        1 3W2      0.277000
     15 C12        -2.1490   -1.4940    2.9920 c3        1 3W2     -0.376000
     16 O13        -0.1670   -1.6330    4.2170 o         1 3W2     -0.270000
     17 C14        -2.7500   -2.3320    2.0710 c2        1 3W2     -0.041000
     18 C15        -4.2640   -0.6040    3.7330 c2        1 3W2     -0.157000
     19 C17        -4.9400   -1.4340    2.8100 DU        1 3W2     -0.152000
     20 N20        -6.2870   -2.5940    1.4880 na        1 3W2     -0.155000
     21 N21        -6.2070   -1.6290    2.4990 n2        1 3W2     -0.066000
     22 C22         3.3310   -1.2420   -0.9130 c3        1 3W2     -0.236000
     23 C23         4.1550   -0.0730   -0.9330 c2        1 3W2     -0.247000
     24 N24         5.3730   -0.4560   -1.1910 n2        1 3W2     -0.019000
     25 N25         5.4050   -1.7380   -1.3390 n3        1 3W2      0.449000
     26 C27         6.6100   -2.5170   -1.6390 DU        1 3W2      0.017000
     27 C28         6.6550   -3.7550   -0.7410 c3        1 3W2     -0.313000
     28 C29         6.5840   -2.9510   -3.1060 c3        1 3W2     -0.572500
     29 C30         7.8490   -1.6570   -1.3830 c3        1 3W2     -0.572500
     30 H1          0.9320    0.5040   -0.2250 DU        1 3W2      0.352000
     31 H2         -0.3600    0.0220   -1.0210 hc        1 3W2      0.105000
     32 H3          1.0830    1.1080   -0.2160 DU        1 3W2      0.205000
     33 H4          1.6860    1.2600   -1.7390 hc        1 3W2      0.105000
     34 H5         -2.1740   -0.1870    3.1610 DU        1 3W2      0.190000
     35 H6         -4.5120   -2.3880    1.8520 h4        1 3W2      0.013000
     36 H7          3.1050   -2.4410   -0.9890 DU        1 3W2      0.350000
     37 H8          2.4700   -0.7730    0.8180 ha        1 3W2      0.259500
     38 H9          1.6550    0.8700    1.9610 ha        1 3W2      0.259500
     39 H10         2.3470   -0.6200    1.7950 DU        1 3W2      0.263000
     40 H11         2.0080   -2.1380    1.6870 hx        1 3W2      0.109000
     41 H12         0.2310   -1.2560    1.4840 DU        1 3W2      0.344000
     42 H13        -1.5860   -1.2270    0.7810 hx        1 3W2      0.110000
     43 H14        -1.8950   -2.2680    1.4080 ha        1 3W2      0.209000
     44 H15        -3.6790   -1.2620    3.1020 DU        1 3W2      0.242000
     45 H16        -5.9390   -1.9580    2.1780 DU        1 3W2      0.314000
     46 H17         5.5820   -3.6910   -0.6000 hc        1 3W2      0.126000
     47 H18         7.6240   -4.2310   -0.8300 hc        1 3W2      0.126000
     48 H19         6.4890   -3.4610    0.2880 hc        1 3W2      0.126000
     49 H20         6.2950   -3.5670   -2.2630 DU        1 3W2      0.295500
     50 H21         5.7260   -3.5900   -3.2780 hc        1 3W2      0.141500
     51 H22         7.4910   -3.4950   -3.3380 hc        1 3W2      0.141500
     52 H23         7.3220   -1.8200   -2.3150 DU        1 3W2      0.295500
     53 H24         8.4020   -1.9460   -0.4980 hc        1 3W2      0.141500
     54 H25         8.4520   -1.4920   -2.2680 hc        1 3W2      0.141500
     55 O10         4.2210    2.2480   -0.4830 o         1 3W2     -0.233000
@<TRIPOS>BOND
     1    1    8 1   
     2    1   12 1   
     3    1   30 1   
     4    1   31 1   
     5    2    3 1   
     6    2   23 1   
     7    2   55 1   
     8    3    8 1   
     9    3   32 1   
    10    3   33 1   
    11    4    6 1   
    12    4   17 1   
    13    4   19 1   
    14    5   15 1   
    15    5   18 1   
    16    5   34 1   
    17    5   44 1   
    18    6   20 1   
    19    6   35 1   
    20    7   22 1   
    21    7   25 1   
    22    7   36 1   
    23    8    9 1   
    24    8   13 1   
    25    8   30 1   
    26    8   32 1   
    27    9   10 1   
    28    9   37 1   
    29    9   38 1   
    30    9   39 1   
    31   10   11 1   
    32   10   39 1   
    33   10   40 1   
    34   11   12 1   
    35   11   14 1   
    36   11   41 1   
    37   12   41 1   
    38   12   42 1   
    39   13   22 1   
    40   14   15 1   
    41   14   16 1   
    42   15   17 1   
    43   15   34 1   
    44   17   43 1   
    45   18   19 1   
    46   18   44 1   
    47   19   21 1   
    48   19   44 1   
    49   19   45 1   
    50   20   21 1   
    51   20   45 1   
    52   22   23 1   
    53   22   36 1   
    54   23   24 1   
    55   24   25 1   
    56   25   26 1   
    57   26   27 1   
    58   26   28 1   
    59   26   29 1   
    60   26   49 1   
    61   26   52 1   
    62   27   46 1   
    63   27   47 1   
    64   27   48 1   
    65   28   49 1   
    66   28   50 1   
    67   28   51 1   
    68   29   52 1   
    69   29   53 1   
    70   29   54 1   
    71   30   32 1   
@<TRIPOS>SUBSTRUCTURE
     1 3W2         1 TEMP              0 ****  ****    0 ROOT
