@<TRIPOS>MOLECULE
3W2
   55    57     1     0     0
SMALL
bcc


@<TRIPOS>ATOM
      1 C6          0.0910    0.0280   -0.0340 c3        1 3W2     -0.111900
      2 C9          3.7680    1.2230   -0.2980 c         1 3W2      0.513600
      3 C8          2.2590    1.2550   -0.2460 c3        1 3W2     -0.203400
      4 C18        -3.0510   -3.4400    2.4670 ce        1 3W2     -0.052700
      5 C16        -3.1820    0.1900    2.8990 ce        1 3W2     -0.012000
      6 C19        -3.7780   -4.5450    1.9580 cg        1 3W2      0.184500
      7 C26         4.1650   -2.2840   -1.2540 cc        1 3W2     -0.187300
      8 C1          1.6050   -0.0580    0.1930 c3        1 3W2      0.164800
      9 C2          1.9190   -0.3580    1.6590 c3        1 3W2     -0.111900
     10 C3          1.1240   -1.5560    2.1790 c3        1 3W2      0.085000
     11 N4         -0.3000   -1.4720    1.9220 n         1 3W2     -0.453800
     12 C5         -0.6350   -1.1880    0.5460 c3        1 3W2      0.085000
     13 O7          2.0250   -1.1810   -0.6350 os        1 3W2     -0.294900
     14 C11        -1.1790   -1.2200    2.9710 c         1 3W2      0.659300
     15 C12        -2.6330   -1.0210    2.6580 cf        1 3W2     -0.176200
     16 O13        -0.7800   -1.2270    4.1520 o         1 3W2     -0.590100
     17 C14        -3.3610   -2.1690    2.1590 cf        1 3W2     -0.066000
     18 C15        -4.5530    0.5790    2.7390 ce        1 3W2     -0.292100
     19 C17        -5.5940   -0.2410    2.6840 c1        1 3W2      0.337500
     20 N20        -4.3640   -5.4650    1.5500 n1        1 3W2     -0.366800
     21 N21        -6.5930   -0.9350    2.8490 n2        1 3W2     -0.642800
     22 C22         3.3720   -1.2080   -0.8420 cd        1 3W2     -0.024200
     23 C23         4.2750   -0.0790   -0.7110 cd        1 3W2      0.159800
     24 N24         5.5450   -0.4730   -1.0310 nc        1 3W2     -0.413800
     25 N25         5.4730   -1.7600   -1.3560 na        1 3W2      0.112400
     26 C27         6.6290   -2.5890   -1.7790 c3        1 3W2      0.081700
     27 C28         6.8110   -3.7680   -0.8080 c3        1 3W2     -0.104433
     28 C29         6.3840   -3.1490   -3.1890 c3        1 3W2     -0.104433
     29 C30         7.9370   -1.7870   -1.8050 c3        1 3W2     -0.104433
     30 H1         -0.2800    0.9730    0.4380 hc        1 3W2      0.065450
     31 H2         -0.1190    0.0710   -1.1330 hc        1 3W2      0.065450
     32 H3          1.9300    2.0720    0.4480 hc        1 3W2      0.084200
     33 H4          1.9020    1.5120   -1.2800 hc        1 3W2      0.084200
     34 H5         -2.5240    1.0040    3.2650 ha        1 3W2      0.145000
     35 H6         -2.2110   -3.6930    3.1410 ha        1 3W2      0.170000
     36 H7          3.9210   -3.3170   -1.4860 h4        1 3W2      0.190000
     37 H8          3.0120   -0.5850    1.7660 hc        1 3W2      0.065450
     38 H9          1.6900    0.5520    2.2710 hc        1 3W2      0.065450
     39 H10         1.5000   -2.4860    1.6590 h1        1 3W2      0.068950
     40 H11         1.3010   -1.6650    3.2860 h1        1 3W2      0.068950
     41 H12        -0.3390   -2.0930   -0.0630 h1        1 3W2      0.068950
     42 H13        -1.7450   -1.0380    0.4370 h1        1 3W2      0.068950
     43 H14        -4.2140   -1.9380    1.4940 ha        1 3W2      0.127000
     44 H15        -4.7550    1.6650    2.6970 ha        1 3W2      0.167000
     45 H16        -7.0760   -1.3730    2.0950 hn        1 3W2      0.459400
     46 H17         5.8970   -4.4080   -0.7780 hc        1 3W2      0.052589
     47 H18         7.0300   -3.4010    0.2230 hc        1 3W2      0.052589
     48 H19         7.6710   -4.3880   -1.1580 hc        1 3W2      0.052589
     49 H20         7.2550   -3.7850   -3.4770 hc        1 3W2      0.052589
     50 H21         6.2840   -2.3220   -3.9320 hc        1 3W2      0.052589
     51 H22         5.4600   -3.7750   -3.2180 hc        1 3W2      0.052589
     52 H23         8.7610   -2.4680   -2.1300 hc        1 3W2      0.052589
     53 H24         8.1820   -1.3850   -0.7930 hc        1 3W2      0.052589
     54 H25         7.8710   -0.9360   -2.5240 hc        1 3W2      0.052589
     55 O10         4.4560    2.2140   -0.0470 o         1 3W2     -0.510100
@<TRIPOS>BOND
     1    1    8 1   
     2    1   12 1   
     3    1   30 1   
     4    1   31 1   
     5    2    3 1   
     6    2   23 1   
     7    2   55 2   
     8    3    8 1   
     9    3   32 1   
    10    3   33 1   
    11    4    6 1   
    12    4   17 2   
    13    4   35 1   
    14    5   15 2   
    15    5   18 1   
    16    5   34 1   
    17    6   20 3   
    18    7   22 2   
    19    7   25 1   
    20    7   36 1   
    21    8    9 1   
    22    8   13 1   
    23    9   10 1   
    24    9   37 1   
    25    9   38 1   
    26   10   11 1   
    27   10   39 1   
    28   10   40 1   
    29   11   12 1   
    30   11   14 1   
    31   12   41 1   
    32   12   42 1   
    33   13   22 1   
    34   14   15 1   
    35   14   16 2   
    36   15   17 1   
    37   17   43 1   
    38   18   19 2   
    39   18   44 1   
    40   19   21 2   
    41   21   45 1   
    42   22   23 1   
    43   23   24 2   
    44   24   25 1   
    45   25   26 1   
    46   26   27 1   
    47   26   28 1   
    48   26   29 1   
    49   27   46 1   
    50   27   47 1   
    51   27   48 1   
    52   28   49 1   
    53   28   50 1   
    54   28   51 1   
    55   29   52 1   
    56   29   53 1   
    57   29   54 1   
@<TRIPOS>SUBSTRUCTURE
     1 3W2         1 TEMP              0 ****  ****    0 ROOT
