@<TRIPOS>MOLECULE
3W3
   26    26     1     0     0
SMALL
bcc


@<TRIPOS>ATOM
      1 CAC         0.1230   -0.0120   -0.1310 ca        1 3W3     -0.216500
      2 CAB         1.4960   -0.0800   -0.0520 ca        1 3W3      0.051000
      3 CAA         2.1820   -0.0840    1.1900 ca        1 3W3     -0.636500
      4 SAG         3.7470   -0.2510    1.2700 sy        1 3W3      1.511200
      5 OAL         4.2570   -0.6120    2.4980 o         1 3W3     -0.575300
      6 OAM         4.3750   -0.6050    0.0940 o         1 3W3     -0.575300
      7 NAN         4.2170    1.6410    1.3010 nz        1 3W3     -0.782500
      8 CAF         1.3860   -0.0260    2.3690 ca        1 3W3      0.051000
      9 CAE         0.0170    0.0440    2.3210 ca        1 3W3     -0.216500
     10 CAD        -0.6410    0.0510    1.0580 ca        1 3W3      0.284100
     11 OAH        -1.9850    0.1180    1.1150 os        1 3W3     -0.282900
     12 CAI        -2.7160    0.1000   -0.1410 c3        1 3W3      0.160600
     13 CAJ        -4.1530    0.1550    0.2330 c2        1 3W3     -0.205200
     14 CAK        -5.0790    0.6850   -0.5620 c2        1 3W3     -0.165000
     15 HAC        -0.3730   -0.0180   -1.1140 ha        1 3W3      0.183500
     16 HAB         2.0890   -0.1510   -0.9860 ha        1 3W3      0.168500
     17 HAO         4.8090    1.8690    0.5060 hn        1 3W3      0.449800
     18 HAN         3.4000    2.2400    1.2680 hn        1 3W3      0.449800
     19 HAF         1.8940   -0.0600    3.3530 ha        1 3W3      0.168500
     20 HAE        -0.5930    0.0840    3.2390 ha        1 3W3      0.183500
     21 HAI        -2.3960    0.9850   -0.7530 h1        1 3W3      0.064700
     22 HAJ        -2.4740   -0.8570   -0.6760 h1        1 3W3      0.064700
     23 H1         -4.4000   -0.2910    1.2110 ha        1 3W3      0.155000
     24 HAL        -4.8480    1.1420   -1.5350 ha        1 3W3      0.130500
     25 H2         -6.1440    0.6860   -0.2880 ha        1 3W3      0.130500
     26 HAN3        4.7350    1.8590    2.1490 hn        1 3W3      0.449800
@<TRIPOS>BOND
     1    1    2 ar  
     2    1   10 ar  
     3    1   15 1   
     4    2    3 ar  
     5    2   16 1   
     6    3    4 1   
     7    3    8 ar  
     8    4    5 2   
     9    4    6 2   
    10    4    7 1   
    11    7   17 1   
    12    7   18 1   
    13    7   26 1   
    14    8    9 ar  
    15    8   19 1   
    16    9   10 ar  
    17    9   20 1   
    18   10   11 1   
    19   11   12 1   
    20   12   13 1   
    21   12   21 1   
    22   12   22 1   
    23   13   14 2   
    24   13   23 1   
    25   14   24 1   
    26   14   25 1   
@<TRIPOS>SUBSTRUCTURE
     1 3W3         1 TEMP              0 ****  ****    0 ROOT
