@<TRIPOS>MOLECULE
3W3
   26    26     1     0     0
SMALL
bcc


@<TRIPOS>ATOM
      1 CAC         0.1290    0.0140   -0.1410 ca        1 3W3     -0.216500
      2 CAB         1.5020   -0.0530   -0.0570 ca        1 3W3      0.051000
      3 CAA         2.1810   -0.0920    1.1890 ca        1 3W3     -0.636500
      4 SAG         3.7460   -0.2560    1.2720 sy        1 3W3      1.511200
      5 OAL         4.2510   -0.6520    2.4920 o         1 3W3     -0.575300
      6 OAM         4.3810   -0.5740    0.0890 o         1 3W3     -0.575300
      7 NAN         4.2100    1.6350    1.3610 n4        1 3W3     -0.782500
      8 CAF         1.3790   -0.0710    2.3650 ca        1 3W3      0.051000
      9 CAE         0.0100   -0.0030    2.3120 ca        1 3W3     -0.216500
     10 CAD        -0.6420    0.0390    1.0460 ca        1 3W3      0.284100
     11 OAH        -1.9860    0.1010    1.0970 os        1 3W3     -0.282900
     12 CAI        -2.7100    0.1180   -0.1630 c3        1 3W3      0.160600
     13 CAJ        -4.1500    0.1580    0.2050 c2        1 3W3     -0.205200
     14 CAK        -5.0730    0.7090   -0.5790 c2        1 3W3     -0.165000
     15 HAC        -0.3620    0.0340   -1.1260 ha        1 3W3      0.183500
     16 HAB         2.0990   -0.0950   -0.9890 ha        1 3W3      0.168500
     17 HAO         3.3910    2.2320    1.3410 hn        1 3W3      0.449800
     18 HAN         4.7230    1.8290    2.2180 hn        1 3W3      0.449800
     19 HAF         1.8810   -0.1320    3.3500 ha        1 3W3      0.168500
     20 HAE        -0.6050    0.0080    3.2270 ha        1 3W3      0.183500
     21 HAI        -2.3900    1.0210   -0.7460 h1        1 3W3      0.064700
     22 HAJ        -2.4630   -0.8230   -0.7240 h1        1 3W3      0.064700
     23 H1         -4.4010   -0.3170    1.1690 ha        1 3W3      0.155000
     24 HAL        -4.8390    1.1950   -1.5360 ha        1 3W3      0.130500
     25 H2         -6.1390    0.6990   -0.3110 ha        1 3W3      0.130500
     26 HAN3        4.8050    1.8880    0.5760 hn        1 3W3      0.449800
@<TRIPOS>BOND
     1    1    2 ar  
     2    1   10 ar  
     3    1   15 1   
     4    2    3 ar  
     5    2   16 1   
     6    3    4 1   
     7    3    8 ar  
     8    4    5 2   
     9    4    6 2   
    10    4    7 1   
    11    7   17 1   
    12    7   18 1   
    13    7   26 1   
    14    8    9 ar  
    15    8   19 1   
    16    9   10 ar  
    17    9   20 1   
    18   10   11 1   
    19   11   12 1   
    20   12   13 1   
    21   12   21 1   
    22   12   22 1   
    23   13   14 2   
    24   13   23 1   
    25   14   24 1   
    26   14   25 1   
@<TRIPOS>SUBSTRUCTURE
     1 3W3         1 TEMP              0 ****  ****    0 ROOT
