@<TRIPOS>MOLECULE
3W4
   66    69     1     0     0
SMALL
bcc


@<TRIPOS>ATOM
      1 C1          0.0000    0.0000    0.0000 ca        1 3W4     -0.075500
      2 C2          1.3790    0.0000    0.0000 ca        1 3W4     -0.125500
      3 C3          2.0750    0.0000    1.2020 ca        1 3W4      0.049000
      4 C4          1.3860   -0.0010    2.4080 ca        1 3W4     -0.125500
      5 C5          0.0070   -0.0020    2.4160 ca        1 3W4     -0.075500
      6 C6         -0.6960   -0.0010    1.2100 ca        1 3W4      0.035000
      7 C7         -2.1280   -0.0010    1.2150 c1        1 3W4     -0.138000
      8 C8         -3.3010   -0.0210    1.2250 c1        1 3W4     -0.177000
      9 C9         -4.8080    0.1110    1.4710 c3        1 3W4      0.288000
     10 C10        -5.1510    1.0060    0.5690 c3        1 3W4     -0.143000
     11 N1         -5.9480    2.3920    0.9920 n2        1 3W4     -0.183000
     12 C11        -5.1750    3.0080    2.2680 c3        1 3W4     -0.093000
     13 C12        -4.5260    2.0970    3.3450 c3        1 3W4     -0.123000
     14 C13        -4.8210    0.6120    3.1090 c3        1 3W4     -0.025000
     15 C14        -6.3670    0.8200    3.1630 c3        1 3W4     -0.189000
     16 C15        -7.3790    1.6760    1.9820 c2        1 3W4     -0.049000
     17 O1         -5.3900   -1.2480    1.5560 oh        1 3W4     -0.272000
     18 O2          3.3850   -0.0480    1.3520 os        1 3W4     -0.136000
     19 C16         3.9700   -1.2990    0.6970 ca        1 3W4      0.140000
     20 C17         4.0120   -1.0550   -0.9870 ca        1 3W4     -0.098500
     21 C18         4.4820   -2.0120   -1.7400 ca        1 3W4     -0.064000
     22 C19         4.9360   -3.2380   -0.9940 ca        1 3W4     -0.294000
     23 C20         4.8910   -3.4220    0.4300 ca        1 3W4     -0.064000
     24 C21         4.3160   -2.1920    1.0590 ca        1 3W4     -0.098500
     25 C22         5.1700   -4.6450   -2.0000 c2        1 3W4      0.237000
     26 O3          4.8470   -4.4770   -2.8440 o         1 3W4     -0.042000
     27 N2          5.4490   -5.7200   -1.2680 ny        1 3W4      0.642000
     28 C23         5.6100   -6.7170   -2.0610 c3        1 3W4     -0.420000
     29 C24         4.4720   -7.8890   -1.6050 c3        1 3W4     -0.180000
     30 C25         5.2710   -8.8950   -0.3560 c3        1 3W4     -0.029000
     31 C26         6.6530   -9.2200   -0.6020 c3        1 3W4     -0.654000
     32 S1          7.5520   -7.8590   -0.8750 s6        1 3W4      2.367000
     33 O4          7.3980   -7.0260   -0.0090 o         1 3W4     -0.870500
     34 O5          8.9890   -8.5430   -1.0900 o         1 3W4     -0.870500
     35 C27         6.9890   -7.2440   -2.5820 c3        1 3W4     -0.440000
     36 H1         -0.6600    0.0370   -0.8590 ha        1 3W4      0.125500
     37 H2          1.9460    0.2790   -0.8800 ha        1 3W4      0.119000
     38 H4          1.9370   -0.0510    3.3390 ha        1 3W4      0.119000
     39 H5         -0.7500    0.3900    3.0830 ha        1 3W4      0.125500
     40 H101       -5.7930    0.6180   -0.2120 h1        1 3W4      0.080500
     41 H102       -4.2630    1.2180   -0.0150 h1        1 3W4      0.080500
     42 H13        -4.7940    0.0750    4.0500 hc        1 3W4      0.121000
     43 HA         -5.6190   -1.1380    0.6480 ho        1 3W4      0.189000
     44 H111       -4.3390    3.4410    1.7330 h1        1 3W4      0.054000
     45 H112       -5.7360    3.8540    2.6460 h1        1 3W4      0.054000
     46 H151       -7.6810    1.2510    1.0330 ha        1 3W4      0.091500
     47 H152       -7.7570    2.5590    2.4840 ha        1 3W4      0.091500
     48 H121       -3.4540    1.9840    3.2360 hc        1 3W4      0.074500
     49 H122       -4.8630    2.7680    4.1260 hc        1 3W4      0.074500
     50 H141       -6.8360    1.2340    4.0480 hc        1 3W4      0.050500
     51 H142       -7.0510   -0.0140    3.0710 hc        1 3W4      0.050500
     52 H17         3.5510   -0.1480   -1.3590 ha        1 3W4      0.132500
     53 H21         4.7070   -2.2330    2.0690 ha        1 3W4      0.132500
     54 H18         4.1870   -2.3120   -2.7380 ha        1 3W4      0.119500
     55 H20         5.2250   -4.3730    0.8270 ha        1 3W4      0.119500
     56 HB          6.3200   -5.5580   -0.8030 hn        1 3W4      0.098500
     57 H23         5.2400   -6.4560   -3.0460 hx        1 3W4      0.134000
     58 H241        3.4270   -7.6100   -1.5550 hc        1 3W4      0.094500
     59 H242        4.3430   -8.5830   -2.4270 hc        1 3W4      0.094500
     60 H271        7.5480   -6.3170   -2.5420 h1        1 3W4      0.142500
     61 H272        7.3320   -8.0970   -3.1550 h1        1 3W4      0.142500
     62 H251        5.1330   -8.0960    0.3640 hc        1 3W4      0.067500
     63 H252        4.4960   -9.5960   -0.0740 hc        1 3W4      0.067500
     64 H261        6.6600   -9.7190    0.3600 h1        1 3W4      0.173500
     65 H262        6.7650  -10.0260   -1.3170 h1        1 3W4      0.173500
     66 H22         4.7290   -5.8960   -0.5960 hn        1 3W4      0.098500
@<TRIPOS>BOND
     1    1    2 1   
     2    1    6 1   
     3    1   36 1   
     4    2    3 1   
     5    2   37 1   
     6    3    4 1   
     7    3   18 1   
     8    4    5 1   
     9    4   38 1   
    10    5    6 1   
    11    5   39 1   
    12    6    7 1   
    13    7    8 1   
    14    8    9 1   
    15    9   10 1   
    16    9   14 1   
    17    9   17 1   
    18   10   11 1   
    19   10   40 1   
    20   10   41 1   
    21   11   12 1   
    22   12   13 1   
    23   12   44 1   
    24   12   45 1   
    25   13   14 1   
    26   13   48 1   
    27   13   49 1   
    28   14   15 1   
    29   14   42 1   
    30   15   16 1   
    31   15   50 1   
    32   15   51 1   
    33   16   46 1   
    34   16   47 1   
    35   17   43 1   
    36   18   19 1   
    37   19   20 1   
    38   19   24 1   
    39   20   21 1   
    40   20   52 1   
    41   21   22 1   
    42   21   54 1   
    43   22   23 1   
    44   22   25 1   
    45   23   24 1   
    46   23   55 1   
    47   24   53 1   
    48   25   26 1   
    49   25   27 1   
    50   27   28 1   
    51   27   56 1   
    52   27   66 1   
    53   28   29 1   
    54   28   35 1   
    55   28   57 1   
    56   29   30 1   
    57   29   58 1   
    58   29   59 1   
    59   30   31 1   
    60   30   62 1   
    61   30   63 1   
    62   31   32 1   
    63   31   64 1   
    64   31   65 1   
    65   32   33 1   
    66   32   34 1   
    67   32   35 1   
    68   35   60 1   
    69   35   61 1   
@<TRIPOS>SUBSTRUCTURE
     1 3W4         1 TEMP              0 ****  ****    0 ROOT
