@<TRIPOS>MOLECULE
3W4
   65    69     1     0     0
SMALL
bcc


@<TRIPOS>ATOM
      1 C1          3.0540   -0.5300   -0.5230 ca        1 3W4     -0.087000
      2 C2          1.8130   -0.0330   -0.9090 ca        1 3W4     -0.153000
      3 C3          1.6670    1.3420   -1.1310 ca        1 3W4      0.105100
      4 C4          2.7460    2.2240   -0.9700 ca        1 3W4     -0.153000
      5 C5          3.9830    1.7140   -0.5880 ca        1 3W4     -0.087000
      6 C6          4.1470    0.3370   -0.3590 ca        1 3W4      0.009000
      7 C7          5.3990   -0.1720    0.0310 cg        1 3W4     -0.102000
      8 C8          6.4660   -0.6060    0.3640 c1        1 3W4     -0.140100
      9 C9          7.7520   -1.1350    0.7700 c3        1 3W4      0.203900
     10 C10         8.6940    0.0180    1.2650 c3        1 3W4      0.118800
     11 N1          9.9440    0.0880    0.5040 n3        1 3W4     -0.660600
     12 C11        10.6460   -1.1990    0.6310 c3        1 3W4      0.133800
     13 C12         9.8090   -2.3830    0.1140 c3        1 3W4     -0.107900
     14 C13         8.4700   -1.8570   -0.4050 c3        1 3W4     -0.046700
     15 C14         8.7430   -0.8240   -1.4970 c3        1 3W4     -0.107900
     16 C15         9.6200    0.3000   -0.9160 c3        1 3W4      0.133800
     17 O1          7.5920   -2.1080    1.8000 oh        1 3W4     -0.583800
     18 O2          0.4950    1.9010   -1.6340 os        1 3W4     -0.246200
     19 C16        -0.7010    1.4750   -1.0730 ca        1 3W4      0.135100
     20 C17        -0.8190    0.9800    0.2310 ca        1 3W4     -0.173500
     21 C18        -2.0810    0.6560    0.7210 ca        1 3W4     -0.063500
     22 C19        -3.2160    0.8150   -0.0850 ca        1 3W4     -0.169600
     23 C20        -3.0870    1.3230   -1.3820 ca        1 3W4     -0.063500
     24 C21        -1.8330    1.6530   -1.8870 ca        1 3W4     -0.173500
     25 C22        -4.5380    0.4600    0.5030 c         1 3W4      0.679700
     26 O3         -4.7850    0.6380    1.7120 o         1 3W4     -0.595100
     27 N2         -5.4770   -0.1030   -0.3430 n         1 3W4     -0.572900
     28 C23        -6.8020   -0.4680    0.0920 c3        1 3W4      0.143700
     29 C24        -7.0280   -1.9920    0.0490 c3        1 3W4     -0.111400
     30 C25        -8.3720   -2.3540    0.6420 c3        1 3W4     -0.049400
     31 C26        -9.5150   -1.7540   -0.1430 c3        1 3W4     -0.322600
     32 S1         -9.4930   -0.0510   -0.1970 s6        1 3W4      1.330000
     33 O4         -9.6740    0.4790    1.0840 o         1 3W4     -0.647300
     34 O5        -10.3710    0.3780   -1.2030 o         1 3W4     -0.647300
     35 C27        -7.8950    0.2180   -0.7410 c3        1 3W4     -0.339600
     36 H1          3.1810   -1.6090   -0.3480 ha        1 3W4      0.146500
     37 H2          0.9540   -0.7070   -1.0410 ha        1 3W4      0.153500
     38 H4          2.6070    3.2990   -1.1560 ha        1 3W4      0.153500
     39 H5          4.8380    2.3950   -0.4620 ha        1 3W4      0.146500
     40 H101        8.1710    1.0070    1.1780 h1        1 3W4      0.066200
     41 H102        8.9440   -0.1620    2.3460 h1        1 3W4      0.066200
     42 H13         7.8330   -2.6930   -0.7810 hc        1 3W4      0.075700
     43 HA          7.1070   -1.6840    2.5190 ho        1 3W4      0.407000
     44 H111       11.6100   -1.1260    0.0570 h1        1 3W4      0.056450
     45 H112       10.9000   -1.3520    1.7140 h1        1 3W4      0.056450
     46 H151        9.0930    1.2880   -1.0100 h1        1 3W4      0.056450
     47 H152       10.5860    0.3700   -1.4840 h1        1 3W4      0.056450
     48 H121       10.3490   -2.9100   -0.7110 hc        1 3W4      0.054950
     49 H122        9.6280   -3.1170    0.9390 hc        1 3W4      0.054950
     50 H141        9.2650   -1.3180   -2.3530 hc        1 3W4      0.054950
     51 H142        7.7790   -0.4040   -1.8780 hc        1 3W4      0.054950
     52 H17         0.0740    0.8580    0.8620 ha        1 3W4      0.156500
     53 H21        -1.7170    2.0610   -2.9010 ha        1 3W4      0.156500
     54 H18        -2.1990    0.2870    1.7530 ha        1 3W4      0.149500
     55 H20        -3.9730    1.4870   -2.0140 ha        1 3W4      0.149500
     56 HB         -5.2460   -0.2700   -1.2920 hn        1 3W4      0.310500
     57 H23        -6.9150   -0.1220    1.1690 h1        1 3W4      0.110700
     58 H241       -6.9620   -2.3610   -1.0070 hc        1 3W4      0.057700
     59 H242       -6.2230   -2.5030    0.6390 hc        1 3W4      0.057700
     60 H271       -7.6960    1.3260   -0.7360 h1        1 3W4      0.118200
     61 H272       -7.7910   -0.0980   -1.8130 h1        1 3W4      0.118200
     62 H251       -8.4740   -3.4710    0.6570 hc        1 3W4      0.064700
     63 H252       -8.4270   -2.0010    1.7080 hc        1 3W4      0.064700
     64 H261       -9.5140   -2.1900   -1.1780 h1        1 3W4      0.118700
     65 H262      -10.4780   -2.1070    0.3200 h1        1 3W4      0.118700
@<TRIPOS>BOND
     1    1    2 ar  
     2    1    6 ar  
     3    1   36 1   
     4    2    3 ar  
     5    2   37 1   
     6    3    4 ar  
     7    3   18 1   
     8    4    5 ar  
     9    4   38 1   
    10    5    6 ar  
    11    5   39 1   
    12    6    7 1   
    13    7    8 3   
    14    8    9 1   
    15    9   10 1   
    16    9   14 1   
    17    9   17 1   
    18   10   11 1   
    19   10   40 1   
    20   10   41 1   
    21   11   12 1   
    22   11   16 1   
    23   12   13 1   
    24   12   44 1   
    25   12   45 1   
    26   13   14 1   
    27   13   48 1   
    28   13   49 1   
    29   14   15 1   
    30   14   42 1   
    31   15   16 1   
    32   15   50 1   
    33   15   51 1   
    34   16   46 1   
    35   16   47 1   
    36   17   43 1   
    37   18   19 1   
    38   19   20 ar  
    39   19   24 ar  
    40   20   21 ar  
    41   20   52 1   
    42   21   22 ar  
    43   21   54 1   
    44   22   23 ar  
    45   22   25 1   
    46   23   24 ar  
    47   23   55 1   
    48   24   53 1   
    49   25   26 2   
    50   25   27 1   
    51   27   28 1   
    52   27   56 1   
    53   28   29 1   
    54   28   35 1   
    55   28   57 1   
    56   29   30 1   
    57   29   58 1   
    58   29   59 1   
    59   30   31 1   
    60   30   62 1   
    61   30   63 1   
    62   31   32 1   
    63   31   64 1   
    64   31   65 1   
    65   32   33 2   
    66   32   34 2   
    67   32   35 1   
    68   35   60 1   
    69   35   61 1   
@<TRIPOS>SUBSTRUCTURE
     1 3W4         1 TEMP              0 ****  ****    0 ROOT
