@<TRIPOS>MOLECULE
3W4
   66    70     1     0     0
SMALL
bcc


@<TRIPOS>ATOM
      1 C1         -0.7260    0.3270    0.8540 ca        1 3W4     -0.103500
      2 C2          0.5180    0.0920    1.4340 ca        1 3W4     -0.121500
      3 C3          0.7580   -1.1490    2.0330 ca        1 3W4      0.037100
      4 C4         -0.2130   -2.1560    2.0620 ca        1 3W4     -0.121500
      5 C5         -1.4530   -1.9090    1.4810 ca        1 3W4     -0.103500
      6 C6         -1.7200   -0.6670    0.8760 ca        1 3W4      0.064000
      7 C7         -2.9770   -0.4230    0.2950 cg        1 3W4     -0.148000
      8 C8         -4.0480   -0.2170   -0.2030 c1        1 3W4     -0.082100
      9 C9         -5.3480    0.0210   -0.8020 c3        1 3W4      0.190900
     10 C10        -5.2170    0.1860   -2.3570 c3        1 3W4      0.119800
     11 N1         -5.7300    1.4740   -2.8280 n3        1 3W4     -0.655600
     12 C11        -4.9850    2.5530   -2.1620 c3        1 3W4      0.132300
     13 C12        -5.1120    2.4980   -0.6280 c3        1 3W4     -0.108400
     14 C13        -6.0020    1.3170   -0.2440 c3        1 3W4     -0.045700
     15 C14        -7.3590    1.4880   -0.9270 c3        1 3W4     -0.108400
     16 C15        -7.1480    1.5870   -2.4480 c3        1 3W4      0.132300
     17 O1         -6.2370   -1.0450   -0.4830 oh        1 3W4     -0.577800
     18 O2          2.0610   -1.4320    2.4750 os        1 3W4     -0.214200
     19 C16         2.3020   -1.3180    3.8170 ca        1 3W4      0.222100
     20 C17         1.3390   -0.9290    4.7710 ca        1 3W4     -0.185000
     21 C18         1.6940   -0.8390    6.1050 ca        1 3W4     -0.024500
     22 C19         3.0070   -1.1330    6.5160 ca        1 3W4     -0.266600
     23 C20         3.9620   -1.5330    5.5540 ca        1 3W4     -0.024500
     24 C21         3.6220   -1.6240    4.2170 ca        1 3W4     -0.185000
     25 C22         3.4680   -1.0730    7.8930 c         1 3W4      0.580700
     26 O3          4.5190   -1.4920    8.3610 o         1 3W4     -0.441100
     27 N2          2.5320   -0.3850    8.8810 n4        1 3W4     -0.677800
     28 C23         3.1580   -0.0590   10.2140 c3        1 3W4      0.167500
     29 C24         3.2080   -1.2900   11.1310 c3        1 3W4     -0.109400
     30 C25         3.9560   -0.9540   12.4060 c3        1 3W4     -0.047400
     31 C26         3.2990    0.1650   13.1800 c3        1 3W4     -0.347600
     32 S1          3.2240    1.6370   12.3470 s6        1 3W4      1.340000
     33 O4          4.4900    2.0610   11.9560 o         1 3W4     -0.616800
     34 O5          2.3530    2.5150   12.9760 o         1 3W4     -0.616800
     35 C27         2.4120    1.0700   10.8970 c3        1 3W4     -0.327600
     36 H1         -0.9300    1.2950    0.3700 ha        1 3W4      0.158000
     37 H2          1.3080    0.8580    1.4050 ha        1 3W4      0.155000
     38 H4          0.0100   -3.1320    2.5180 ha        1 3W4      0.155000
     39 H5         -2.2280   -2.6910    1.4870 ha        1 3W4      0.158000
     40 H101       -4.1410    0.0990   -2.6650 h1        1 3W4      0.069200
     41 H102       -5.8010   -0.6340   -2.8560 h1        1 3W4      0.069200
     42 H13        -6.1220    1.2350    0.8640 hc        1 3W4      0.074700
     43 HA         -5.8870   -1.8430   -0.8980 ho        1 3W4      0.408000
     44 H111       -3.9050    2.4720   -2.4630 h1        1 3W4      0.060950
     45 H112       -5.3760    3.5330   -2.5470 h1        1 3W4      0.060950
     46 H151       -7.7150    0.7690   -2.9700 h1        1 3W4      0.060950
     47 H152       -7.5310    2.5710   -2.8310 h1        1 3W4      0.060950
     48 H121       -5.5670    3.4460   -0.2440 hc        1 3W4      0.055450
     49 H122       -4.1020    2.3890   -0.1600 hc        1 3W4      0.055450
     50 H141       -7.8570    2.4130   -0.5430 hc        1 3W4      0.055450
     51 H142       -8.0130    0.6130   -0.6840 hc        1 3W4      0.055450
     52 H17         0.3100   -0.7040    4.4460 ha        1 3W4      0.182000
     53 H21         4.3610   -1.9310    3.4580 ha        1 3W4      0.182000
     54 H18         0.9120   -0.5470    6.8240 ha        1 3W4      0.147500
     55 H20         4.9910   -1.7750    5.8790 ha        1 3W4      0.147500
     56 HB          2.2030    0.4870    8.4520 hn        1 3W4      0.453300
     57 H23         4.2220    0.2760    9.9920 hx        1 3W4      0.138700
     58 H241        3.7470   -2.1280   10.6110 hc        1 3W4      0.078200
     59 H242        2.1700   -1.6350   11.3760 hc        1 3W4      0.078200
     60 H271        2.3120    1.9560   10.2130 h1        1 3W4      0.120200
     61 H272        1.3680    0.7560   11.1580 h1        1 3W4      0.120200
     62 H251        3.9990   -1.8780   13.0440 hc        1 3W4      0.087700
     63 H252        5.0180   -0.6700   12.1640 hc        1 3W4      0.087700
     64 H261        2.2810   -0.1730   13.5200 h1        1 3W4      0.141200
     65 H262        3.8790    0.2950   14.1410 h1        1 3W4      0.141200
     66 H22         1.7230   -0.9950    9.0330 hn        1 3W4      0.453300
@<TRIPOS>BOND
     1    1    2 ar  
     2    1    6 ar  
     3    1   36 1   
     4    2    3 ar  
     5    2   37 1   
     6    3    4 ar  
     7    3   18 1   
     8    4    5 ar  
     9    4   38 1   
    10    5    6 ar  
    11    5   39 1   
    12    6    7 1   
    13    7    8 3   
    14    8    9 1   
    15    9   10 1   
    16    9   14 1   
    17    9   17 1   
    18   10   11 1   
    19   10   40 1   
    20   10   41 1   
    21   11   12 1   
    22   11   16 1   
    23   12   13 1   
    24   12   44 1   
    25   12   45 1   
    26   13   14 1   
    27   13   48 1   
    28   13   49 1   
    29   14   15 1   
    30   14   42 1   
    31   15   16 1   
    32   15   50 1   
    33   15   51 1   
    34   16   46 1   
    35   16   47 1   
    36   17   43 1   
    37   18   19 1   
    38   19   20 ar  
    39   19   24 ar  
    40   20   21 ar  
    41   20   52 1   
    42   21   22 ar  
    43   21   54 1   
    44   22   23 ar  
    45   22   25 1   
    46   23   24 ar  
    47   23   55 1   
    48   24   53 1   
    49   25   26 2   
    50   25   27 1   
    51   27   28 1   
    52   27   56 1   
    53   27   66 1   
    54   28   29 1   
    55   28   35 1   
    56   28   57 1   
    57   29   30 1   
    58   29   58 1   
    59   29   59 1   
    60   30   31 1   
    61   30   62 1   
    62   30   63 1   
    63   31   32 1   
    64   31   64 1   
    65   31   65 1   
    66   32   33 2   
    67   32   34 2   
    68   32   35 1   
    69   35   60 1   
    70   35   61 1   
@<TRIPOS>SUBSTRUCTURE
     1 3W4         1 TEMP              0 ****  ****    0 ROOT
