@<TRIPOS>MOLECULE
3W4
   65    62     1     0     0
SMALL
bcc


@<TRIPOS>ATOM
      1 C1         -2.1490    1.8460   -1.5050 c1        1 3W4     -0.091000
      2 C2         -0.7750    2.1090   -1.5970 c1        1 3W4     -0.166000
      3 C3         -0.0130    2.2940   -0.4300 c1        1 3W4      0.054000
      4 C4         -0.6230    2.2160    0.8180 c1        1 3W4     -0.111500
      5 C5         -1.9930    1.9540    0.9130 c1        1 3W4     -0.111500
      6 C6         -2.7600    1.7670   -0.2590 c1        1 3W4      0.021000
      7 C7         -4.3160    1.7150   -0.1660 c1        1 3W4     -0.107000
      8 C8         -5.5430    1.6750   -0.0980 c1        1 3W4     -0.120000
      9 C9         -7.1030    1.6270   -0.0160 c2        1 3W4      0.167000
     10 C10        -7.5370    0.2660   -0.2730 c3        1 3W4     -0.126000
     11 N1         -8.4380    0.1260   -1.4000 n3        1 3W4     -0.186000
     12 C11        -8.0730    0.8750   -2.5880 c3        1 3W4     -0.106500
     13 C12        -7.6420    2.2380   -2.3330 c3        1 3W4     -0.190000
     14 C13        -7.6470    2.6140   -0.9410 c3        1 3W4     -0.126000
     15 C14        -9.1480    2.6550   -0.5850 c3        1 3W4     -0.190000
     16 C15        -9.7410    0.8930   -0.8980 c3        1 3W4     -0.106500
     17 O1         -7.5270    2.0050    1.3880 oh        1 3W4     -0.310000
     18 O2          1.3210    2.7550   -0.5300 os        1 3W4     -0.156000
     19 C16         2.2330    1.7280   -0.0330 c2        1 3W4      0.093000
     20 C17         2.1520    1.3100    1.2890 c2        1 3W4     -0.193000
     21 C18         3.1070    0.4470    1.8030 c1        1 3W4     -0.047000
     22 C19         4.1420    0.0020    0.9970 c1        1 3W4     -0.152000
     23 C20         4.2230    0.4170   -0.3150 c1        1 3W4     -0.078000
     24 C21         3.2660    1.2820   -0.8330 c1        1 3W4     -0.159000
     25 C22         5.1770   -0.9590    1.5520 c2        1 3W4      0.352000
     26 O3          5.0980   -1.3310    2.6840 o         1 3W4     -0.355000
     27 N2          6.1660   -1.5600    0.6550 n         1 3W4     -0.380000
     28 C23         7.0260   -2.5790    1.1330 c3        1 3W4      0.065000
     29 C24         8.4890   -2.0520    1.0740 c3        1 3W4     -0.187000
     30 C25         9.5900   -3.1240    1.4410 c3        1 3W4     -0.129000
     31 C26         9.5000   -4.4330    0.6450 c3        1 3W4     -0.862000
     32 S1          7.9240   -5.0730    0.7590 s4        1 3W4      2.027800
     33 O4          7.8180   -6.2120   -0.0960 o         1 3W4     -0.535400
     34 O5          7.6710   -5.4640    2.1020 o         1 3W4     -0.535400
     35 C27         6.7700   -3.8650    0.3110 c2        1 3W4     -0.882000
     36 H1         -2.6870    1.7150   -2.3320 ha        1 3W4      0.143000
     37 H2         -0.3400    2.1650   -2.4870 ha        1 3W4      0.149000
     38 H4         -0.0990    2.3440    1.6180 ha        1 3W4      0.153500
     39 H5         -2.4210    1.9000    1.7940 ha        1 3W4      0.153500
     40 H101       -7.9840   -0.0700    0.5220 h1        1 3W4      0.111500
     41 H102       -6.7250   -0.2980   -0.4440 h1        1 3W4      0.111500
     42 H13        -7.2250    3.5040   -0.8060 hc        1 3W4      0.119000
     43 HA         -8.1640    1.4320    1.6740 ho        1 3W4      0.205000
     44 H111       -8.8600    0.9030   -3.1970 h1        1 3W4      0.097000
     45 H112       -7.3550    0.4070   -3.0350 h1        1 3W4      0.097000
     46 H151      -10.0800    0.4890   -0.0650 h1        1 3W4      0.097000
     47 H152      -10.4250    0.8830   -1.5830 h1        1 3W4      0.097000
     48 H121       -6.7100    2.3490   -2.6890 hc        1 3W4      0.091500
     49 H122       -8.2490    2.8620   -2.8320 hc        1 3W4      0.091500
     50 H141       -9.6290    3.2970   -1.1760 hc        1 3W4      0.091500
     51 H142       -9.2710    2.8950    0.3540 hc        1 3W4      0.091500
     52 H17         1.3960    1.6340    1.8760 ha        1 3W4      0.157000
     53 H21         3.3240    1.5680   -1.7390 ha        1 3W4      0.156000
     54 H18         3.0510    0.1590    2.7140 ha        1 3W4      0.161000
     55 H20         4.9480    0.1050   -0.8770 ha        1 3W4      0.138000
     56 HB          6.2970   -1.2080   -0.1770 hn        1 3W4      0.223000
     57 H23         6.8040   -2.7580    2.0560 h1        1 3W4      0.150000
     58 H241        8.5730   -1.2850    1.7040 hc        1 3W4      0.097000
     59 H242        8.6620   -1.7310    0.1760 hc        1 3W4      0.097000
     60 H271        6.6950   -3.8400   -0.6790 ha        1 3W4      0.157000
     61 H272        5.8550   -4.1330    0.5490 ha        1 3W4      0.157000
     62 H251        9.5080   -3.3340    2.3770 hc        1 3W4      0.104000
     63 H252       10.4740   -2.7270    1.2880 hc        1 3W4      0.104000
     64 H261        9.8810   -4.2430   -0.2210 h1        1 3W4      0.157500
     65 H262       10.1120   -5.1480    0.9680 h1        1 3W4      0.157500
@<TRIPOS>BOND
     1    1    6 1   
     2    1   36 1   
     3    2    3 1   
     4    2   37 1   
     5    3   18 1   
     6    4    5 1   
     7    4   38 1   
     8    5   39 1   
     9    6    7 1   
    10    7    8 1   
    11    9   10 1   
    12    9   14 1   
    13    9   17 1   
    14   10   11 1   
    15   10   40 1   
    16   10   41 1   
    17   11   12 1   
    18   11   16 1   
    19   12   13 1   
    20   12   44 1   
    21   12   45 1   
    22   13   14 1   
    23   13   48 1   
    24   13   49 1   
    25   14   15 1   
    26   14   42 1   
    27   15   16 1   
    28   15   50 1   
    29   15   51 1   
    30   16   46 1   
    31   16   47 1   
    32   17   43 1   
    33   18   19 1   
    34   19   20 1   
    35   19   24 1   
    36   20   21 1   
    37   20   52 1   
    38   21   54 1   
    39   22   23 1   
    40   22   25 1   
    41   23   55 1   
    42   24   53 1   
    43   25   26 1   
    44   25   27 1   
    45   27   28 1   
    46   27   56 1   
    47   28   29 1   
    48   28   35 1   
    49   28   57 1   
    50   29   30 1   
    51   29   58 1   
    52   29   59 1   
    53   30   31 1   
    54   30   62 1   
    55   30   63 1   
    56   31   32 1   
    57   31   64 1   
    58   31   65 1   
    59   32   33 1   
    60   32   34 1   
    61   35   60 1   
    62   35   61 1   
@<TRIPOS>SUBSTRUCTURE
     1 3W4         1 TEMP              0 ****  ****    0 ROOT
