@<TRIPOS>MOLECULE
3W4
   66    70     1     0     0
SMALL
bcc


@<TRIPOS>ATOM
      1 C1         -1.7020    1.3090    0.7380 ca        1 3W4     -0.103000
      2 C2         -0.3970    1.7890    0.6770 ca        1 3W4     -0.122000
      3 C3          0.6200    1.0550    1.2960 ca        1 3W4      0.037100
      4 C4          0.3630   -0.1470    1.9640 ca        1 3W4     -0.122000
      5 C5         -0.9460   -0.6180    2.0150 ca        1 3W4     -0.103000
      6 C6         -1.9870    0.1070    1.4100 ca        1 3W4      0.064000
      7 C7         -3.3100   -0.3640    1.4780 cg        1 3W4     -0.148000
      8 C8         -4.4390   -0.7630    1.5370 c1        1 3W4     -0.081100
      9 C9         -5.8120   -1.2220    1.6260 c3        1 3W4      0.190900
     10 C10        -6.2720   -1.3460    3.1220 c3        1 3W4      0.153800
     11 N1         -6.7280   -2.6980    3.4510 n3        1 3W4     -0.659600
     12 C11        -5.6270   -3.6430    3.2110 c3        1 3W4      0.133800
     13 C12        -5.1440   -3.6270    1.7490 c3        1 3W4     -0.106400
     14 C13        -5.9780   -2.6180    0.9620 c3        1 3W4     -0.086700
     15 C14        -7.4510   -3.0130    1.0750 c3        1 3W4     -0.106400
     16 C15        -7.8460   -3.0520    2.5630 c3        1 3W4      0.133800
     17 O1         -6.6880   -0.2670    1.0370 oh        1 3W4     -0.576800
     18 O2          1.9600    1.4440    1.1220 os        1 3W4     -0.214200
     19 C16         2.4390    2.4120    1.9620 ca        1 3W4      0.222100
     20 C17         1.6890    3.0230    2.9860 ca        1 3W4     -0.185500
     21 C18         2.2770    3.9880    3.7850 ca        1 3W4     -0.025500
     22 C19         3.6180    4.3630    3.5830 ca        1 3W4     -0.259600
     23 C20         4.3590    3.7530    2.5430 ca        1 3W4     -0.025500
     24 C21         3.7840    2.7850    1.7400 ca        1 3W4     -0.185500
     25 C22         4.3220    5.3650    4.3610 c         1 3W4      0.583700
     26 O3          5.4000    5.8990    4.1230 o         1 3W4     -0.443100
     27 N2          3.7070    5.8100    5.6840 n4        1 3W4     -0.678800
     28 C23         3.1380    7.2050    5.5990 c3        1 3W4      0.165500
     29 C24         3.0360    7.8440    6.9920 c3        1 3W4     -0.115400
     30 C25         2.6010    9.2920    6.8640 c3        1 3W4     -0.047400
     31 C26         1.2520    9.4290    6.2000 c3        1 3W4     -0.346600
     32 S1          1.1940    8.8430    4.6110 s6        1 3W4      1.340000
     33 O4         -0.1200    8.7140    4.1810 o         1 3W4     -0.616300
     34 O5          2.1400    9.4720    3.8100 o         1 3W4     -0.616300
     35 C27         1.7840    7.2210    4.9220 c3        1 3W4     -0.326600
     36 H1         -2.5160    1.8700    0.2520 ha        1 3W4      0.158000
     37 H2         -0.1640    2.7190    0.1380 ha        1 3W4      0.155000
     38 H4          1.1860   -0.7170    2.4210 ha        1 3W4      0.155000
     39 H5         -1.1670   -1.5660    2.5300 ha        1 3W4      0.158000
     40 H101       -7.1180   -0.6240    3.2920 h1        1 3W4      0.076200
     41 H102       -5.4230   -1.0760    3.8020 h1        1 3W4      0.076200
     42 H13        -5.6570   -2.5790   -0.1080 hc        1 3W4      0.064700
     43 HA         -6.5260   -0.2760    0.0860 ho        1 3W4      0.407000
     44 H111       -4.7810   -3.3790    3.9000 h1        1 3W4      0.061450
     45 H112       -5.9870   -4.6710    3.4860 h1        1 3W4      0.061450
     46 H151       -8.2000   -4.0810    2.8430 h1        1 3W4      0.061450
     47 H152       -8.6870   -2.3320    2.7560 h1        1 3W4      0.061450
     48 H121       -4.0610   -3.3490    1.7020 hc        1 3W4      0.054700
     49 H122       -5.2570   -4.6420    1.2930 hc        1 3W4      0.054700
     50 H141       -7.6080   -4.0150    0.6040 hc        1 3W4      0.054700
     51 H142       -8.0840   -2.2680    0.5310 hc        1 3W4      0.054700
     52 H17         0.6360    2.7320    3.1400 ha        1 3W4      0.182500
     53 H21         4.3540    2.3020    0.9290 ha        1 3W4      0.182500
     54 H18         1.6530    4.4620    4.5600 ha        1 3W4      0.150000
     55 H20         5.4070    4.0580    2.3730 ha        1 3W4      0.150000
     56 HB          2.9780    5.1560    5.9760 hn        1 3W4      0.453800
     57 H23         3.8770    7.8040    4.9730 hx        1 3W4      0.138700
     58 H241        4.0340    7.8180    7.5070 hc        1 3W4      0.074200
     59 H242        2.3020    7.2800    7.6250 hc        1 3W4      0.074200
     60 H271        1.0270    6.6650    5.5350 h1        1 3W4      0.123200
     61 H272        1.8370    6.6890    3.9320 h1        1 3W4      0.123200
     62 H251        2.5620    9.7410    7.8930 hc        1 3W4      0.087700
     63 H252        3.3680    9.8720    6.2790 hc        1 3W4      0.087700
     64 H261        0.9800   10.5260    6.2150 h1        1 3W4      0.141200
     65 H262        0.4710    8.9460    6.8500 h1        1 3W4      0.141200
     66 H22         4.4510    5.8140    6.3930 hn        1 3W4      0.453800
@<TRIPOS>BOND
     1    1    2 ar  
     2    1    6 ar  
     3    1   36 1   
     4    2    3 ar  
     5    2   37 1   
     6    3    4 ar  
     7    3   18 1   
     8    4    5 ar  
     9    4   38 1   
    10    5    6 ar  
    11    5   39 1   
    12    6    7 1   
    13    7    8 3   
    14    8    9 1   
    15    9   10 1   
    16    9   14 1   
    17    9   17 1   
    18   10   11 1   
    19   10   40 1   
    20   10   41 1   
    21   11   12 1   
    22   11   16 1   
    23   12   13 1   
    24   12   44 1   
    25   12   45 1   
    26   13   14 1   
    27   13   48 1   
    28   13   49 1   
    29   14   15 1   
    30   14   42 1   
    31   15   16 1   
    32   15   50 1   
    33   15   51 1   
    34   16   46 1   
    35   16   47 1   
    36   17   43 1   
    37   18   19 1   
    38   19   20 ar  
    39   19   24 ar  
    40   20   21 ar  
    41   20   52 1   
    42   21   22 ar  
    43   21   54 1   
    44   22   23 ar  
    45   22   25 1   
    46   23   24 ar  
    47   23   55 1   
    48   24   53 1   
    49   25   26 2   
    50   25   27 1   
    51   27   28 1   
    52   27   56 1   
    53   27   66 1   
    54   28   29 1   
    55   28   35 1   
    56   28   57 1   
    57   29   30 1   
    58   29   58 1   
    59   29   59 1   
    60   30   31 1   
    61   30   62 1   
    62   30   63 1   
    63   31   32 1   
    64   31   64 1   
    65   31   65 1   
    66   32   33 2   
    67   32   34 2   
    68   32   35 1   
    69   35   60 1   
    70   35   61 1   
@<TRIPOS>SUBSTRUCTURE
     1 3W4         1 TEMP              0 ****  ****    0 ROOT
