@<TRIPOS>MOLECULE
3W5
   65    62     1     0     0
SMALL
bcc


@<TRIPOS>ATOM
      1 C1         -2.5490    1.6460   -0.1640 c1        1 3W5     -0.085000
      2 C2         -1.3060    2.2630   -0.0630 c1        1 3W5     -0.168000
      3 C3         -0.6910    2.3920    1.1770 c1        1 3W5      0.059000
      4 C4         -1.3160    1.9070    2.3120 c1        1 3W5     -0.113500
      5 C5         -2.5580    1.2900    2.2120 c1        1 3W5     -0.113500
      6 C6         -3.1740    1.1600    0.9690 c1        1 3W5      0.014000
      7 C7         -4.6590    0.7090    0.8910 c1        1 3W5     -0.107000
      8 C8         -5.8350    0.3510    0.8250 c1        1 3W5     -0.165000
      9 C9         -7.2830   -0.0890    0.7400 c2        1 3W5      0.159000
     10 C10        -7.4330   -0.9960   -0.4160 c3        1 3W5     -0.085000
     11 N1         -7.9270   -2.3100   -0.0840 n3        1 3W5     -0.187000
     12 C11        -9.0290   -2.3380    0.8560 c3        1 3W5     -0.102000
     13 C12        -8.8830   -1.4430    1.9840 c3        1 3W5     -0.183500
     14 C13        -7.6520   -0.6680    1.9850 c3        1 3W5     -0.126000
     15 C14        -6.5520   -1.7420    2.2230 c3        1 3W5     -0.183500
     16 C15        -6.7410   -2.9200    0.7550 c3        1 3W5     -0.102000
     17 O1         -8.1390    1.1320    0.5110 oh        1 3W5     -0.310000
     18 O2          0.4650    3.1850    1.3020 os        1 3W5     -0.156000
     19 C16         1.5980    2.4420    0.8970 c2        1 3W5      0.090000
     20 C21         2.2940    1.6740    1.8450 c2        1 3W5     -0.191000
     21 C20         3.5400    1.1340    1.5290 c1        1 3W5     -0.048000
     22 C19         4.1060    1.3580    0.2540 c1        1 3W5     -0.149000
     23 C18         3.4210    2.1180   -0.6870 c1        1 3W5     -0.079000
     24 C17         2.1590    2.6650   -0.3680 c1        1 3W5     -0.156000
     25 C22         5.5390    0.8790   -0.0370 c2        1 3W5      0.353000
     26 O3          6.1820    0.3040    0.8420 o         1 3W5     -0.356000
     27 N2          6.0770    0.9660   -1.3960 n         1 3W5     -0.382000
     28 C23         7.3750    0.3740   -1.7120 c3        1 3W5      0.067000
     29 C24         7.4570   -1.0150   -1.0370 c3        1 3W5     -0.190000
     30 C25         8.7380   -1.8450   -1.4030 c3        1 3W5     -0.128000
     31 C26         8.9820   -2.0060   -2.8760 c3        1 3W5     -0.862000
     32 S1          8.9640   -0.4710   -3.6230 s4        1 3W5      2.026800
     33 O5         10.1240    0.2800   -3.1960 o         1 3W5     -0.534900
     34 O4          9.0020   -0.6350   -5.0250 o         1 3W5     -0.534900
     35 C27         7.5340    0.3600   -3.2140 c2        1 3W5     -0.878000
     36 H1         -2.9670    1.5590   -1.0070 ha        1 3W5      0.148000
     37 H2         -0.8750    2.5960   -0.8430 ha        1 3W5      0.151000
     38 H4         -0.8730    2.0000    3.2050 ha        1 3W5      0.150500
     39 H5         -2.9940    0.9510    3.0050 ha        1 3W5      0.150500
     40 H101       -6.5670   -1.0970   -0.8430 h1        1 3W5      0.116500
     41 H102       -8.0420   -0.5860   -1.0480 h1        1 3W5      0.116500
     42 H13        -7.6540    0.0320    2.7400 hc        1 3W5      0.101000
     43 HA         -8.8150    1.1420    1.1120 ho        1 3W5      0.204000
     44 H111       -9.1210   -3.2350    1.1910 h1        1 3W5      0.097250
     45 H112       -9.8700   -2.0940    0.3660 h1        1 3W5      0.097250
     46 H151       -6.9700   -3.8310    1.0660 h1        1 3W5      0.097250
     47 H152       -5.9210   -2.9360    0.2230 h1        1 3W5      0.097250
     48 H121       -9.6250   -0.8340    1.9850 hc        1 3W5      0.091000
     49 H122       -8.9150   -1.9920    2.8340 hc        1 3W5      0.091000
     50 H141       -6.7080   -2.2040    3.0440 hc        1 3W5      0.091000
     51 H142       -5.6280   -1.3150    2.2210 hc        1 3W5      0.091000
     52 H17         1.6650    3.2120   -1.0460 ha        1 3W5      0.157000
     53 H21         1.9060    1.5180    2.7230 ha        1 3W5      0.156000
     54 H18         3.7940    2.2660   -1.5280 ha        1 3W5      0.138000
     55 H20         4.0270    0.5950    2.1970 ha        1 3W5      0.161000
     56 HB          5.6180    1.4320   -2.0430 hn        1 3W5      0.224000
     57 H23         8.0900    0.9530   -1.3250 h1        1 3W5      0.149000
     58 H241        6.6540   -1.5420   -1.3040 hc        1 3W5      0.097000
     59 H242        7.4370   -0.8920   -0.0990 hc        1 3W5      0.097000
     60 H271        6.7730    0.1020   -3.8130 ha        1 3W5      0.157000
     61 H272        7.6220    1.2850   -3.4480 ha        1 3W5      0.157000
     62 H251        8.6530   -2.7510   -0.9980 hc        1 3W5      0.104000
     63 H252        9.5400   -1.3880   -0.9980 hc        1 3W5      0.104000
     64 H261        9.6930   -2.5310   -3.1820 h1        1 3W5      0.158000
     65 H262        8.2430   -2.5280   -3.1920 h1        1 3W5      0.158000
@<TRIPOS>BOND
     1    1    6 1   
     2    1   36 1   
     3    2    3 1   
     4    2   37 1   
     5    3   18 1   
     6    4    5 1   
     7    4   38 1   
     8    5   39 1   
     9    6    7 1   
    10    7    8 1   
    11    9   10 1   
    12    9   14 1   
    13    9   17 1   
    14   10   11 1   
    15   10   40 1   
    16   10   41 1   
    17   11   12 1   
    18   11   16 1   
    19   12   13 1   
    20   12   44 1   
    21   12   45 1   
    22   13   14 1   
    23   13   48 1   
    24   13   49 1   
    25   14   15 1   
    26   14   42 1   
    27   15   16 1   
    28   15   50 1   
    29   15   51 1   
    30   16   46 1   
    31   16   47 1   
    32   17   43 1   
    33   18   19 1   
    34   19   20 1   
    35   19   24 1   
    36   20   21 1   
    37   20   53 1   
    38   21   55 1   
    39   22   23 1   
    40   22   25 1   
    41   23   54 1   
    42   24   52 1   
    43   25   26 1   
    44   25   27 1   
    45   27   28 1   
    46   27   56 1   
    47   28   29 1   
    48   28   35 1   
    49   28   57 1   
    50   29   30 1   
    51   29   58 1   
    52   29   59 1   
    53   30   31 1   
    54   30   62 1   
    55   30   63 1   
    56   31   32 1   
    57   31   64 1   
    58   31   65 1   
    59   32   33 1   
    60   32   34 1   
    61   35   60 1   
    62   35   61 1   
@<TRIPOS>SUBSTRUCTURE
     1 3W5         1 TEMP              0 ****  ****    0 ROOT
