@<TRIPOS>MOLECULE
3W5
   66    70     1     0     0
SMALL
bcc


@<TRIPOS>ATOM
      1 C1         -0.7200    0.7300    0.0840 ca        1 3W5     -0.102000
      2 C2          0.6600    0.9050    0.1360 ca        1 3W5     -0.121500
      3 C3          1.2610    1.1480    1.3760 ca        1 3W5      0.036100
      4 C4          0.5160    1.2170    2.5580 ca        1 3W5     -0.121500
      5 C5         -0.8630    1.0420    2.4930 ca        1 3W5     -0.102000
      6 C6         -1.4910    0.8010    1.2570 ca        1 3W5      0.068000
      7 C7         -2.8860    0.6330    1.2030 cg        1 3W5     -0.147000
      8 C8         -4.0740    0.4860    1.1610 c1        1 3W5     -0.038100
      9 C9         -5.5120    0.3120    1.1310 c3        1 3W5      0.198900
     10 C10        -5.9010   -1.1600    1.5120 c3        1 3W5      0.112800
     11 N1         -6.7250   -1.8050    0.4870 n3        1 3W5     -0.656600
     12 C11        -5.9590   -1.8540   -0.7690 c3        1 3W5      0.129300
     13 C12        -5.5140   -0.4580   -1.2440 c3        1 3W5     -0.111900
     14 C13        -6.0800    0.5930   -0.2900 c3        1 3W5     -0.085700
     15 C14        -7.5990    0.4220   -0.2530 c3        1 3W5     -0.111900
     16 C15        -7.9290   -0.9900    0.2650 c3        1 3W5      0.129300
     17 O1         -6.0450    1.2320    2.0830 oh        1 3W5     -0.583800
     18 O2          2.6650    1.1720    1.4440 os        1 3W5     -0.217200
     19 C16         3.2630    2.4020    1.4560 ca        1 3W5      0.221100
     20 C21         4.6790    2.3720    1.5220 ca        1 3W5     -0.184000
     21 C20         5.3830    3.5600    1.5480 ca        1 3W5     -0.026500
     22 C19         4.7050    4.7950    1.5100 ca        1 3W5     -0.268600
     23 C18         3.2970    4.8120    1.4220 ca        1 3W5     -0.026500
     24 C17         2.5780    3.6270    1.4030 ca        1 3W5     -0.184000
     25 C22         5.3730    6.0870    1.5180 c         1 3W5      0.584700
     26 O3          4.9370    7.1640    1.1300 o         1 3W5     -0.448100
     27 N2          6.7860    6.1030    2.0880 n4        1 3W5     -0.676800
     28 C23         7.1700    7.3410    2.8590 c3        1 3W5      0.175500
     29 C24         7.4510    8.5390    1.9400 c3        1 3W5     -0.113400
     30 C25         8.0180    9.6860    2.7540 c3        1 3W5     -0.048400
     31 C26         7.0690   10.1430    3.8370 c3        1 3W5     -0.344600
     32 S1          6.7130    8.9560    4.9920 s6        1 3W5      1.340000
     33 O5          5.6410    9.3390    5.7850 o         1 3W5     -0.620300
     34 O4          7.8790    8.4630    5.5760 o         1 3W5     -0.620300
     35 C27         6.1400    7.7090    3.9050 c3        1 3W5     -0.325600
     36 H1         -1.2110    0.5320   -0.8820 ha        1 3W5      0.159500
     37 H2          1.2720    0.8370   -0.7760 ha        1 3W5      0.153500
     38 H4          1.0160    1.3900    3.5220 ha        1 3W5      0.153500
     39 H5         -1.4680    1.0880    3.4120 ha        1 3W5      0.159500
     40 H101       -4.9730   -1.7750    1.6610 h1        1 3W5      0.074200
     41 H102       -6.4710   -1.1470    2.4810 h1        1 3W5      0.074200
     42 H13        -5.8060    1.6270   -0.6110 hc        1 3W5      0.077700
     43 HA         -6.9870    1.0350    2.1600 ho        1 3W5      0.414000
     44 H111       -5.0620   -2.5110   -0.6050 h1        1 3W5      0.062200
     45 H112       -6.6040   -2.3410   -1.5500 h1        1 3W5      0.062200
     46 H151       -8.4930   -0.9250    1.2350 h1        1 3W5      0.062200
     47 H152       -8.5800   -1.5300   -0.4740 h1        1 3W5      0.062200
     48 H121       -5.8880   -0.2660   -2.2800 hc        1 3W5      0.053450
     49 H122       -4.3980   -0.3940   -1.2650 hc        1 3W5      0.053450
     50 H141       -8.0690    1.2010    0.3970 hc        1 3W5      0.053450
     51 H142       -8.0100    0.5590   -1.2850 hc        1 3W5      0.053450
     52 H17         1.4770    3.6420    1.3420 ha        1 3W5      0.182500
     53 H21         5.1940    1.3980    1.5450 ha        1 3W5      0.182500
     54 H18         2.7670    5.7790    1.3680 ha        1 3W5      0.147000
     55 H20         6.4830    3.5060    1.5670 ha        1 3W5      0.147000
     56 HB          6.8830    5.2990    2.7190 hn        1 3W5      0.456800
     57 H23         8.1390    7.0640    3.3920 hx        1 3W5      0.114700
     58 H241        6.5050    8.8610    1.4270 hc        1 3W5      0.083700
     59 H242        8.1950    8.2560    1.1500 hc        1 3W5      0.083700
     60 H271        5.1890    8.0470    3.4120 h1        1 3W5      0.128700
     61 H272        5.8660    6.8150    4.5290 h1        1 3W5      0.128700
     62 H251        8.9970    9.3850    3.2170 hc        1 3W5      0.084200
     63 H252        8.2300   10.5410    2.0560 hc        1 3W5      0.084200
     64 H261        7.5350   11.0420    4.3370 h1        1 3W5      0.142200
     65 H262        6.1360   10.5500    3.3580 h1        1 3W5      0.142200
     66 H22         7.4430    5.9950    1.3080 hn        1 3W5      0.456800
@<TRIPOS>BOND
     1    1    2 ar  
     2    1    6 ar  
     3    1   36 1   
     4    2    3 ar  
     5    2   37 1   
     6    3    4 ar  
     7    3   18 1   
     8    4    5 ar  
     9    4   38 1   
    10    5    6 ar  
    11    5   39 1   
    12    6    7 1   
    13    7    8 3   
    14    8    9 1   
    15    9   10 1   
    16    9   14 1   
    17    9   17 1   
    18   10   11 1   
    19   10   40 1   
    20   10   41 1   
    21   11   12 1   
    22   11   16 1   
    23   12   13 1   
    24   12   44 1   
    25   12   45 1   
    26   13   14 1   
    27   13   48 1   
    28   13   49 1   
    29   14   15 1   
    30   14   42 1   
    31   15   16 1   
    32   15   50 1   
    33   15   51 1   
    34   16   46 1   
    35   16   47 1   
    36   17   43 1   
    37   18   19 1   
    38   19   20 ar  
    39   19   24 ar  
    40   20   21 ar  
    41   20   53 1   
    42   21   22 ar  
    43   21   55 1   
    44   22   23 ar  
    45   22   25 1   
    46   23   24 ar  
    47   23   54 1   
    48   24   52 1   
    49   25   26 2   
    50   25   27 1   
    51   27   28 1   
    52   27   56 1   
    53   27   66 1   
    54   28   29 1   
    55   28   35 1   
    56   28   57 1   
    57   29   30 1   
    58   29   58 1   
    59   29   59 1   
    60   30   31 1   
    61   30   62 1   
    62   30   63 1   
    63   31   32 1   
    64   31   64 1   
    65   31   65 1   
    66   32   33 2   
    67   32   34 2   
    68   32   35 1   
    69   35   60 1   
    70   35   61 1   
@<TRIPOS>SUBSTRUCTURE
     1 3W5         1 TEMP              0 ****  ****    0 ROOT
