@<TRIPOS>MOLECULE
3W5
   66    70     1     0     0
SMALL
bcc


@<TRIPOS>ATOM
      1 C1         -0.7640   -0.7150   -0.0610 ca        1 3W5     -0.101500
      2 C2          0.5840   -0.9280   -0.3340 ca        1 3W5     -0.121500
      3 C3          1.5230   -0.6700    0.6710 ca        1 3W5      0.036100
      4 C4          1.1470   -0.2020    1.9340 ca        1 3W5     -0.121500
      5 C5         -0.2050    0.0100    2.1930 ca        1 3W5     -0.101500
      6 C6         -1.1680   -0.2470    1.2030 ca        1 3W5      0.068000
      7 C7         -2.5340   -0.0430    1.4680 cg        1 3W5     -0.147000
      8 C8         -3.6970    0.1350    1.6890 c1        1 3W5     -0.038100
      9 C9         -5.1090    0.3430    1.9370 c3        1 3W5      0.198900
     10 C10        -5.5650    1.7490    1.4090 c3        1 3W5      0.112800
     11 N1         -6.2040    2.5570    2.4510 n3        1 3W5     -0.656600
     12 C11        -5.2340    2.7780    3.5350 c3        1 3W5      0.129300
     13 C12        -4.7080    1.4600    4.1330 c3        1 3W5     -0.111400
     14 C13        -5.4240    0.2900    3.4600 c3        1 3W5     -0.085700
     15 C14        -6.9280    0.4860    3.6570 c3        1 3W5     -0.111400
     16 C15        -7.3490    1.8110    2.9950 c3        1 3W5      0.129300
     17 O1         -5.7940   -0.6990    1.2400 oh        1 3W5     -0.583800
     18 O2          2.8960   -0.7350    0.3720 os        1 3W5     -0.217200
     19 C16         3.4770   -1.9730    0.3900 ca        1 3W5      0.224100
     20 C21         4.8560   -1.9860    0.0600 ca        1 3W5     -0.185500
     21 C20         5.5420   -3.1840    0.0550 ca        1 3W5     -0.023500
     22 C19         4.8830   -4.3900    0.3740 ca        1 3W5     -0.268600
     23 C18         3.5080   -4.3640    0.6910 ca        1 3W5     -0.023500
     24 C17         2.8080   -3.1680    0.7020 ca        1 3W5     -0.185500
     25 C22         5.5240   -5.6930    0.3880 c         1 3W5      0.580700
     26 O3          5.0000   -6.7960    0.4920 o         1 3W5     -0.444100
     27 N2          7.0450   -5.6910    0.2750 ny        1 3W5     -0.676800
     28 C23         7.6960   -7.0230    0.5500 c3        1 3W5      0.167500
     29 C24         7.6030   -7.9590   -0.6630 c3        1 3W5     -0.109400
     30 C25         8.1550   -9.3250   -0.3060 c3        1 3W5     -0.047400
     31 C26         9.6040   -9.2680    0.1150 c3        1 3W5     -0.347600
     32 S1          9.8900   -8.3340    1.4990 s6        1 3W5      1.340000
     33 O5         11.2450   -8.0760    1.6470 o         1 3W5     -0.616800
     34 O4          9.1380   -8.7870    2.5780 o         1 3W5     -0.616800
     35 C27         9.1450   -6.8390    0.9570 c3        1 3W5     -0.327600
     36 H1         -1.5200   -0.9080   -0.8390 ha        1 3W5      0.159500
     37 H2          0.9090   -1.2780   -1.3240 ha        1 3W5      0.153500
     38 H4          1.9080    0.0110    2.6990 ha        1 3W5      0.153500
     39 H5         -0.5210    0.3850    3.1790 ha        1 3W5      0.159500
     40 H101       -6.2930    1.6030    0.5650 h1        1 3W5      0.074200
     41 H102       -4.6800    2.3140    1.0130 h1        1 3W5      0.074200
     42 H13        -5.0940   -0.6900    3.8820 hc        1 3W5      0.077700
     43 HA         -6.7370   -0.4960    1.2970 ho        1 3W5      0.414000
     44 H111       -4.3820    3.3830    3.1230 h1        1 3W5      0.062200
     45 H112       -5.7370    3.3900    4.3310 h1        1 3W5      0.062200
     46 H151       -8.0700    1.6130    2.1570 h1        1 3W5      0.062200
     47 H152       -7.8660    2.4700    3.7440 h1        1 3W5      0.062200
     48 H121       -4.8970    1.4330    5.2350 hc        1 3W5      0.053700
     49 H122       -3.6040    1.3760    3.9730 hc        1 3W5      0.053700
     50 H141       -7.4980   -0.3720    3.2220 hc        1 3W5      0.053700
     51 H142       -7.1550    0.5140    4.7530 hc        1 3W5      0.053700
     52 H17         1.7340   -3.1510    0.9520 ha        1 3W5      0.182500
     53 H21         5.3560   -1.0360   -0.1890 ha        1 3W5      0.182500
     54 H18         2.9890   -5.3090    0.9330 ha        1 3W5      0.147500
     55 H20         6.6080   -3.1610   -0.2190 ha        1 3W5      0.147500
     56 HB          7.2940   -5.3860   -0.6710 hn        1 3W5      0.454300
     57 H23         7.1200   -7.4860    1.4150 hx        1 3W5      0.138700
     58 H241        6.5280   -8.0770   -0.9700 hc        1 3W5      0.077700
     59 H242        8.1730   -7.5310   -1.5290 hc        1 3W5      0.077700
     60 H271        9.7450   -6.4130    0.1110 h1        1 3W5      0.120700
     61 H272        9.2330   -6.1060    1.8050 h1        1 3W5      0.120700
     62 H251        8.0500   -9.9940   -1.2030 hc        1 3W5      0.087700
     63 H252        7.5410   -9.7820    0.5190 hc        1 3W5      0.087700
     64 H261       10.2260   -8.9210   -0.7560 h1        1 3W5      0.140700
     65 H262        9.9460  -10.3300    0.2900 h1        1 3W5      0.140700
     66 H22         7.4110   -5.0030    0.9420 hn        1 3W5      0.454300
@<TRIPOS>BOND
     1    1    2 ar  
     2    1    6 ar  
     3    1   36 1   
     4    2    3 ar  
     5    2   37 1   
     6    3    4 ar  
     7    3   18 1   
     8    4    5 ar  
     9    4   38 1   
    10    5    6 ar  
    11    5   39 1   
    12    6    7 1   
    13    7    8 3   
    14    8    9 1   
    15    9   10 1   
    16    9   14 1   
    17    9   17 1   
    18   10   11 1   
    19   10   40 1   
    20   10   41 1   
    21   11   12 1   
    22   11   16 1   
    23   12   13 1   
    24   12   44 1   
    25   12   45 1   
    26   13   14 1   
    27   13   48 1   
    28   13   49 1   
    29   14   15 1   
    30   14   42 1   
    31   15   16 1   
    32   15   50 1   
    33   15   51 1   
    34   16   46 1   
    35   16   47 1   
    36   17   43 1   
    37   18   19 1   
    38   19   20 ar  
    39   19   24 ar  
    40   20   21 ar  
    41   20   53 1   
    42   21   22 ar  
    43   21   55 1   
    44   22   23 ar  
    45   22   25 1   
    46   23   24 ar  
    47   23   54 1   
    48   24   52 1   
    49   25   26 2   
    50   25   27 1   
    51   27   28 1   
    52   27   56 1   
    53   27   66 1   
    54   28   29 1   
    55   28   35 1   
    56   28   57 1   
    57   29   30 1   
    58   29   58 1   
    59   29   59 1   
    60   30   31 1   
    61   30   62 1   
    62   30   63 1   
    63   31   32 1   
    64   31   64 1   
    65   31   65 1   
    66   32   33 2   
    67   32   34 2   
    68   32   35 1   
    69   35   60 1   
    70   35   61 1   
@<TRIPOS>SUBSTRUCTURE
     1 3W5         1 TEMP              0 ****  ****    0 ROOT
