@<TRIPOS>MOLECULE
3W5
   66    70     1     0     0
SMALL
bcc


@<TRIPOS>ATOM
      1 C1         -0.2040    1.5190   -1.1810 ca        1 3W5     -0.102500
      2 C2          1.0930    1.4220   -1.6750 ca        1 3W5     -0.123000
      3 C3          1.9040    0.3700   -1.2350 ca        1 3W5      0.038100
      4 C4          1.4460   -0.5850   -0.3220 ca        1 3W5     -0.123000
      5 C5          0.1460   -0.4780    0.1640 ca        1 3W5     -0.102500
      6 C6         -0.6860    0.5750   -0.2560 ca        1 3W5      0.065000
      7 C7         -1.9940    0.6900    0.2450 cg        1 3W5     -0.146000
      8 C8         -3.1110    0.7880    0.6690 c1        1 3W5     -0.041100
      9 C9         -4.4560    0.9250    1.1870 c3        1 3W5      0.199900
     10 C10        -4.5770    0.2750    2.6100 c3        1 3W5      0.113800
     11 N1         -5.6330   -0.7370    2.6770 n3        1 3W5     -0.657600
     12 C11        -5.3210   -1.8070    1.7160 c3        1 3W5      0.129300
     13 C12        -5.1780   -1.2840    0.2740 c3        1 3W5     -0.111900
     14 C13        -5.4840    0.2140    0.2600 c3        1 3W5     -0.085700
     15 C14        -6.8860    0.4100    0.8370 c3        1 3W5     -0.111900
     16 C15        -6.9080   -0.1170    2.2830 c3        1 3W5      0.129300
     17 O1         -4.7160    2.3270    1.2570 oh        1 3W5     -0.584800
     18 O2          3.1610    0.1710   -1.8330 os        1 3W5     -0.217200
     19 C16         4.2100    0.8880   -1.3250 ca        1 3W5      0.222100
     20 C21         5.4520    0.6630   -1.9610 ca        1 3W5     -0.187500
     21 C20         6.5710    1.3410   -1.5160 ca        1 3W5     -0.024000
     22 C19         6.4830    2.2520   -0.4360 ca        1 3W5     -0.267600
     23 C18         5.2390    2.4670    0.1860 ca        1 3W5     -0.024000
     24 C17         4.1110    1.7950   -0.2510 ca        1 3W5     -0.187500
     25 C22         7.7210    2.9080   -0.0500 c         1 3W5      0.582700
     26 O3          8.8290    2.7990   -0.5650 o         1 3W5     -0.458100
     27 N2          7.6380    3.8360    1.1490 n4        1 3W5     -0.684800
     28 C23         8.9080    4.5900    1.4580 c3        1 3W5      0.177500
     29 C24         9.1820    5.7160    0.4540 c3        1 3W5     -0.116400
     30 C25         8.2300    6.8870    0.5630 c3        1 3W5     -0.061400
     31 C26         8.1870    7.4770    1.9550 c3        1 3W5     -0.344600
     32 S1          7.6740    6.3790    3.1340 s6        1 3W5      1.338000
     33 O5          7.7940    6.8890    4.4140 o         1 3W5     -0.639300
     34 O4          6.4680    5.7690    2.7230 o         1 3W5     -0.639300
     35 C27         8.8720    5.1530    2.8730 c3        1 3W5     -0.348600
     36 H1         -0.8620    2.3370   -1.5170 ha        1 3W5      0.158500
     37 H2          1.4710    2.1470   -2.4110 ha        1 3W5      0.153500
     38 H4          2.0980   -1.4140   -0.0100 ha        1 3W5      0.153500
     39 H5         -0.2350   -1.2240    0.8790 ha        1 3W5      0.158500
     40 H101       -3.6040   -0.2080    2.8930 h1        1 3W5      0.071200
     41 H102       -4.7980    1.0810    3.3610 h1        1 3W5      0.071200
     42 H13        -5.4180    0.6350   -0.7730 hc        1 3W5      0.079700
     43 HA         -5.5730    2.4280    1.6900 ho        1 3W5      0.413000
     44 H111       -6.1420   -2.5720    1.7700 h1        1 3W5      0.061450
     45 H112       -4.3680   -2.3030    2.0440 h1        1 3W5      0.061450
     46 H151       -7.7180   -0.8870    2.4020 h1        1 3W5      0.061450
     47 H152       -7.1270    0.7220    2.9980 h1        1 3W5      0.061450
     48 H121       -4.1410   -1.4660   -0.1040 hc        1 3W5      0.054700
     49 H122       -5.8890   -1.8190   -0.4030 hc        1 3W5      0.054700
     50 H141       -7.1810    1.4880    0.8040 hc        1 3W5      0.054700
     51 H142       -7.6230   -0.1530    0.2110 hc        1 3W5      0.054700
     52 H17         3.1350    1.9640    0.2340 ha        1 3W5      0.182000
     53 H21         5.5100   -0.0490   -2.8000 ha        1 3W5      0.182000
     54 H18         5.1190    3.1700    1.0270 ha        1 3W5      0.155000
     55 H20         7.5480    1.1740   -2.0050 ha        1 3W5      0.155000
     56 HB          7.3810    3.2750    1.9690 hn        1 3W5      0.469300
     57 H23         9.7490    3.8330    1.3760 hx        1 3W5      0.127700
     58 H241       10.2340    6.0650    0.6440 hc        1 3W5      0.096200
     59 H242        9.1590    5.3060   -0.5930 hc        1 3W5      0.096200
     60 H271        8.7430    4.3250    3.6230 h1        1 3W5      0.143700
     61 H272        9.9050    5.5500    3.0850 h1        1 3W5      0.143700
     62 H251        8.5600    7.6780   -0.1650 hc        1 3W5      0.077200
     63 H252        7.1910    6.5860    0.2560 hc        1 3W5      0.077200
     64 H261        9.1970    7.9150    2.1950 h1        1 3W5      0.146200
     65 H262        7.5040    8.3760    1.9250 h1        1 3W5      0.146200
     66 H22         6.8720    4.5140    0.9950 hn        1 3W5      0.469300
@<TRIPOS>BOND
     1    1    2 ar  
     2    1    6 ar  
     3    1   36 1   
     4    2    3 ar  
     5    2   37 1   
     6    3    4 ar  
     7    3   18 1   
     8    4    5 ar  
     9    4   38 1   
    10    5    6 ar  
    11    5   39 1   
    12    6    7 1   
    13    7    8 3   
    14    8    9 1   
    15    9   10 1   
    16    9   14 1   
    17    9   17 1   
    18   10   11 1   
    19   10   40 1   
    20   10   41 1   
    21   11   12 1   
    22   11   16 1   
    23   12   13 1   
    24   12   44 1   
    25   12   45 1   
    26   13   14 1   
    27   13   48 1   
    28   13   49 1   
    29   14   15 1   
    30   14   42 1   
    31   15   16 1   
    32   15   50 1   
    33   15   51 1   
    34   16   46 1   
    35   16   47 1   
    36   17   43 1   
    37   18   19 1   
    38   19   20 ar  
    39   19   24 ar  
    40   20   21 ar  
    41   20   53 1   
    42   21   22 ar  
    43   21   55 1   
    44   22   23 ar  
    45   22   25 1   
    46   23   24 ar  
    47   23   54 1   
    48   24   52 1   
    49   25   26 2   
    50   25   27 1   
    51   27   28 1   
    52   27   56 1   
    53   27   66 1   
    54   28   29 1   
    55   28   35 1   
    56   28   57 1   
    57   29   30 1   
    58   29   58 1   
    59   29   59 1   
    60   30   31 1   
    61   30   62 1   
    62   30   63 1   
    63   31   32 1   
    64   31   64 1   
    65   31   65 1   
    66   32   33 2   
    67   32   34 2   
    68   32   35 1   
    69   35   60 1   
    70   35   61 1   
@<TRIPOS>SUBSTRUCTURE
     1 3W5         1 TEMP              0 ****  ****    0 ROOT
