@<TRIPOS>MOLECULE
3W5
   65    69     1     0     0
SMALL
bcc


@<TRIPOS>ATOM
      1 C1          3.0980    0.4580   -0.7310 ca        1 3W5     -0.085500
      2 C2          1.8850    1.1290   -0.5990 ca        1 3W5     -0.156500
      3 C3          1.6230    1.8400    0.5770 ca        1 3W5      0.107100
      4 C4          2.5580    1.8890    1.6220 ca        1 3W5     -0.156500
      5 C5          3.7680    1.2190    1.4760 ca        1 3W5     -0.085500
      6 C6          4.0480    0.4970    0.3030 ca        1 3W5      0.006000
      7 C7          5.2720   -0.1820    0.1640 cg        1 3W5     -0.101000
      8 C8          6.3150   -0.7610    0.0450 c1        1 3W5     -0.142100
      9 C9          7.5720   -1.4650   -0.1020 c3        1 3W5      0.203900
     10 C10         8.3730   -1.4550    1.2470 c3        1 3W5      0.118800
     11 N1          9.7000   -0.8480    1.1090 n3        1 3W5     -0.660600
     12 C11        10.4610   -1.6020    0.0990 c3        1 3W5      0.133800
     13 C12         9.7680   -1.6140   -1.2750 c3        1 3W5     -0.107900
     14 C13         8.4720   -0.8080   -1.1870 c3        1 3W5     -0.046700
     15 C14         8.8100    0.6090   -0.7250 c3        1 3W5     -0.107900
     16 C15         9.5380    0.5340    0.6300 c3        1 3W5      0.133800
     17 O1          7.3500   -2.8080   -0.5260 oh        1 3W5     -0.583800
     18 O2          0.4880    2.6290    0.7450 os        1 3W5     -0.245200
     19 C16        -0.7150    2.1110    0.2820 ca        1 3W5      0.132100
     20 C21        -1.6760    3.0680   -0.0850 ca        1 3W5     -0.171000
     21 C20        -2.9390    2.6360   -0.4740 ca        1 3W5     -0.066000
     22 C19        -3.2480    1.2690   -0.4920 ca        1 3W5     -0.168600
     23 C18        -2.2790    0.3270   -0.1360 ca        1 3W5     -0.066000
     24 C17        -1.0070    0.7420    0.2540 ca        1 3W5     -0.171000
     25 C22        -4.6160    0.8720   -0.9320 c         1 3W5      0.677700
     26 O3         -5.2150    1.4850   -1.8380 o         1 3W5     -0.592100
     27 N2         -5.1940   -0.2140   -0.2960 n         1 3W5     -0.568900
     28 C23        -6.5490   -0.6350   -0.5560 c3        1 3W5      0.140700
     29 C24        -6.6130   -2.1180   -0.9720 c3        1 3W5     -0.106400
     30 C25        -8.0190   -2.5020   -1.3780 c3        1 3W5     -0.050400
     31 C26        -8.9940   -2.3630   -0.2330 c3        1 3W5     -0.322600
     32 S1         -9.1230   -0.7740    0.3710 s6        1 3W5      1.331000
     33 O5         -9.6530    0.0750   -0.6050 o         1 3W5     -0.647300
     34 O4         -9.7740   -0.8170    1.6130 o         1 3W5     -0.647300
     35 C27        -7.4750   -0.4190    0.6500 c3        1 3W5     -0.343600
     36 H1          3.3160   -0.1020   -1.6530 ha        1 3W5      0.147000
     37 H2          1.1400    1.1050   -1.4080 ha        1 3W5      0.154500
     38 H4          2.3320    2.4620    2.5330 ha        1 3W5      0.154500
     39 H5          4.5130    1.2540    2.2870 ha        1 3W5      0.147000
     40 H101        7.8040   -0.8860    2.0290 h1        1 3W5      0.065700
     41 H102        8.5010   -2.5160    1.5960 h1        1 3W5      0.065700
     42 H13         7.9390   -0.8030   -2.1680 hc        1 3W5      0.075700
     43 HA          6.7540   -3.2130    0.1150 ho        1 3W5      0.406000
     44 H111       11.4800   -1.1370    0.0160 h1        1 3W5      0.056450
     45 H112       10.5900   -2.6530    0.4730 h1        1 3W5      0.056450
     46 H151        8.9660    1.1090    1.4070 h1        1 3W5      0.056450
     47 H152       10.5600    0.9930    0.5450 h1        1 3W5      0.056450
     48 H121       10.4360   -1.1650   -2.0510 hc        1 3W5      0.055200
     49 H122        9.5350   -2.6650   -1.5800 hc        1 3W5      0.055200
     50 H141        9.4620    1.1030   -1.4880 hc        1 3W5      0.055200
     51 H142        7.8750    1.2150   -0.6280 hc        1 3W5      0.055200
     52 H17        -0.2400    0.0060    0.5340 ha        1 3W5      0.156500
     53 H21        -1.4220    4.1370   -0.0590 ha        1 3W5      0.156500
     54 H18        -2.5000   -0.7510   -0.1720 ha        1 3W5      0.150500
     55 H20        -3.7050    3.3670   -0.7850 ha        1 3W5      0.150500
     56 HB         -4.7410   -0.6100    0.4910 hn        1 3W5      0.309500
     57 H23        -6.9440   -0.0060   -1.4160 h1        1 3W5      0.110700
     58 H241       -5.9250   -2.2890   -1.8420 hc        1 3W5      0.057200
     59 H242       -6.2640   -2.7700   -0.1300 hc        1 3W5      0.057200
     60 H271       -7.0900   -1.0160    1.5190 h1        1 3W5      0.118700
     61 H272       -7.3890    0.6580    0.9680 h1        1 3W5      0.118700
     62 H251       -8.3580   -1.8590   -2.2360 hc        1 3W5      0.064700
     63 H252       -8.0160   -3.5640   -1.7400 hc        1 3W5      0.064700
     64 H261      -10.0010   -2.7160   -0.5890 h1        1 3W5      0.118200
     65 H262       -8.7050   -3.0810    0.5800 h1        1 3W5      0.118200
@<TRIPOS>BOND
     1    1    2 ar  
     2    1    6 ar  
     3    1   36 1   
     4    2    3 ar  
     5    2   37 1   
     6    3    4 ar  
     7    3   18 1   
     8    4    5 ar  
     9    4   38 1   
    10    5    6 ar  
    11    5   39 1   
    12    6    7 1   
    13    7    8 3   
    14    8    9 1   
    15    9   10 1   
    16    9   14 1   
    17    9   17 1   
    18   10   11 1   
    19   10   40 1   
    20   10   41 1   
    21   11   12 1   
    22   11   16 1   
    23   12   13 1   
    24   12   44 1   
    25   12   45 1   
    26   13   14 1   
    27   13   48 1   
    28   13   49 1   
    29   14   15 1   
    30   14   42 1   
    31   15   16 1   
    32   15   50 1   
    33   15   51 1   
    34   16   46 1   
    35   16   47 1   
    36   17   43 1   
    37   18   19 1   
    38   19   20 ar  
    39   19   24 ar  
    40   20   21 ar  
    41   20   53 1   
    42   21   22 ar  
    43   21   55 1   
    44   22   23 ar  
    45   22   25 1   
    46   23   24 ar  
    47   23   54 1   
    48   24   52 1   
    49   25   26 2   
    50   25   27 1   
    51   27   28 1   
    52   27   56 1   
    53   28   29 1   
    54   28   35 1   
    55   28   57 1   
    56   29   30 1   
    57   29   58 1   
    58   29   59 1   
    59   30   31 1   
    60   30   62 1   
    61   30   63 1   
    62   31   32 1   
    63   31   64 1   
    64   31   65 1   
    65   32   33 2   
    66   32   34 2   
    67   32   35 1   
    68   35   60 1   
    69   35   61 1   
@<TRIPOS>SUBSTRUCTURE
     1 3W5         1 TEMP              0 ****  ****    0 ROOT
