@<TRIPOS>MOLECULE
3W6
   28    28     1     0     0
SMALL
bcc


@<TRIPOS>ATOM
      1 CAN         0.0490   -0.0250   -0.1170 c3        1 3W6     -0.099100
      2 CAM         1.5450   -0.0620    0.0560 c3        1 3W6     -0.088400
      3 CAL         1.8970   -0.0190    1.5320 c3        1 3W6      0.121400
      4 OAH         3.3460   -0.0580    1.5780 os        1 3W6     -0.285900
      5 CAD         3.9380   -0.0110    2.7870 ca        1 3W6      0.284100
      6 CAC         3.2570    0.0440    4.0260 ca        1 3W6     -0.216500
      7 CAB         3.9800    0.0920    5.1960 ca        1 3W6      0.051000
      8 CAA         5.3990    0.0830    5.2080 ca        1 3W6     -0.637500
      9 SAG         6.2150    0.2270    6.5480 sy        1 3W6      1.511200
     10 OAI         7.5420    0.5750    6.4160 o         1 3W6     -0.575300
     11 OAJ         5.4830    0.5790    7.6630 o         1 3W6     -0.575300
     12 NAK         6.4440   -1.6720    6.9280 n4        1 3W6     -0.782500
     13 CAF         6.0560    0.0330    3.9470 ca        1 3W6      0.051000
     14 CAE         5.3620   -0.0180    2.7650 ca        1 3W6     -0.216500
     15 HAQ        -0.2040   -0.0570   -1.2060 hc        1 3W6      0.049700
     16 HAP        -0.3810    0.9100    0.3160 hc        1 3W6      0.049700
     17 HAR        -0.4330   -0.9010    0.3810 hc        1 3W6      0.049700
     18 HAN         1.9690   -0.9940   -0.4010 hc        1 3W6      0.068700
     19 HAO         2.0200    0.8110   -0.4650 hc        1 3W6      0.068700
     20 HAL         1.5460    0.9300    2.0140 h1        1 3W6      0.059700
     21 HAM         1.4960   -0.9110    2.0790 h1        1 3W6      0.059700
     22 HAC         2.1550    0.0600    4.0560 ha        1 3W6      0.183000
     23 HAB         3.4410    0.1580    6.1620 ha        1 3W6      0.168500
     24 HAS         7.4340   -1.9010    6.9780 hn        1 3W6      0.449800
     25 HAK         6.0240   -1.9030    7.8250 hn        1 3W6      0.449800
     26 HAF         7.1640    0.0560    3.9250 ha        1 3W6      0.168500
     27 HAE         5.8790   -0.0510    1.7910 ha        1 3W6      0.183000
     28 HAK3        6.0190   -2.2580    6.2200 hn        1 3W6      0.449800
@<TRIPOS>BOND
     1    1    2 1   
     2    1   15 1   
     3    1   16 1   
     4    1   17 1   
     5    2    3 1   
     6    2   18 1   
     7    2   19 1   
     8    3    4 1   
     9    3   20 1   
    10    3   21 1   
    11    4    5 1   
    12    5    6 ar  
    13    5   14 ar  
    14    6    7 ar  
    15    6   22 1   
    16    7    8 ar  
    17    7   23 1   
    18    8    9 1   
    19    8   13 ar  
    20    9   10 2   
    21    9   11 2   
    22    9   12 1   
    23   12   24 1   
    24   12   25 1   
    25   12   28 1   
    26   13   14 ar  
    27   13   26 1   
    28   14   27 1   
@<TRIPOS>SUBSTRUCTURE
     1 3W6         1 TEMP              0 ****  ****    0 ROOT
