@<TRIPOS>MOLECULE
3W6
   28    28     1     0     0
SMALL
bcc


@<TRIPOS>ATOM
      1 CAN         0.0750   -0.0210   -0.1440 c3        1 3W6     -0.099100
      2 CAM         1.5700   -0.0580    0.0400 c3        1 3W6     -0.088400
      3 CAL         1.9110   -0.0170    1.5190 c3        1 3W6      0.121400
      4 OAH         3.3590   -0.0570    1.5750 os        1 3W6     -0.285900
      5 CAD         3.9430   -0.0110    2.7880 ca        1 3W6      0.284100
      6 CAC         3.2520    0.0440    4.0220 ca        1 3W6     -0.216500
      7 CAB         3.9660    0.0910    5.1980 ca        1 3W6      0.051000
      8 CAA         5.3850    0.0810    5.2200 ca        1 3W6     -0.637500
      9 SAG         6.1920    0.2240    6.5670 sy        1 3W6      1.511200
     10 OAI         7.5200    0.5710    6.4450 o         1 3W6     -0.575300
     11 OAJ         5.4520    0.5750    7.6760 o         1 3W6     -0.575300
     12 NAK         6.4170   -1.6760    6.9470 nz        1 3W6     -0.782500
     13 CAF         6.0520    0.0300    3.9640 ca        1 3W6      0.051000
     14 CAE         5.3670   -0.0190    2.7770 ca        1 3W6     -0.216500
     15 HAQ        -0.4100   -0.8980    0.3490 hc        1 3W6      0.049700
     16 HAP        -0.1700   -0.0510   -1.2340 hc        1 3W6      0.049700
     17 HAR        -0.3580    0.9140    0.2870 hc        1 3W6      0.049700
     18 HAN         1.9960   -0.9900   -0.4150 hc        1 3W6      0.068700
     19 HAO         2.0480    0.8150   -0.4770 hc        1 3W6      0.068700
     20 HAL         1.5560    0.9320    1.9990 h1        1 3W6      0.059700
     21 HAM         1.5050   -0.9080    2.0620 h1        1 3W6      0.059700
     22 HAC         2.1510    0.0610    4.0450 ha        1 3W6      0.183000
     23 HAB         3.4210    0.1560    6.1600 ha        1 3W6      0.168500
     24 HAS         7.4060   -1.9050    7.0040 hn        1 3W6      0.449800
     25 HAK         5.9900   -1.9070    7.8410 hn        1 3W6      0.449800
     26 HAF         7.1600    0.0530    3.9500 ha        1 3W6      0.168500
     27 HAE         5.8910   -0.0520    1.8060 ha        1 3W6      0.183000
     28 HAK3        5.9970   -2.2610    6.2350 hn        1 3W6      0.449800
@<TRIPOS>BOND
     1    1    2 1   
     2    1   15 1   
     3    1   16 1   
     4    1   17 1   
     5    2    3 1   
     6    2   18 1   
     7    2   19 1   
     8    3    4 1   
     9    3   20 1   
    10    3   21 1   
    11    4    5 1   
    12    5    6 ar  
    13    5   14 ar  
    14    6    7 ar  
    15    6   22 1   
    16    7    8 ar  
    17    7   23 1   
    18    8    9 1   
    19    8   13 ar  
    20    9   10 2   
    21    9   11 2   
    22    9   12 1   
    23   12   24 1   
    24   12   25 1   
    25   12   28 1   
    26   13   14 ar  
    27   13   26 1   
    28   14   27 1   
@<TRIPOS>SUBSTRUCTURE
     1 3W6         1 TEMP              0 ****  ****    0 ROOT
