@<TRIPOS>MOLECULE
3W7
   54    56     1     0     0
SMALL
bcc


@<TRIPOS>ATOM
      1 C1         -0.6030   -0.9000   -0.3580 c3        1 3W7     -0.043000
      2 C2          0.7270   -0.3930   -0.1980 c1        1 3W7     -0.101000
      3 C3         -0.3580   -0.6020    2.0640 c1        1 3W7     -0.164000
      4 C4          1.8630    0.2490    3.1970 c3        1 3W7     -0.060000
      5 C5         -4.1880    7.1720    3.6590 c1        1 3W7     -0.205000
      6 C6          0.6050   -0.2230    2.6730 c1        1 3W7     -0.167000
      7 C7         -1.2780   -1.0380    1.0470 c3        1 3W7     -0.014000
      8 C8         -3.4730    5.8300    3.4080 c3        1 3W7     -0.133000
      9 C9          1.7380    0.0230    0.3050 c1        1 3W7     -0.190000
     10 C10        -3.2080    5.3830    4.8530 c2        1 3W7     -0.078000
     11 C11        -2.7710    3.9950    5.1330 c2        1 3W7      0.341000
     12 C12        -2.6190   -0.2990    1.0510 c2        1 3W7      0.302000
     13 C13        -4.2360    4.7710    2.6600 c3        1 3W7     -0.126000
     14 C14        -3.5160    2.9930    4.2790 c3        1 3W7     -0.182000
     15 C15        -4.3450    2.4020    1.9510 c3        1 3W7     -0.185000
     16 C16        -2.1080    3.5130    2.3040 c3        1 3W7     -0.239000
     17 C17        -4.3120    0.9290    2.3560 c3        1 3W7     -0.023000
     18 C18        -1.3070    4.2110    3.2840 c1        1 3W7     -0.081000
     19 C19        -3.5580    3.3940    2.8040 c3        1 3W7     -0.034000
     20 C20        -2.5830    7.4890    7.6100 c3        1 3W7     -0.217500
     21 C21        -4.8470    6.4650    7.8150 c3        1 3W7     -0.217500
     22 N23         2.8920    0.5800    2.1950 n2        1 3W7     -0.040000
     23 N24        -4.2070    7.4380    4.9340 n2        1 3W7     -0.183000
     24 N25         2.8490    0.4870    0.9850 n2        1 3W7      0.100000
     25 N26        -3.6190    6.3600    5.6580 n3        1 3W7      0.023000
     26 N27        -3.0530    0.2490    2.2380 n         1 3W7     -0.376000
     27 O28        -2.0420    3.6820    6.0790 o         1 3W7     -0.311000
     28 O29        -3.3180   -0.2560    0.0190 o         1 3W7     -0.363000
     29 H1         -1.2210   -0.2220   -1.0110 hc        1 3W7      0.137000
     30 H2         -0.5840   -1.9120   -0.8470 hc        1 3W7      0.137000
     31 H3         -1.5280   -2.1290    1.2090 hc        1 3W7      0.145000
     32 H4          2.3240   -0.5320    3.8720 h1        1 3W7      0.144000
     33 H5         -2.5020    6.0840    2.8980 hc        1 3W7      0.140000
     34 H6         -4.2950    5.0520    1.5760 hc        1 3W7      0.108500
     35 H7         -5.2860    4.7110    3.0500 hc        1 3W7      0.108500
     36 H8         -4.5630    2.9090    4.6750 hc        1 3W7      0.108500
     37 H9         -3.0130    1.9990    4.4000 hc        1 3W7      0.108500
     38 H10        -5.4310    2.6970    1.9750 hc        1 3W7      0.103500
     39 H11        -4.0020    2.4980    0.8860 hc        1 3W7      0.103500
     40 H12        -1.6450    2.4860    2.2080 hc        1 3W7      0.133000
     41 H13        -2.0980    3.9670    1.2740 hc        1 3W7      0.133000
     42 H14        -4.6590    0.8250    3.4240 h1        1 3W7      0.103000
     43 H15        -5.0540    0.3930    1.6910 h1        1 3W7      0.103000
     44 H16        -2.4320    0.2790    3.0120 hn        1 3W7      0.232000
     45 H17        -0.3670    4.6840    2.9780 ha        1 3W7      0.083000
     46 H18        -1.5660    7.4110    7.1570 hc        1 3W7      0.094833
     47 H19        -2.4870    7.4090    8.7200 hc        1 3W7      0.094833
     48 H20        -3.0170    8.4860    7.3540 hc        1 3W7      0.094833
     49 H21        -3.0100    5.3690    7.4080 h1        1 3W7      0.121000
     50 H22        -4.6860    6.4090    8.9180 hc        1 3W7      0.094833
     51 H23        -5.3450    7.4340    7.5700 hc        1 3W7      0.094833
     52 H24        -5.5210    5.6290    7.5100 hc        1 3W7      0.094833
     53 H25         1.7120    1.1860    3.8100 h1        1 3W7      0.144000
     54 C22        -3.4890    6.3580    7.1260 c3        1 3W7     -0.002000
@<TRIPOS>BOND
     1    1    2 1   
     2    1    7 1   
     3    1   29 1   
     4    1   30 1   
     5    2    9 1   
     6    3    6 1   
     7    3    7 1   
     8    4    6 1   
     9    4   22 1   
    10    4   32 1   
    11    4   53 1   
    12    5    8 1   
    13    5   23 1   
    14    7   12 1   
    15    7   31 1   
    16    8   10 1   
    17    8   13 1   
    18    8   33 1   
    19    9   24 1   
    20   10   11 1   
    21   10   25 1   
    22   11   14 1   
    23   11   27 1   
    24   12   26 1   
    25   12   28 1   
    26   13   19 1   
    27   13   34 1   
    28   13   35 1   
    29   14   19 1   
    30   14   36 1   
    31   14   37 1   
    32   15   17 1   
    33   15   19 1   
    34   15   38 1   
    35   15   39 1   
    36   16   18 1   
    37   16   19 1   
    38   16   40 1   
    39   16   41 1   
    40   17   26 1   
    41   17   42 1   
    42   17   43 1   
    43   18   45 1   
    44   20   46 1   
    45   20   47 1   
    46   20   48 1   
    47   20   54 1   
    48   21   50 1   
    49   21   51 1   
    50   21   52 1   
    51   21   54 1   
    52   22   24 1   
    53   23   25 1   
    54   25   54 1   
    55   26   44 1   
    56   49   54 1   
@<TRIPOS>SUBSTRUCTURE
     1 3W7         1 TEMP              0 ****  ****    0 ROOT
