@<TRIPOS>MOLECULE
3W7
   54    57     1     0     0
SMALL
bcc


@<TRIPOS>ATOM
      1 C1         -0.6260    0.7310   -0.2380 c3        1 3W7      0.007700
      2 C2          0.7060    1.0360    0.1950 c1        1 3W7     -0.091100
      3 C3         -0.1660   -0.9330    1.5130 c1        1 3W7     -0.105100
      4 C4          2.1030   -1.0560    2.8420 c3        1 3W7      0.121900
      5 C5         -3.8220    7.0400    3.2270 c1        1 3W7      0.164700
      6 C6          0.8260   -1.0740    2.1750 c1        1 3W7     -0.152100
      7 C7         -1.1340   -0.5350    0.5280 c3        1 3W7     -0.049600
      8 C8         -3.2920    5.6010    3.3290 c3        1 3W7     -0.192900
      9 C9          1.7450    0.9850    0.8010 cg        1 3W7     -0.124000
     10 C10        -3.2750    5.4250    4.8540 ce        1 3W7      0.071300
     11 C11        -3.0320    4.0870    5.4210 c         1 3W7      0.497800
     12 C12        -2.5450   -0.3160    1.0750 c         1 3W7      0.665100
     13 C13        -4.1280    4.5220    2.6960 c3        1 3W7     -0.045400
     14 C14        -3.7430    2.9970    4.6670 c3        1 3W7     -0.169400
     15 C15        -4.6310    2.1070    2.5130 c3        1 3W7     -0.098900
     16 C16        -2.2520    2.8590    2.6450 c3        1 3W7     -0.098900
     17 C17        -4.1440    0.6650    2.6510 c3        1 3W7      0.081500
     18 C18        -1.8320    1.3910    2.7590 c3        1 3W7      0.081500
     19 C19        -3.6740    3.1230    3.1420 c3        1 3W7     -0.047000
     20 C20        -2.7650    7.9550    7.2640 c3        1 3W7     -0.100600
     21 C21        -5.1400    7.1960    7.2920 c3        1 3W7     -0.100600
     22 N23         3.0410   -0.0090    2.3990 n2        1 3W7     -0.162200
     23 N24        -3.9790    7.5500    4.4170 n1        1 3W7     -0.507800
     24 N25         2.9010    0.8460    1.5490 ne        1 3W7      0.043000
     25 N26        -3.6540    6.5770    5.4000 nh        1 3W7      0.013600
     26 N27        -2.7820    0.4620    2.1970 n         1 3W7     -0.453800
     27 O28        -2.3420    3.8900    6.4220 o         1 3W7     -0.497100
     28 O29        -3.4860   -0.9100    0.5100 o         1 3W7     -0.599100
     29 H1         -1.3120    1.6000   -0.0460 hc        1 3W7      0.084700
     30 H2         -0.6480    0.5160   -1.3410 hc        1 3W7      0.084700
     31 H3         -1.2360   -1.3730   -0.2290 hc        1 3W7      0.114700
     32 H4          2.6410   -2.0400    2.6900 h1        1 3W7      0.103200
     33 H5         -2.2420    5.5950    2.9290 hc        1 3W7      0.116700
     34 H6         -5.2070    4.6620    2.9680 hc        1 3W7      0.069700
     35 H7         -4.0500    4.6100    1.5800 hc        1 3W7      0.069700
     36 H8         -4.8210    3.0300    4.9880 hc        1 3W7      0.083700
     37 H9         -3.3230    2.0050    4.9840 hc        1 3W7      0.083700
     38 H10        -5.6400    2.1850    2.9960 hc        1 3W7      0.057950
     39 H11        -4.7570    2.3560    1.4260 hc        1 3W7      0.057950
     40 H12        -2.1780    3.1880    1.5750 hc        1 3W7      0.057950
     41 H13        -1.5240    3.4690    3.2420 hc        1 3W7      0.057950
     42 H14        -4.1840    0.3630    3.7370 h1        1 3W7      0.065200
     43 H15        -4.8400   -0.0100    2.0740 h1        1 3W7      0.065200
     44 H16        -1.7090    1.1290    3.8510 h1        1 3W7      0.065200
     45 H17        -0.8250    1.2740    2.2680 h1        1 3W7      0.065200
     46 H18        -1.7120    7.7040    6.9910 hc        1 3W7      0.058367
     47 H19        -2.8280    8.0750    8.3730 hc        1 3W7      0.058367
     48 H20        -3.0430    8.9220    6.7780 hc        1 3W7      0.058367
     49 H21        -3.4050    5.8820    7.3680 h1        1 3W7      0.073700
     50 H22        -5.1360    7.3390    8.3990 hc        1 3W7      0.058367
     51 H23        -5.4850    8.1410    6.8060 hc        1 3W7      0.058367
     52 H24        -5.8590    6.3800    7.0390 hc        1 3W7      0.058367
     53 H25         1.9690   -0.9050    3.9540 h1        1 3W7      0.103200
     54 C22        -3.7230    6.8400    6.8500 c3        1 3W7      0.016000
@<TRIPOS>BOND
     1    1    2 1   
     2    1    7 1   
     3    1   29 1   
     4    1   30 1   
     5    2    9 3   
     6    3    6 3   
     7    3    7 1   
     8    4    6 1   
     9    4   22 1   
    10    4   32 1   
    11    4   53 1   
    12    5    8 1   
    13    5   23 3   
    14    7   12 1   
    15    7   31 1   
    16    8   10 1   
    17    8   13 1   
    18    8   33 1   
    19    9   24 1   
    20   10   11 1   
    21   10   25 2   
    22   11   14 1   
    23   11   27 2   
    24   12   26 1   
    25   12   28 2   
    26   13   19 1   
    27   13   34 1   
    28   13   35 1   
    29   14   19 1   
    30   14   36 1   
    31   14   37 1   
    32   15   17 1   
    33   15   19 1   
    34   15   38 1   
    35   15   39 1   
    36   16   18 1   
    37   16   19 1   
    38   16   40 1   
    39   16   41 1   
    40   17   26 1   
    41   17   42 1   
    42   17   43 1   
    43   18   26 1   
    44   18   44 1   
    45   18   45 1   
    46   20   46 1   
    47   20   47 1   
    48   20   48 1   
    49   20   54 1   
    50   21   50 1   
    51   21   51 1   
    52   21   52 1   
    53   21   54 1   
    54   22   24 2   
    55   23   25 1   
    56   25   54 1   
    57   49   54 1   
@<TRIPOS>SUBSTRUCTURE
     1 3W7         1 TEMP              0 ****  ****    0 ROOT
