@<TRIPOS>MOLECULE
3W8
   25    25     1     0     0
SMALL
bcc


@<TRIPOS>ATOM
      1 CAM         0.0250    0.0510    0.0810 c3        1 3W8     -0.109100
      2 CAL         1.5220    0.0170   -0.1030 c3        1 3W8      0.125400
      3 OAH         2.0720    0.0500    1.2390 os        1 3W8     -0.287900
      4 CAD         3.4120    0.0080    1.3730 ca        1 3W8      0.283100
      5 CAC         4.3350   -0.0350    0.3020 ca        1 3W8     -0.216500
      6 CAB         5.6850   -0.0780    0.5710 ca        1 3W8      0.051000
      7 CAA         6.1910   -0.0750    1.8970 ca        1 3W8     -0.636500
      8 SAG         7.7320   -0.2140    2.1940 sy        1 3W8      1.511200
      9 OAI         8.0720   -0.5700    3.4820 o         1 3W8     -0.575300
     10 OAJ         8.5240   -0.5550    1.1180 o         1 3W8     -0.575300
     11 NAK         8.1590    1.6860    2.2910 nz        1 3W8     -0.782500
     12 CAF         5.2370   -0.0370    2.9540 ca        1 3W8      0.051000
     13 CAE         3.8870    0.0090    2.7150 ca        1 3W8     -0.216500
     14 HAN        -0.2870    0.9810    0.6140 hc        1 3W8      0.069033
     15 HAO        -0.4590    0.0260   -0.9260 hc        1 3W8      0.069033
     16 HAP        -0.3200   -0.8300    0.6740 hc        1 3W8      0.069033
     17 HAL         1.8590   -0.9270   -0.6050 h1        1 3W8      0.059700
     18 HAM         1.8950    0.9130   -0.6630 h1        1 3W8      0.059700
     19 HAC         3.9810   -0.0450   -0.7410 ha        1 3W8      0.183000
     20 HAB         6.4030   -0.1340   -0.2700 ha        1 3W8      0.168500
     21 HAQ         8.8520    1.9250    1.5870 hn        1 3W8      0.449800
     22 HAK         7.3440    2.2700    2.1440 hn        1 3W8      0.449800
     23 HAF         5.6030   -0.0650    3.9990 ha        1 3W8      0.168500
     24 HAE         3.1540    0.0330    3.5390 ha        1 3W8      0.183000
     25 HAK3        8.5500    1.9100    3.2030 hn        1 3W8      0.449800
@<TRIPOS>BOND
     1    1    2 1   
     2    1   14 1   
     3    1   15 1   
     4    1   16 1   
     5    2    3 1   
     6    2   17 1   
     7    2   18 1   
     8    3    4 1   
     9    4    5 ar  
    10    4   13 ar  
    11    5    6 ar  
    12    5   19 1   
    13    6    7 ar  
    14    6   20 1   
    15    7    8 1   
    16    7   12 ar  
    17    8    9 2   
    18    8   10 2   
    19    8   11 1   
    20   11   21 1   
    21   11   22 1   
    22   11   25 1   
    23   12   13 ar  
    24   12   23 1   
    25   13   24 1   
@<TRIPOS>SUBSTRUCTURE
     1 3W8         1 TEMP              0 ****  ****    0 ROOT
