@<TRIPOS>MOLECULE
3W8
   25    25     1     0     0
SMALL
bcc


@<TRIPOS>ATOM
      1 CAM         0.0270    0.0480    0.0730 c3        1 3W8     -0.109100
      2 CAL         1.5240    0.0060   -0.1060 c3        1 3W8      0.125400
      3 OAH         2.0710    0.0570    1.2360 os        1 3W8     -0.287900
      4 CAD         3.4110    0.0130    1.3740 ca        1 3W8      0.283100
      5 CAC         4.3370   -0.0500    0.3060 ca        1 3W8     -0.216500
      6 CAB         5.6860   -0.0930    0.5790 ca        1 3W8      0.051000
      7 CAA         6.1880   -0.0720    1.9060 ca        1 3W8     -0.636500
      8 SAG         7.7290   -0.2120    2.2090 sy        1 3W8      1.511200
      9 OAI         8.0640   -0.5500    3.5030 o         1 3W8     -0.575300
     10 OAJ         8.5210   -0.5720    1.1390 o         1 3W8     -0.575300
     11 NAK         8.1620    1.6870    2.2780 n4        1 3W8     -0.782500
     12 CAF         5.2320   -0.0150    2.9600 ca        1 3W8      0.051000
     13 CAE         3.8830    0.0320    2.7170 ca        1 3W8     -0.216500
     14 HAN        -0.3230   -0.8230    0.6790 hc        1 3W8      0.069033
     15 HAO        -0.2830    0.9870    0.5920 hc        1 3W8      0.069033
     16 HAP        -0.4550    0.0100   -0.9340 hc        1 3W8      0.069033
     17 HAL         1.9010    0.8930   -0.6790 h1        1 3W8      0.059700
     18 HAM         1.8600   -0.9470   -0.5930 h1        1 3W8      0.059700
     19 HAC         3.9840   -0.0750   -0.7370 ha        1 3W8      0.183000
     20 HAB         6.4060   -0.1650   -0.2600 ha        1 3W8      0.168500
     21 HAQ         7.3490    2.2720    2.1200 hn        1 3W8      0.449800
     22 HAK         8.8570    1.9140    1.5720 hn        1 3W8      0.449800
     23 HAF         5.5960   -0.0290    4.0060 ha        1 3W8      0.168500
     24 HAE         3.1480    0.0710    3.5390 ha        1 3W8      0.183000
     25 HAK3        8.5510    1.9240    3.1870 hn        1 3W8      0.449800
@<TRIPOS>BOND
     1    1    2 1   
     2    1   14 1   
     3    1   15 1   
     4    1   16 1   
     5    2    3 1   
     6    2   17 1   
     7    2   18 1   
     8    3    4 1   
     9    4    5 ar  
    10    4   13 ar  
    11    5    6 ar  
    12    5   19 1   
    13    6    7 ar  
    14    6   20 1   
    15    7    8 1   
    16    7   12 ar  
    17    8    9 2   
    18    8   10 2   
    19    8   11 1   
    20   11   21 1   
    21   11   22 1   
    22   11   25 1   
    23   12   13 ar  
    24   12   23 1   
    25   13   24 1   
@<TRIPOS>SUBSTRUCTURE
     1 3W8         1 TEMP              0 ****  ****    0 ROOT
