@<TRIPOS>MOLECULE
3W9
   28    28     1     0     0
SMALL
bcc


@<TRIPOS>ATOM
      1 C13         0.0610    0.0170   -0.0730 c         1 3W9      0.583500
      2 O01         1.2680    0.2560   -0.1760 o         1 3W9     -0.546100
      3 C12        -0.6660    0.0020    1.1980 ca        1 3W9     -0.257600
      4 C10        -2.0380   -0.2790    1.2250 ca        1 3W9     -0.033500
      5 C08        -2.7410   -0.2990    2.4180 ca        1 3W9     -0.226000
      6 C05        -2.0870   -0.0310    3.6530 ca        1 3W9      0.234600
      7 C09        -0.6960    0.2560    3.6110 ca        1 3W9     -0.226000
      8 C11        -0.0100    0.2650    2.4070 ca        1 3W9     -0.033500
      9 N02        -2.7850   -0.0730    4.8530 nh        1 3W9     -0.696000
     10 C04        -4.2230    0.0590    4.8820 c3        1 3W9      0.220800
     11 C07        -4.9830   -1.2600    4.9190 c3        1 3W9     -0.120600
     12 C03        -2.0990   -0.0550    6.1220 c3        1 3W9      0.220800
     13 C06        -1.7930    1.3250    6.6880 c3        1 3W9     -0.120600
     14 H1         -0.5580   -0.2060   -0.9740 h4        1 3W9     -0.010800
     15 H2         -2.5700   -0.4920    0.2830 ha        1 3W9      0.139500
     16 H3         -3.8130   -0.5450    2.3980 ha        1 3W9      0.136500
     17 H4         -0.1440    0.4860    4.5350 ha        1 3W9      0.136500
     18 H5          1.0700    0.4890    2.3880 ha        1 3W9      0.139500
     19 H6         -4.5640    0.6530    3.9860 h1        1 3W9      0.049200
     20 H7         -4.5000    0.6570    5.8000 h1        1 3W9      0.049200
     21 H8         -4.7700   -1.8740    4.0120 hc        1 3W9      0.043033
     22 H9         -6.0770   -1.0420    4.9570 hc        1 3W9      0.043033
     23 H10        -4.7060   -1.8570    5.8210 hc        1 3W9      0.043033
     24 H11        -1.1350   -0.6340    6.0230 h1        1 3W9      0.049200
     25 H12        -2.7470   -0.6100    6.8620 h1        1 3W9      0.049200
     26 H13        -1.1340    1.9070    6.0010 hc        1 3W9      0.043033
     27 H14        -2.7310    1.9080    6.8540 hc        1 3W9      0.043033
     28 H15        -1.2710    1.2040    7.6680 hc        1 3W9      0.043033
@<TRIPOS>BOND
     1    1    2 2   
     2    1    3 1   
     3    1   14 1   
     4    3    4 ar  
     5    3    8 ar  
     6    4    5 ar  
     7    4   15 1   
     8    5    6 ar  
     9    5   16 1   
    10    6    7 ar  
    11    6    9 1   
    12    7    8 ar  
    13    7   17 1   
    14    8   18 1   
    15    9   10 1   
    16    9   12 1   
    17   10   11 1   
    18   10   19 1   
    19   10   20 1   
    20   11   21 1   
    21   11   22 1   
    22   11   23 1   
    23   12   13 1   
    24   12   24 1   
    25   12   25 1   
    26   13   26 1   
    27   13   27 1   
    28   13   28 1   
@<TRIPOS>SUBSTRUCTURE
     1 3W9         1 TEMP              0 ****  ****    0 ROOT
