@<TRIPOS>MOLECULE
3W9
   28    28     1     0     0
SMALL
bcc


@<TRIPOS>ATOM
      1 C13         0.0620    0.0340   -0.0720 c         1 3W9      0.583500
      2 O01         1.2720    0.2580   -0.1720 o         1 3W9     -0.546100
      3 C12        -0.6660    0.0130    1.1980 ca        1 3W9     -0.257600
      4 C10        -2.0410   -0.2500    1.2220 ca        1 3W9     -0.033500
      5 C08        -2.7440   -0.2770    2.4150 ca        1 3W9     -0.225500
      6 C05        -2.0880   -0.0310    3.6530 ca        1 3W9      0.234600
      7 C09        -0.6930    0.2380    3.6140 ca        1 3W9     -0.225500
      8 C11        -0.0070    0.2530    2.4100 ca        1 3W9     -0.033500
      9 N02        -2.7860   -0.0790    4.8520 nh        1 3W9     -0.696000
     10 C04        -4.2220    0.0730    4.8830 c3        1 3W9      0.220800
     11 C07        -5.0000   -1.2360    4.9040 c3        1 3W9     -0.120600
     12 C03        -2.1000   -0.0830    6.1210 c3        1 3W9      0.220800
     13 C06        -1.7770    1.2870    6.7020 c3        1 3W9     -0.120600
     14 H1         -0.5590   -0.1700   -0.9760 h4        1 3W9     -0.010800
     15 H2         -2.5750   -0.4450    0.2770 ha        1 3W9      0.139500
     16 H3         -3.8200   -0.5080    2.3920 ha        1 3W9      0.136500
     17 H4         -0.1380    0.4510    4.5400 ha        1 3W9      0.136500
     18 H5          1.0760    0.4630    2.3940 ha        1 3W9      0.139500
     19 H6         -4.5540    0.6820    3.9930 h1        1 3W9      0.049200
     20 H7         -4.4920    0.6630    5.8070 h1        1 3W9      0.049200
     21 H8         -4.7320   -1.8470    5.7990 hc        1 3W9      0.043033
     22 H9         -4.7960   -1.8420    3.9900 hc        1 3W9      0.043033
     23 H10        -6.0920   -1.0030    4.9440 hc        1 3W9      0.043033
     24 H11        -2.7550   -0.6380    6.8550 h1        1 3W9      0.049200
     25 H12        -1.1440   -0.6730    6.0160 h1        1 3W9      0.049200
     26 H13        -2.7070    1.8800    6.8740 hc        1 3W9      0.043033
     27 H14        -1.2560    1.1490    7.6800 hc        1 3W9      0.043033
     28 H15        -1.1100    1.8680    6.0210 hc        1 3W9      0.043033
@<TRIPOS>BOND
     1    1    2 2   
     2    1    3 1   
     3    1   14 1   
     4    3    4 ar  
     5    3    8 ar  
     6    4    5 ar  
     7    4   15 1   
     8    5    6 ar  
     9    5   16 1   
    10    6    7 ar  
    11    6    9 1   
    12    7    8 ar  
    13    7   17 1   
    14    8   18 1   
    15    9   10 1   
    16    9   12 1   
    17   10   11 1   
    18   10   19 1   
    19   10   20 1   
    20   11   21 1   
    21   11   22 1   
    22   11   23 1   
    23   12   13 1   
    24   12   24 1   
    25   12   25 1   
    26   13   26 1   
    27   13   27 1   
    28   13   28 1   
@<TRIPOS>SUBSTRUCTURE
     1 3W9         1 TEMP              0 ****  ****    0 ROOT
