@<TRIPOS>MOLECULE
3WA
   18    19     1     0     0
SMALL
bcc


@<TRIPOS>ATOM
      1 C1         -0.0430    0.0010   -0.0410 ca        1 3WA     -0.498200
      2 C2          1.3910    0.0110   -0.0100 ca        1 3WA      0.719200
      3 C3         -0.7510   -0.0450   -1.3180 c         1 3WA      0.605900
      4 N6          2.1060    0.0530    1.1670 nb        1 3WA     -0.807000
      5 C7          0.0980   -0.0780   -2.5080 cc        1 3WA     -0.308200
      6 C11         1.4510   -0.0660   -2.4140 cd        1 3WA      0.104000
      7 C12         1.3610    0.0840    2.2940 ca        1 3WA      0.725900
      8 C4         -0.7110    0.0370    1.2460 ca        1 3WA      0.770200
      9 N5          2.1110   -0.0230   -1.2040 na        1 3WA     -0.714700
     10 O8         -1.9940   -0.0560   -1.4280 o         1 3WA     -0.610100
     11 N9          0.0210    0.0800    2.4210 nb        1 3WA     -0.813000
     12 N10        -2.0700    0.0320    1.3420 nv        1 3WA     -0.944500
     13 H1         -0.4070   -0.1120   -3.4830 ha        1 3WA      0.167000
     14 H2          2.1110   -0.0910   -3.3020 h4        1 3WA      0.157000
     15 H3          1.9360    0.1180    3.2460 h5        1 3WA      0.054100
     16 H4          3.1070   -0.0160   -1.1760 hn        1 3WA      0.467800
     17 H5         -2.5110    0.0580    2.2290 hn        1 3WA      0.462300
     18 H6         -2.6260    0.0020    0.5170 hn        1 3WA      0.462300
@<TRIPOS>BOND
     1    1    2 ar  
     2    1    3 1   
     3    1    8 ar  
     4    2    4 ar  
     5    2    9 1   
     6    3    5 1   
     7    3   10 2   
     8    4    7 ar  
     9    5    6 2   
    10    5   13 1   
    11    6    9 1   
    12    6   14 1   
    13    7   11 ar  
    14    7   15 1   
    15    8   11 ar  
    16    8   12 1   
    17    9   16 1   
    18   12   17 1   
    19   12   18 1   
@<TRIPOS>SUBSTRUCTURE
     1 3WA         1 TEMP              0 ****  ****    0 ROOT
