@<TRIPOS>MOLECULE
3WA
   18    19     1     0     0
SMALL
bcc


@<TRIPOS>ATOM
      1 C1         -0.0440   -0.0020   -0.0400 ca        1 3WA     -0.498200
      2 C2          1.3900    0.0110   -0.0040 ca        1 3WA      0.719200
      3 C3         -0.7470   -0.0430   -1.3190 c         1 3WA      0.605900
      4 N6          2.1020    0.0500    1.1750 nb        1 3WA     -0.807000
      5 C7          0.1060   -0.0700   -2.5070 cc        1 3WA     -0.308200
      6 C11         1.4590   -0.0560   -2.4080 cd        1 3WA      0.104000
      7 C12         1.3530    0.0750    2.3000 ca        1 3WA      0.725900
      8 C4         -0.7160    0.0290    1.2450 ca        1 3WA      0.770200
      9 N5          2.1150   -0.0160   -1.1960 na        1 3WA     -0.714700
     10 O8         -1.9900   -0.0570   -1.4330 o         1 3WA     -0.610100
     11 N9          0.0130    0.0680    2.4230 nb        1 3WA     -0.813000
     12 N10        -2.0750    0.0200    1.3370 nh        1 3WA     -0.944500
     13 H1         -0.3960   -0.1010   -3.4840 ha        1 3WA      0.167000
     14 H2          2.1210   -0.0750   -3.2950 h4        1 3WA      0.157000
     15 H3          1.9250    0.1070    3.2540 h5        1 3WA      0.054100
     16 H4          3.1100   -0.0070   -1.1650 hn        1 3WA      0.467800
     17 H5         -2.5190    0.0420    2.2230 hn        1 3WA      0.462300
     18 H6         -2.6280   -0.0080    0.5100 hn        1 3WA      0.462300
@<TRIPOS>BOND
     1    1    2 ar  
     2    1    3 1   
     3    1    8 ar  
     4    2    4 ar  
     5    2    9 1   
     6    3    5 1   
     7    3   10 2   
     8    4    7 ar  
     9    5    6 2   
    10    5   13 1   
    11    6    9 1   
    12    6   14 1   
    13    7   11 ar  
    14    7   15 1   
    15    8   11 ar  
    16    8   12 1   
    17    9   16 1   
    18   12   17 1   
    19   12   18 1   
@<TRIPOS>SUBSTRUCTURE
     1 3WA         1 TEMP              0 ****  ****    0 ROOT
