@<TRIPOS>MOLECULE
3WC
   34    36     1     0     0
SMALL
bcc


@<TRIPOS>ATOM
      1 C4          0.0220   -0.0640    0.0480 ca        1 3WC     -0.252300
      2 C5          1.3910    0.0220    0.0120 ca        1 3WC     -0.017300
      3 C6          2.1060    0.1460   -1.2800 c3        1 3WC     -0.062800
      4 C8         -2.7630    0.0390    2.5700 c3        1 3WC      0.182300
      5 C10        -4.2890    0.1890    2.3920 c3        1 3WC      0.158800
      6 N12        -4.8780   -0.8880    1.6210 n3        1 3WC     -0.820200
      7 C13        -4.1900   -1.1380    0.3720 c3        1 3WC      0.158800
      8 C15        -2.6650   -1.2910    0.5480 c3        1 3WC      0.182300
      9 C11        -0.6580   -0.1800    1.3240 ca        1 3WC      0.634200
     10 C20         3.5410    0.0810    1.2890 ca        1 3WC     -0.105000
     11 C22         1.3860   -0.1140    2.4550 ca        1 3WC      0.427600
     12 N10        -2.0880   -0.1790    1.2970 nh        1 3WC     -0.733300
     13 C24         2.1080   -0.1330    3.6940 ca        1 3WC     -0.174300
     14 C26         3.4770   -0.0500    3.7010 ca        1 3WC     -0.119000
     15 N11         0.0130   -0.2120    2.4860 nb        1 3WC     -0.718000
     16 C2          2.1270   -0.0030    1.2390 ca        1 3WC     -0.164300
     17 C28         4.2030    0.0580    2.4920 ca        1 3WC     -0.138000
     18 H4         -0.5670   -0.0210   -0.8790 ha        1 3WC      0.147000
     19 H61C        2.8100   -0.7130   -1.4170 hc        1 3WC      0.050700
     20 H62C        2.6990    1.0950   -1.3040 hc        1 3WC      0.050700
     21 H63C        1.3920    0.1560   -2.1400 hc        1 3WC      0.050700
     22 H82C       -2.3720    0.9950    3.0180 h1        1 3WC      0.051700
     23 H101       -4.7550    0.1670    3.4170 h1        1 3WC      0.035700
     24 H102       -4.4980    1.2020    1.9390 h1        1 3WC      0.035700
     25 H12        -5.8480   -0.6970    1.4480 hn        1 3WC      0.364800
     26 H131       -4.3790   -0.3280   -0.3920 h1        1 3WC      0.035700
     27 H132       -4.5840   -2.1060   -0.0470 h1        1 3WC      0.035700
     28 H151       -2.2010   -1.3220   -0.4760 h1        1 3WC      0.051700
     29 H152       -2.4560   -2.2760    1.0570 h1        1 3WC      0.051700
     30 H20         4.1020    0.1650    0.3460 ha        1 3WC      0.132000
     31 H28         5.3000    0.1230    2.5300 ha        1 3WC      0.133000
     32 H24         1.5450   -0.2170    4.6370 ha        1 3WC      0.149000
     33 H26         4.0290   -0.0660    4.6540 ha        1 3WC      0.134000
     34 H81C       -2.5650   -0.8000    3.2970 h1        1 3WC      0.051700
@<TRIPOS>BOND
     1    1    2 ar  
     2    1    9 ar  
     3    1   18 1   
     4    2    3 1   
     5    2   16 ar  
     6    3   19 1   
     7    3   20 1   
     8    3   21 1   
     9    4    5 1   
    10    4   12 1   
    11    4   22 1   
    12    4   34 1   
    13    5    6 1   
    14    5   23 1   
    15    5   24 1   
    16    6    7 1   
    17    6   25 1   
    18    7    8 1   
    19    7   26 1   
    20    7   27 1   
    21    8   12 1   
    22    8   28 1   
    23    8   29 1   
    24    9   12 1   
    25    9   15 ar  
    26   10   16 ar  
    27   10   17 ar  
    28   10   30 1   
    29   11   13 ar  
    30   11   15 ar  
    31   11   16 ar  
    32   13   14 ar  
    33   13   32 1   
    34   14   17 ar  
    35   14   33 1   
    36   17   31 1   
@<TRIPOS>SUBSTRUCTURE
     1 3WC         1 TEMP              0 ****  ****    0 ROOT
