@<TRIPOS>MOLECULE
3WC
   34    36     1     0     0
SMALL
bcc


@<TRIPOS>ATOM
      1 C4          0.0220   -0.0650    0.0480 ca        1 3WC     -0.252300
      2 C5          1.3920    0.0190    0.0130 ca        1 3WC     -0.017300
      3 C6          2.1080    0.1420   -1.2790 c3        1 3WC     -0.062800
      4 C8         -2.7630    0.0440    2.5690 c3        1 3WC      0.182300
      5 C10        -4.2890    0.1960    2.3910 c3        1 3WC      0.158800
      6 N12        -4.8800   -0.8800    1.6200 n7        1 3WC     -0.820200
      7 C13        -4.1910   -1.1330    0.3710 c3        1 3WC      0.158800
      8 C15        -2.6660   -1.2880    0.5480 c3        1 3WC      0.182300
      9 C11        -0.6580   -0.1790    1.3240 ca        1 3WC      0.634200
     10 C20         3.5420    0.0740    1.2900 ca        1 3WC     -0.105000
     11 C22         1.3860   -0.1160    2.4550 ca        1 3WC      0.427600
     12 N10        -2.0880   -0.1760    1.2960 nh        1 3WC     -0.733300
     13 C24         2.1080   -0.1370    3.6950 ca        1 3WC     -0.174300
     14 C26         3.4770   -0.0560    3.7020 ca        1 3WC     -0.119000
     15 N11         0.0130   -0.2130    2.4860 nb        1 3WC     -0.718000
     16 C2          2.1270   -0.0070    1.2400 ca        1 3WC     -0.164300
     17 C28         4.2030    0.0500    2.4940 ca        1 3WC     -0.138000
     18 H4         -0.5660   -0.0220   -0.8800 ha        1 3WC      0.147000
     19 H61C        2.7020    1.0900   -1.3030 hc        1 3WC      0.050700
     20 H62C        2.8110   -0.7180   -1.4160 hc        1 3WC      0.050700
     21 H63C        1.3940    0.1530   -2.1390 hc        1 3WC      0.050700
     22 H82C       -2.3700    0.9990    3.0170 h1        1 3WC      0.051700
     23 H101       -4.4960    1.2090    1.9370 h1        1 3WC      0.035700
     24 H102       -4.7550    0.1750    3.4160 h1        1 3WC      0.035700
     25 H12        -5.8480   -0.6880    1.4460 hn        1 3WC      0.364800
     26 H131       -4.3790   -0.3230   -0.3940 h1        1 3WC      0.035700
     27 H132       -4.5870   -2.1000   -0.0480 h1        1 3WC      0.035700
     28 H151       -2.4590   -2.2730    1.0580 h1        1 3WC      0.051700
     29 H152       -2.2020   -1.3200   -0.4760 h1        1 3WC      0.051700
     30 H20         4.1030    0.1580    0.3470 ha        1 3WC      0.132000
     31 H28         5.3010    0.1140    2.5320 ha        1 3WC      0.133000
     32 H24         1.5440   -0.2200    4.6370 ha        1 3WC      0.149000
     33 H26         4.0280   -0.0730    4.6550 ha        1 3WC      0.134000
     34 H81C       -2.5660   -0.7950    3.2970 h1        1 3WC      0.051700
@<TRIPOS>BOND
     1    1    2 ar  
     2    1    9 ar  
     3    1   18 1   
     4    2    3 1   
     5    2   16 ar  
     6    3   19 1   
     7    3   20 1   
     8    3   21 1   
     9    4    5 1   
    10    4   12 1   
    11    4   22 1   
    12    4   34 1   
    13    5    6 1   
    14    5   23 1   
    15    5   24 1   
    16    6    7 1   
    17    6   25 1   
    18    7    8 1   
    19    7   26 1   
    20    7   27 1   
    21    8   12 1   
    22    8   28 1   
    23    8   29 1   
    24    9   12 1   
    25    9   15 ar  
    26   10   16 ar  
    27   10   17 ar  
    28   10   30 1   
    29   11   13 ar  
    30   11   15 ar  
    31   11   16 ar  
    32   13   14 ar  
    33   13   32 1   
    34   14   17 ar  
    35   14   33 1   
    36   17   31 1   
@<TRIPOS>SUBSTRUCTURE
     1 3WC         1 TEMP              0 ****  ****    0 ROOT
