@<TRIPOS>MOLECULE
3WC
   34    36     1     0     0
SMALL
bcc


@<TRIPOS>ATOM
      1 C4          0.0220   -0.0660    0.0480 ca        1 3WC     -0.252300
      2 C5          1.3920    0.0180    0.0120 ca        1 3WC     -0.017300
      3 C6          2.1070    0.1390   -1.2800 c3        1 3WC     -0.062800
      4 C8         -2.7630    0.0430    2.5700 c3        1 3WC      0.182300
      5 C10        -4.2890    0.1940    2.3920 c3        1 3WC      0.158800
      6 N12        -4.8790   -0.8820    1.6210 n3        1 3WC     -0.820200
      7 C13        -4.1910   -1.1340    0.3720 c3        1 3WC      0.158800
      8 C15        -2.6660   -1.2890    0.5480 c3        1 3WC      0.182300
      9 C11        -0.6580   -0.1790    1.3240 ca        1 3WC      0.634200
     10 C20         3.5410    0.0760    1.2890 ca        1 3WC     -0.105000
     11 C22         1.3860   -0.1140    2.4550 ca        1 3WC      0.427600
     12 N10        -2.0880   -0.1770    1.2960 nh        1 3WC     -0.733300
     13 C24         2.1080   -0.1330    3.6950 ca        1 3WC     -0.174300
     14 C26         3.4770   -0.0510    3.7010 ca        1 3WC     -0.119000
     15 N11         0.0130   -0.2110    2.4860 nb        1 3WC     -0.718000
     16 C2          2.1270   -0.0060    1.2390 ca        1 3WC     -0.164300
     17 C28         4.2030    0.0540    2.4930 ca        1 3WC     -0.138000
     18 H4         -0.5660   -0.0250   -0.8800 ha        1 3WC      0.147000
     19 H61C        1.3930    0.1480   -2.1400 hc        1 3WC      0.050700
     20 H62C        2.7010    1.0870   -1.3060 hc        1 3WC      0.050700
     21 H63C        2.8100   -0.7210   -1.4150 hc        1 3WC      0.050700
     22 H82C       -2.5660   -0.7960    3.2970 h1        1 3WC      0.051700
     23 H101       -4.4960    1.2070    1.9380 h1        1 3WC      0.035700
     24 H102       -4.7550    0.1730    3.4170 h1        1 3WC      0.035700
     25 H12        -5.8480   -0.6910    1.4480 hn        1 3WC      0.364800
     26 H131       -4.5870   -2.1020   -0.0470 h1        1 3WC      0.035700
     27 H132       -4.3790   -0.3240   -0.3930 h1        1 3WC      0.035700
     28 H151       -2.2020   -1.3210   -0.4760 h1        1 3WC      0.051700
     29 H152       -2.4590   -2.2740    1.0580 h1        1 3WC      0.051700
     30 H20         4.1030    0.1590    0.3460 ha        1 3WC      0.132000
     31 H28         5.3010    0.1190    2.5300 ha        1 3WC      0.133000
     32 H24         1.5440   -0.2140    4.6370 ha        1 3WC      0.149000
     33 H26         4.0290   -0.0660    4.6540 ha        1 3WC      0.134000
     34 H81C       -2.3700    0.9980    3.0170 h1        1 3WC      0.051700
@<TRIPOS>BOND
     1    1    2 ar  
     2    1    9 ar  
     3    1   18 1   
     4    2    3 1   
     5    2   16 ar  
     6    3   19 1   
     7    3   20 1   
     8    3   21 1   
     9    4    5 1   
    10    4   12 1   
    11    4   22 1   
    12    4   34 1   
    13    5    6 1   
    14    5   23 1   
    15    5   24 1   
    16    6    7 1   
    17    6   25 1   
    18    7    8 1   
    19    7   26 1   
    20    7   27 1   
    21    8   12 1   
    22    8   28 1   
    23    8   29 1   
    24    9   12 1   
    25    9   15 ar  
    26   10   16 ar  
    27   10   17 ar  
    28   10   30 1   
    29   11   13 ar  
    30   11   15 ar  
    31   11   16 ar  
    32   13   14 ar  
    33   13   32 1   
    34   14   17 ar  
    35   14   33 1   
    36   17   31 1   
@<TRIPOS>SUBSTRUCTURE
     1 3WC         1 TEMP              0 ****  ****    0 ROOT
