@<TRIPOS>MOLECULE
3WC
   34    31     1     0     0
SMALL
bcc


@<TRIPOS>ATOM
      1 C4          0.3690   -0.0570   -1.4860 c1        1 3WC     -0.187000
      2 C5          1.7510   -0.0630   -1.5020 c1        1 3WC     -0.010000
      3 C6          2.3200   -0.1530   -2.9190 c3        1 3WC     -0.188000
      4 C8         -2.1130    1.2090    0.5330 c3        1 3WC     -0.054500
      5 C10        -3.6150    1.3740    0.6430 c3        1 3WC     -0.078000
      6 N12        -4.2700    0.1560    1.0130 n3        1 3WC     -0.299000
      7 C13        -3.8970   -0.9520    0.1710 c3        1 3WC     -0.078000
      8 C15        -2.4130   -1.1140    0.0670 c3        1 3WC     -0.054500
      9 C11        -0.3170   -0.0680   -0.2620 c1        1 3WC      0.113000
     10 C20         3.8830   -0.0850   -0.3040 c1        1 3WC     -0.117750
     11 C22         1.7920   -0.0900    0.9250 c1        1 3WC      0.034000
     12 N10        -1.7480    0.1170   -0.3030 n2        1 3WC     -0.224000
     13 C24         2.5160   -0.1050    2.1410 c1        1 3WC     -0.117750
     14 C26         3.9140   -0.1100    2.1210 c1        1 3WC     -0.117750
     15 N11         0.3950   -0.0840    0.9390 n2        1 3WC     -0.192000
     16 C2          2.4720   -0.0800   -0.2860 c1        1 3WC     -0.099000
     17 C28         4.5980   -0.1000    0.8950 c1        1 3WC     -0.117750
     18 H4         -0.1370   -0.1230   -2.3410 ha        1 3WC      0.147000
     19 H61C        2.9780    0.5380   -3.0460 hc        1 3WC      0.090000
     20 H62C        2.7510   -1.0530   -3.0520 hc        1 3WC      0.090000
     21 H63C        1.5920   -0.0380   -3.5690 hc        1 3WC      0.090000
     22 H81C       -1.7360    2.0180    0.1730 h1        1 3WC      0.091000
     23 H82C       -1.7410    1.0580    1.4310 h1        1 3WC      0.091000
     24 H101       -3.9610    1.6690   -0.2130 h1        1 3WC      0.075000
     25 H102       -3.8170    2.0830    1.3440 h1        1 3WC      0.075000
     26 H12        -5.1310    0.2680    0.9730 hn        1 3WC      0.160000
     27 H131       -4.2760   -0.8030   -0.7510 h1        1 3WC      0.075000
     28 H132       -4.2820   -1.7780    0.5440 h1        1 3WC      0.075000
     29 H151       -2.2140   -1.8040   -0.6100 h1        1 3WC      0.091000
     30 H152       -2.0630   -1.4150    0.9450 h1        1 3WC      0.091000
     31 H20         4.3480   -0.0780   -1.1360 ha        1 3WC      0.137000
     32 H28         5.6150   -0.1030    0.8800 ha        1 3WC      0.137000
     33 H24         2.0050   -0.1140    3.0590 ha        1 3WC      0.137000
     34 H26         4.4290   -0.1190    2.9820 ha        1 3WC      0.137000
@<TRIPOS>BOND
     1    1    9 1   
     2    1   18 1   
     3    2    3 1   
     4    2   16 1   
     5    3   19 1   
     6    3   20 1   
     7    3   21 1   
     8    4    5 1   
     9    4   12 1   
    10    4   22 1   
    11    4   23 1   
    12    5    6 1   
    13    5   24 1   
    14    5   25 1   
    15    6    7 1   
    16    6   26 1   
    17    7    8 1   
    18    7   27 1   
    19    7   28 1   
    20    8   12 1   
    21    8   29 1   
    22    8   30 1   
    23    9   15 1   
    24   10   17 1   
    25   10   31 1   
    26   11   15 1   
    27   11   16 1   
    28   13   14 1   
    29   13   33 1   
    30   14   34 1   
    31   17   32 1   
@<TRIPOS>SUBSTRUCTURE
     1 3WC         1 TEMP              0 ****  ****    0 ROOT
