@<TRIPOS>MOLECULE
3WC
   34    36     1     0     0
SMALL
bcc


@<TRIPOS>ATOM
      1 C4         -0.1380   -1.4740    0.2140 ca        1 3WC     -0.250300
      2 C5         -1.5050   -1.6000    0.1830 ca        1 3WC     -0.018300
      3 C6         -2.1440   -2.9290    0.3250 c3        1 3WC     -0.062800
      4 C8          2.4570    1.2300    0.4380 c3        1 3WC      0.145300
      5 C10         3.9810    1.1650    0.6860 c3        1 3WC      0.147300
      6 N12         4.7290    0.4160   -0.3040 n3        1 3WC     -0.797200
      7 C13         4.1290   -0.8770   -0.5600 c3        1 3WC      0.147300
      8 C15         2.6050   -0.8490   -0.8190 c3        1 3WC      0.145300
      9 C11         0.4670   -0.1630    0.0800 ca        1 3WC      0.632200
     10 C20        -3.7270   -0.4720   -0.0230 ca        1 3WC     -0.105000
     11 C22        -1.6420    0.8260   -0.1010 ca        1 3WC      0.426600
     12 N10         1.8910   -0.0930    0.2030 nh        1 3WC     -0.730300
     13 C24        -2.4370    2.0100   -0.2590 ca        1 3WC     -0.175300
     14 C26        -3.8060    1.9270   -0.2950 ca        1 3WC     -0.119000
     15 N11        -0.2710    0.9460   -0.0820 nb        1 3WC     -0.719000
     16 C2         -2.3110   -0.4290    0.0190 ca        1 3WC     -0.163300
     17 C28        -4.4600    0.6790   -0.1770 ca        1 3WC     -0.138000
     18 H4          0.5030   -2.3550    0.3650 ha        1 3WC      0.148000
     19 H61C       -2.8170   -2.9410    1.2190 hc        1 3WC      0.051367
     20 H62C       -2.7580   -3.1620   -0.5820 hc        1 3WC      0.051367
     21 H63C       -1.3800   -3.7360    0.4490 hc        1 3WC      0.051367
     22 H82C        2.2600    1.9290   -0.4260 h1        1 3WC      0.047450
     23 H101        4.3700    2.2200    0.7200 h1        1 3WC      0.060450
     24 H102        4.1710    0.6870    1.6880 h1        1 3WC      0.060450
     25 H12         4.7850    0.9420   -1.1590 hn        1 3WC      0.349800
     26 H131        4.6230   -1.3420   -1.4570 h1        1 3WC      0.060450
     27 H132        4.3350   -1.5290    0.3350 h1        1 3WC      0.060450
     28 H151        2.4180   -0.4220   -1.8470 h1        1 3WC      0.047450
     29 H152        2.2280   -1.9090   -0.8130 h1        1 3WC      0.047450
     30 H20        -4.2320   -1.4460    0.0700 ha        1 3WC      0.132000
     31 H28        -5.5590    0.6440   -0.2090 ha        1 3WC      0.133000
     32 H24        -1.9300    2.9830   -0.3510 ha        1 3WC      0.148000
     33 H26        -4.4130    2.8370   -0.4170 ha        1 3WC      0.134000
     34 H81C        1.9650    1.6610    1.3530 h1        1 3WC      0.047450
@<TRIPOS>BOND
     1    1    2 ar  
     2    1    9 ar  
     3    1   18 1   
     4    2    3 1   
     5    2   16 ar  
     6    3   19 1   
     7    3   20 1   
     8    3   21 1   
     9    4    5 1   
    10    4   12 1   
    11    4   22 1   
    12    4   34 1   
    13    5    6 1   
    14    5   23 1   
    15    5   24 1   
    16    6    7 1   
    17    6   25 1   
    18    7    8 1   
    19    7   26 1   
    20    7   27 1   
    21    8   12 1   
    22    8   28 1   
    23    8   29 1   
    24    9   12 1   
    25    9   15 ar  
    26   10   16 ar  
    27   10   17 ar  
    28   10   30 1   
    29   11   13 ar  
    30   11   15 ar  
    31   11   16 ar  
    32   13   14 ar  
    33   13   32 1   
    34   14   17 ar  
    35   14   33 1   
    36   17   31 1   
@<TRIPOS>SUBSTRUCTURE
     1 3WC         1 TEMP              0 ****  ****    0 ROOT
