@<TRIPOS>MOLECULE
3WE
   36    40     1     0     0
SMALL
bcc


@<TRIPOS>ATOM
      1 Br1         0.0330   -0.3510   -0.0140 br        1 3WE      0.008300
      2 C7          1.8530   -0.1400    0.0720 cc        1 3WE     -0.021500
      3 C8          2.6720   -0.0120    1.1930 cd        1 3WE     -0.104300
      4 N14         4.0190    0.1960    0.8010 na        1 3WE     -0.078400
      5 C5          4.0640    0.0920   -0.6040 ca        1 3WE     -0.041200
      6 C4          2.7200   -0.0760   -1.0950 ca        1 3WE     -0.091800
      7 C3          2.4850   -0.1350   -2.4690 ca        1 3WE     -0.068000
      8 C6          5.1480    0.1860   -1.4910 ca        1 3WE     -0.148000
      9 C1          4.8770    0.1170   -2.8500 ca        1 3WE     -0.098000
     10 C2          3.5670   -0.0400   -3.3340 ca        1 3WE     -0.150000
     11 C20         5.1460   -0.1430    1.6520 c3        1 3WE      0.276200
     12 N19         5.8750   -1.3730    1.3130 nu        1 3WE     -0.845200
     13 C18         5.7150   -2.3320    2.3900 c2        1 3WE      0.734100
     14 N22         6.0460   -3.5910    2.4000 n2        1 3WE     -0.830100
     15 N17         5.2490   -1.6560    3.5710 nu        1 3WE     -0.783200
     16 C16         4.7540   -0.3040    3.2110 c3        1 3WE      0.342600
     17 C10         5.5220    0.7750    4.0520 c3        1 3WE     -0.077400
     18 C23         4.6050    1.1000    5.2240 c3        1 3WE     -0.101400
     19 C13         3.2310    0.5040    4.8720 c3        1 3WE      0.079000
     20 N12         3.3350   -0.1130    3.5540 n         1 3WE     -0.479800
     21 C11         2.3120    0.0810    2.6260 c         1 3WE      0.731700
     22 O21         1.1580    0.3200    3.0160 o         1 3WE     -0.582500
     23 H1          1.4600   -0.2500   -2.8520 ha        1 3WE      0.150000
     24 H2          6.1740    0.3180   -1.1190 ha        1 3WE      0.145000
     25 H3          5.7080    0.1870   -3.5690 ha        1 3WE      0.138000
     26 H4          3.4000   -0.0860   -4.4200 ha        1 3WE      0.139000
     27 H5          5.8860    0.7090    1.5460 h2        1 3WE      0.107700
     28 H6          5.7090   -1.7400    0.3980 hn        1 3WE      0.414800
     29 H9          6.4380   -3.9380    1.5520 hn        1 3WE      0.401400
     30 H12         4.6530   -2.2030    4.1580 hn        1 3WE      0.433800
     31 H14         6.5150    0.3960    4.3910 hc        1 3WE      0.071200
     32 H15         5.6870    1.6820    3.4190 hc        1 3WE      0.071200
     33 H16         4.5260    2.2040    5.3780 hc        1 3WE      0.060200
     34 H17         4.9900    0.6460    6.1700 hc        1 3WE      0.060200
     35 H18         2.9430   -0.2910    5.6130 h1        1 3WE      0.068200
     36 H19         2.4260    1.2890    4.8720 h1        1 3WE      0.068200
@<TRIPOS>BOND
     1    1    2 1   
     2    2    3 2   
     3    2    6 1   
     4    3    4 1   
     5    3   21 1   
     6    4    5 1   
     7    4   11 1   
     8    5    6 ar  
     9    5    8 ar  
    10    6    7 ar  
    11    7   10 ar  
    12    7   23 1   
    13    8    9 ar  
    14    8   24 1   
    15    9   10 ar  
    16    9   25 1   
    17   10   26 1   
    18   11   12 1   
    19   11   16 1   
    20   11   27 1   
    21   12   13 1   
    22   12   28 1   
    23   13   14 2   
    24   13   15 1   
    25   14   29 1   
    26   15   16 1   
    27   15   30 1   
    28   16   17 1   
    29   16   20 1   
    30   17   18 1   
    31   17   31 1   
    32   17   32 1   
    33   18   19 1   
    34   18   33 1   
    35   18   34 1   
    36   19   20 1   
    37   19   35 1   
    38   19   36 1   
    39   20   21 1   
    40   21   22 2   
@<TRIPOS>SUBSTRUCTURE
     1 3WE         1 TEMP              0 ****  ****    0 ROOT
