@<TRIPOS>MOLECULE
3WF
   46    49     1     0     0
SMALL
bcc


@<TRIPOS>ATOM
      1 CAB         1.6140    0.2940   -0.0030 c3        1 3WF     -0.079100
      2 CAV         0.1070    0.0950    0.0450 c3        1 3WF     -0.027000
      3 CAN        -0.3640    0.0440    1.4880 c3        1 3WF     -0.066400
      4 CAK         0.1440   -1.2070    2.1880 c3        1 3WF     -0.071400
      5 CAR        -0.1600   -2.4990    1.4380 c3        1 3WF     -0.009400
      6 CAQ         0.4260   -3.7130    2.0900 ca        1 3WF     -0.099300
      7 CAG         0.5920   -3.7660    3.4790 ca        1 3WF     -0.091000
      8 CAF         1.0850   -4.9040    4.1100 ca        1 3WF     -0.215000
      9 CAO         1.4190   -6.0210    3.3340 ca        1 3WF      0.122100
     10 OAC         1.9110   -7.1870    3.8770 oh        1 3WF     -0.499100
     11 CAH         1.2600   -5.9950    1.9430 ca        1 3WF     -0.162000
     12 CAP         0.7650   -4.8440    1.3220 ca        1 3WF     -0.037300
     13 CAI         0.6470   -4.8730   -0.1640 c3        1 3WF     -0.037100
     14 CAJ        -0.1140   -3.7000   -0.7410 c3        1 3WF     -0.073400
     15 CAS         0.2840   -2.4170   -0.0330 c3        1 3WF     -0.047700
     16 CAT        -0.3670   -1.2000   -0.6530 c3        1 3WF     -0.067700
     17 CAL        -0.1710   -0.9270   -2.1380 c3        1 3WF     -0.068400
     18 CAM        -0.4530    0.5670   -2.3010 c3        1 3WF     -0.103400
     19 CAU        -0.5530    1.1790   -0.8710 c3        1 3WF      0.233900
     20 OAD         0.2180    2.3730   -0.7830 oh        1 3WF     -0.580800
     21 CAE        -1.9380    1.4370   -0.5240 c1        1 3WF     -0.164100
     22 CAA        -3.0820    1.6530   -0.2480 c1        1 3WF     -0.137500
     23 H1          2.1480   -0.5100    0.5540 hc        1 3WF      0.042367
     24 H2          1.9710    0.2980   -1.0610 hc        1 3WF      0.042367
     25 H3          1.8750    1.2780    0.4590 hc        1 3WF      0.042367
     26 H4          0.0020    0.9500    2.0370 hc        1 3WF      0.049700
     27 H5         -1.4860    0.0600    1.5180 hc        1 3WF      0.049700
     28 H6          1.2500   -1.1270    2.3540 hc        1 3WF      0.043200
     29 H7         -0.3450   -1.2450    3.1980 hc        1 3WF      0.043200
     30 H8         -1.2830   -2.6360    1.4450 hc        1 3WF      0.055700
     31 H9          0.3290   -2.8980    4.1020 ha        1 3WF      0.134000
     32 H10         1.2100   -4.9260    5.2010 ha        1 3WF      0.132000
     33 H11         1.9680   -7.0660    4.8360 ho        1 3WF      0.418000
     34 H12         1.5260   -6.8820    1.3500 ha        1 3WF      0.148000
     35 H13         1.6880   -4.8870   -0.5930 hc        1 3WF      0.052700
     36 H14         0.1490   -5.8300   -0.4790 hc        1 3WF      0.052700
     37 H15         0.1060   -3.6110   -1.8370 hc        1 3WF      0.044700
     38 H16        -1.2180   -3.8660   -0.6320 hc        1 3WF      0.044700
     39 H17         1.4030   -2.3180   -0.0800 hc        1 3WF      0.062700
     40 H18        -1.4800   -1.2900   -0.4790 hc        1 3WF      0.053700
     41 H19         0.8730   -1.1720   -2.4550 hc        1 3WF      0.046200
     42 H20        -0.8690   -1.5420   -2.7570 hc        1 3WF      0.046200
     43 H21         0.3790    1.0700   -2.8520 hc        1 3WF      0.054200
     44 H22        -1.4000    0.7350   -2.8680 hc        1 3WF      0.054200
     45 H23        -0.2180    3.0290   -1.3410 ho        1 3WF      0.404000
     46 H24        -4.0950    1.8440   -0.0010 ha        1 3WF      0.165500
@<TRIPOS>BOND
     1    1    2 1   
     2    1   23 1   
     3    1   24 1   
     4    1   25 1   
     5    2    3 1   
     6    2   16 1   
     7    2   19 1   
     8    3    4 1   
     9    3   26 1   
    10    3   27 1   
    11    4    5 1   
    12    4   28 1   
    13    4   29 1   
    14    5    6 1   
    15    5   15 1   
    16    5   30 1   
    17    6    7 ar  
    18    6   12 ar  
    19    7    8 ar  
    20    7   31 1   
    21    8    9 ar  
    22    8   32 1   
    23    9   10 1   
    24    9   11 ar  
    25   10   33 1   
    26   11   12 ar  
    27   11   34 1   
    28   12   13 1   
    29   13   14 1   
    30   13   35 1   
    31   13   36 1   
    32   14   15 1   
    33   14   37 1   
    34   14   38 1   
    35   15   16 1   
    36   15   39 1   
    37   16   17 1   
    38   16   40 1   
    39   17   18 1   
    40   17   41 1   
    41   17   42 1   
    42   18   19 1   
    43   18   43 1   
    44   18   44 1   
    45   19   20 1   
    46   19   21 1   
    47   20   45 1   
    48   21   22 3   
    49   22   46 1   
@<TRIPOS>SUBSTRUCTURE
     1 3WF         1 TEMP              0 ****  ****    0 ROOT
