@<TRIPOS>MOLECULE
3WG
   24    26     1     0     0
SMALL
bcc


@<TRIPOS>ATOM
      1 C10         0.0430    0.0670   -0.0450 c3        1 3WG     -0.076700
      2 C12         1.5980    0.0500   -0.0310 c3        1 3WG      0.079600
      3 C11        -0.3310    0.9580    1.1770 c3        1 3WG     -0.076700
      4 C14         1.8680    0.0200    1.5400 c3        1 3WG      0.131800
      5 C13         1.0460    1.3660    1.7750 c3        1 3WG      0.079600
      6 C15        -0.5940    0.6980   -1.2780 c3        1 3WG      0.042700
      7 C16        -1.1850    2.1070    0.6560 c3        1 3WG      0.042700
      8 C17        -1.6170    1.7220   -0.7660 c3        1 3WG      0.030700
      9 C18         2.0660    1.4760   -0.3290 c2        1 3WG     -0.040800
     10 C19         1.7390    2.2560    0.7410 c2        1 3WG     -0.040800
     11 Cl1         2.3240   -1.2050   -0.9490 cl        1 3WG     -0.062400
     12 Cl2         0.9980    1.9530    3.3860 cl        1 3WG     -0.062400
     13 Cl3         1.2020   -1.3730    2.3510 cl        1 3WG     -0.084900
     14 Cl4         3.5560    0.1670    1.9490 cl        1 3WG     -0.084900
     15 Cl5        -1.3640   -0.5060   -2.2980 cl        1 3WG     -0.149400
     16 Cl6        -2.5820    2.3930    1.6820 cl        1 3WG     -0.149400
     17 Cl7        -1.6980    3.1250   -1.8130 cl        1 3WG     -0.144400
     18 Cl8         2.8500    1.9130   -1.7250 cl        1 3WG      0.002600
     19 Cl9         2.0260    3.8750    0.9670 cl        1 3WG      0.002600
     20 H1         -0.3350   -0.9790    0.1040 hc        1 3WG      0.113700
     21 H2         -0.8960    0.3570    1.9390 hc        1 3WG      0.113700
     22 H3          0.1740    1.1850   -1.9340 h1        1 3WG      0.108700
     23 H4         -0.6200    3.0750    0.6600 h1        1 3WG      0.108700
     24 H5         -2.6510    1.2870   -0.7660 h1        1 3WG      0.114700
@<TRIPOS>BOND
     1    1    2 1   
     2    1    3 1   
     3    1    6 1   
     4    1   20 1   
     5    2    4 1   
     6    2    9 1   
     7    2   11 1   
     8    3    5 1   
     9    3    7 1   
    10    3   21 1   
    11    4    5 1   
    12    4   13 1   
    13    4   14 1   
    14    5   10 1   
    15    5   12 1   
    16    6    8 1   
    17    6   15 1   
    18    6   22 1   
    19    7    8 1   
    20    7   16 1   
    21    7   23 1   
    22    8   17 1   
    23    8   24 1   
    24    9   10 2   
    25    9   18 1   
    26   10   19 1   
@<TRIPOS>SUBSTRUCTURE
     1 3WG         1 TEMP              0 ****  ****    0 ROOT
