@<TRIPOS>MOLECULE
3WH
   52    55     1     0     0
SMALL
bcc


@<TRIPOS>ATOM
      1 C11        -0.1870   -0.1640    0.1020 c3        1 3WH      0.060000
      2 C10         1.3340   -0.2650    0.0530 c3        1 3WH     -0.134900
      3 C13         4.0620   -0.9190    2.5890 ca        1 3WH      0.869900
      4 C01        -2.1210    5.6950    1.2300 c3        1 3WH     -0.139100
      5 C02        -1.8460    4.4710    0.3850 c3        1 3WH      0.116800
      6 N03        -1.3410    3.3230    1.2020 n4        1 3WH     -0.666800
      7 O05        -1.3340    2.2240   -0.8570 o         1 3WH     -0.487100
      8 N06        -0.6820    0.9120    0.9710 n         1 3WH     -0.390800
      9 C07        -0.0990    0.8710    2.3050 c3        1 3WH      0.060000
     10 C08         1.4260    0.8260    2.3060 c3        1 3WH     -0.134900
     11 C09         1.9130   -0.3810    1.4760 c3        1 3WH      0.226500
     12 N12         3.3460   -0.5370    1.4350 nh        1 3WH     -0.833900
     13 N14         5.4310   -0.7190    2.5480 nb        1 3WH     -0.739000
     14 C15         6.1620   -1.1890    3.5910 ca        1 3WH      0.633100
     15 C16         5.5420   -1.8290    4.6980 ca        1 3WH     -0.267700
     16 I17         6.5020   -2.4960    6.3310 i         1 3WH     -0.094900
     17 C18         4.1420   -1.9580    4.6520 ca        1 3WH      0.492200
     18 N19         3.3800   -1.5180    3.6410 nb        1 3WH     -0.769000
     19 C20         7.5980   -0.9900    3.5310 cc        1 3WH     -0.269000
     20 C21         8.5890   -1.9570    3.7580 cd        1 3WH     -0.037100
     21 N22         9.8460   -1.4020    3.5720 na        1 3WH     -0.174400
     22 C23         9.6940   -0.0540    3.2180 ca        1 3WH     -0.056200
     23 C24         8.2790    0.2390    3.1700 ca        1 3WH     -0.050800
     24 C25         7.8620    1.5280    2.8340 ca        1 3WH     -0.086000
     25 C26         8.8200    2.4920    2.5560 ca        1 3WH     -0.148000
     26 C27        10.1940    2.1970    2.6070 ca        1 3WH     -0.112000
     27 C28        10.6520    0.9300    2.9360 ca        1 3WH     -0.131000
     28 H1         -0.6210   -1.1150    0.5300 h1        1 3WH      0.087200
     29 H2         -0.5910   -0.0250   -0.9420 h1        1 3WH      0.087200
     30 H3          1.5980   -1.1800   -0.5420 hc        1 3WH      0.076200
     31 H4          1.7670    0.6220   -0.4780 hc        1 3WH      0.076200
     32 H5         -2.4940    6.5030    0.5470 hc        1 3WH      0.079700
     33 H6         -2.9080    5.5030    2.0000 hc        1 3WH      0.079700
     34 H7         -1.1980    6.0690    1.7360 hc        1 3WH      0.079700
     35 H8         -2.7850    4.1270   -0.1410 hx        1 3WH      0.119700
     36 H9         -1.0710    4.6940   -0.4060 hx        1 3WH      0.119700
     37 H10        -2.0390    3.0880    1.9160 hn        1 3WH      0.452800
     38 H11        -0.4920   -0.0820    2.7760 h1        1 3WH      0.087200
     39 H12        -0.4560    1.7220    2.9450 h1        1 3WH      0.087200
     40 H13         1.8530    1.7780    1.8990 hc        1 3WH      0.076200
     41 H14         1.7690    0.7190    3.3690 hc        1 3WH      0.076200
     42 H15         1.4760   -1.3160    1.9470 h1        1 3WH      0.097700
     43 H16         3.8310    0.0790    0.8170 hn        1 3WH      0.435800
     44 H17         3.5840   -2.4400    5.4800 h4        1 3WH      0.041100
     45 H18         8.4780   -3.0120    4.0250 h4        1 3WH      0.182000
     46 H19        10.7070   -1.8710    3.6770 hn        1 3WH      0.310700
     47 H20         6.7910    1.7670    2.7890 ha        1 3WH      0.132000
     48 H21         8.5060    3.5120    2.2890 ha        1 3WH      0.129000
     49 H22        10.9210    2.9920    2.3790 ha        1 3WH      0.137000
     50 H23        11.7260    0.7050    2.9750 ha        1 3WH      0.140000
     51 C04        -1.0600    2.0810    0.3390 c         1 3WH      0.619100
     52 H032       -0.4760    3.6020    1.6760 hn        1 3WH      0.452800
@<TRIPOS>BOND
     1    1    2 1   
     2    1    8 1   
     3    1   28 1   
     4    1   29 1   
     5    2   11 1   
     6    2   30 1   
     7    2   31 1   
     8    3   12 1   
     9    3   13 ar  
    10    3   18 ar  
    11    4    5 1   
    12    4   32 1   
    13    4   33 1   
    14    4   34 1   
    15    5    6 1   
    16    5   35 1   
    17    5   36 1   
    18    6   37 1   
    19    6   51 1   
    20    6   52 1   
    21    7   51 2   
    22    8    9 1   
    23    8   51 1   
    24    9   10 1   
    25    9   38 1   
    26    9   39 1   
    27   10   11 1   
    28   10   40 1   
    29   10   41 1   
    30   11   12 1   
    31   11   42 1   
    32   12   43 1   
    33   13   14 ar  
    34   14   15 ar  
    35   14   19 1   
    36   15   16 1   
    37   15   17 ar  
    38   17   18 ar  
    39   17   44 1   
    40   19   20 2   
    41   19   23 1   
    42   20   21 1   
    43   20   45 1   
    44   21   22 1   
    45   21   46 1   
    46   22   23 ar  
    47   22   27 ar  
    48   23   24 ar  
    49   24   25 ar  
    50   24   47 1   
    51   25   26 ar  
    52   25   48 1   
    53   26   27 ar  
    54   26   49 1   
    55   27   50 1   
@<TRIPOS>SUBSTRUCTURE
     1 3WH         1 TEMP              0 ****  ****    0 ROOT
