@<TRIPOS>MOLECULE
3WH
   52    53     1     0     0
SMALL
bcc


@<TRIPOS>ATOM
      1 C11        -0.6410   -1.7680    0.3730 c2        1 3WH     -0.185000
      2 C10         0.5240   -1.4060   -0.1640 c2        1 3WH     -0.182200
      3 C13         3.5170   -1.9830    2.0010 ce        1 3WH      0.412800
      4 C01         1.7000    5.3940    2.3360 c3        1 3WH     -0.137100
      5 C02         1.0690    4.0370    2.1090 c3        1 3WH      0.113800
      6 N03         2.0720    2.9840    1.7690 ny        1 3WH     -0.669800
      7 O05         1.1880    1.6750    0.0680 o         1 3WH     -0.516100
      8 N06         0.9490    0.7980    2.2130 ns        1 3WH     -0.494900
      9 C07         1.3200    0.8150    3.5980 c3        1 3WH      0.045300
     10 C08         1.9430   -3.4270    0.7030 cx        1 3WH     -0.089700
     11 C09         1.8210   -2.0420    0.1310 cx        1 3WH     -0.034800
     12 N12         2.1900   -2.2620    1.5410 nh        1 3WH     -0.205100
     13 N14         4.0390   -0.7480    1.8250 ne        1 3WH     -0.737000
     14 C15         5.2760   -0.4800    2.3920 cf        1 3WH      0.583900
     15 C16         5.9550   -1.4290    3.1490 cf        1 3WH     -0.291900
     16 I17         7.6890   -1.1740    4.1220 i         1 3WH     -0.053800
     17 C18         5.3910   -2.7400    3.3110 c1        1 3WH      0.031100
     18 N19         4.2050   -2.9850    2.7280 nu        1 3WH     -0.248500
     19 C20         5.8170    0.8650    2.1520 cf        1 3WH     -0.245600
     20 C21         7.0690    1.0290    1.6160 c2        1 3WH      0.130000
     21 N22         7.7250    2.2500    1.4460 nu        1 3WH     -0.507600
     22 C23         7.2360    3.3360    2.0610 c1        1 3WH      0.030800
     23 C24         5.0400    2.0450    2.4800 cf        1 3WH     -0.104000
     24 C25         4.6740    2.5050    3.6960 ce        1 3WH     -0.182000
     25 C26         4.6030    3.9410    3.9280 ce        1 3WH     -0.221000
     26 C27         5.5880    4.7510    3.4420 cf        1 3WH      0.064300
     27 C28         6.5730    4.1700    2.6360 ch        1 3WH     -0.202300
     28 H1          0.6380   -0.0760    1.8150 hn        1 3WH      0.384500
     29 H2         -1.5850   -1.2820    0.0900 ha        1 3WH      0.128500
     30 H3         -0.7400   -2.5800    1.1070 ha        1 3WH      0.128500
     31 H4          0.5840   -0.5880   -0.9050 ha        1 3WH      0.154000
     32 H5          2.6540    3.3110    0.9850 hn        1 3WH      0.470800
     33 H6          2.4740    5.3610    3.1440 hc        1 3WH      0.079033
     34 H7          0.8930    6.1060    2.6480 hc        1 3WH      0.079033
     35 H8          2.1710    5.7890    1.4020 hc        1 3WH      0.079033
     36 H9          0.3330    4.0920    1.2540 hx        1 3WH      0.105700
     37 H10         0.5210    3.6990    3.0350 hx        1 3WH      0.105700
     38 H11         2.4370    0.8190    3.7380 h1        1 3WH      0.070700
     39 H12         0.8780    1.7150    4.1060 h1        1 3WH      0.070700
     40 H13         0.9030   -0.1090    4.0840 h1        1 3WH      0.070700
     41 H14         1.0370   -4.0120    0.9770 h1        1 3WH      0.104700
     42 H15         2.7770   -4.0810    0.3710 h1        1 3WH      0.104700
     43 H16         2.6210   -1.7000   -0.5710 h1        1 3WH      0.111700
     44 H17         3.7920   -3.8900    2.8380 hn        1 3WH      0.324700
     45 H18         7.6600    0.1610    1.2590 h4        1 3WH      0.177000
     46 H19         8.6720    2.2500    1.1320 hn        1 3WH      0.474800
     47 H20         4.9060    2.7120    1.6000 ha        1 3WH      0.103000
     48 H21         4.6300    1.8600    4.5890 ha        1 3WH      0.154000
     49 H22         3.8540    4.3270    4.6340 ha        1 3WH      0.138000
     50 H23         5.6510    5.8220    3.6910 ha        1 3WH      0.163000
     51 C04         1.3730    1.7130    1.2930 c         1 3WH      0.643100
     52 H032        2.6940    2.8020    2.5740 hn        1 3WH      0.470800
@<TRIPOS>BOND
     1    1    2 2   
     2    1   29 1   
     3    1   30 1   
     4    2   11 1   
     5    2   31 1   
     6    3   12 2   
     7    3   13 1   
     8    3   18 1   
     9    4    5 1   
    10    4   33 1   
    11    4   34 1   
    12    4   35 1   
    13    5    6 1   
    14    5   36 1   
    15    5   37 1   
    16    6   32 1   
    17    6   51 1   
    18    6   52 1   
    19    7   51 2   
    20    8    9 1   
    21    8   28 1   
    22    8   51 1   
    23    9   38 1   
    24    9   39 1   
    25    9   40 1   
    26   10   11 1   
    27   10   12 1   
    28   10   41 1   
    29   10   42 1   
    30   11   12 1   
    31   11   43 1   
    32   13   14 2   
    33   14   15 1   
    34   14   19 1   
    35   15   16 1   
    36   15   17 2   
    37   17   18 2   
    38   18   44 1   
    39   19   20 2   
    40   19   23 1   
    41   20   21 1   
    42   20   45 1   
    43   21   22 1   
    44   21   46 1   
    45   22   27 3   
    46   23   24 2   
    47   23   47 1   
    48   24   25 1   
    49   24   48 1   
    50   25   26 2   
    51   25   49 1   
    52   26   27 1   
    53   26   50 1   
@<TRIPOS>SUBSTRUCTURE
     1 3WH         1 TEMP              0 ****  ****    0 ROOT
