@<TRIPOS>MOLECULE
3WJ
   30    32     1     0     0
SMALL
bcc


@<TRIPOS>ATOM
      1 C2         -0.0040   -0.0250    0.0520 ca        1 3WJ      0.729200
      2 C3         -0.0300   -0.0400   -2.4220 ca        1 3WJ      0.071600
      3 N6          1.3720   -0.0320    0.0120 nb        1 3WJ     -0.794000
      4 C7          0.8490   -1.0800   -2.7780 ca        1 3WJ     -0.072000
      5 C8         -0.2470    1.0150   -3.3310 ca        1 3WJ     -0.072000
      6 C9         -2.8240    0.0050   -0.0160 cc        1 3WJ     -0.313200
      7 C10        -2.1900    0.0190    1.2990 c         1 3WJ      0.605900
      8 C11         0.0670    0.0270    2.5040 ca        1 3WJ      0.767200
      9 C12         1.9920   -0.0040    1.2110 ca        1 3WJ      0.720900
     10 C13         1.4870   -1.0690   -4.0100 ca        1 3WJ     -0.191000
     11 C14         0.3860    1.0230   -4.5650 ca        1 3WJ     -0.191000
     12 N1         -0.7060   -0.0480   -1.1640 na        1 3WJ     -0.500500
     13 C4         -2.0930   -0.0230   -1.1570 cd        1 3WJ      0.113000
     14 C5         -0.7310    0.0060    1.2920 ca        1 3WJ     -0.497200
     15 O15        -2.8870    0.0430    2.3350 o         1 3WJ     -0.613100
     16 N16         1.4500    0.0240    2.4430 nb        1 3WJ     -0.815000
     17 N17        -0.5100    0.0490    3.7380 nh        1 3WJ     -0.946500
     18 C18         1.2640   -0.0230   -4.9360 ca        1 3WJ      0.156600
     19 N19         1.8320   -0.0610   -6.2090 nh        1 3WJ     -0.823200
     20 H1          1.0490   -1.9060   -2.0770 ha        1 3WJ      0.145000
     21 H2         -0.9210    1.8460   -3.0690 ha        1 3WJ      0.145000
     22 H3         -3.9230    0.0150   -0.0450 ha        1 3WJ      0.167000
     23 H4          3.1040   -0.0060    1.1730 h5        1 3WJ      0.052100
     24 H5          2.1710   -1.8930   -4.2630 ha        1 3WJ      0.138000
     25 H6          0.1940    1.8560   -5.2580 ha        1 3WJ      0.138000
     26 H7         -2.5600   -0.0350   -2.1610 h4        1 3WJ      0.163000
     27 H8         -1.5010    0.0570    3.8250 hn        1 3WJ      0.460800
     28 H9          0.0520    0.0680    4.5540 hn        1 3WJ      0.460800
     29 H10         2.6520   -0.6190   -6.2870 hn        1 3WJ      0.396800
     30 H11         1.9010    0.8210   -6.6650 hn        1 3WJ      0.396800
@<TRIPOS>BOND
     1    1    3 ar  
     2    1   12 1   
     3    1   14 ar  
     4    2    4 ar  
     5    2    5 ar  
     6    2   12 1   
     7    3    9 ar  
     8    4   10 ar  
     9    4   20 1   
    10    5   11 ar  
    11    5   21 1   
    12    6    7 1   
    13    6   13 2   
    14    6   22 1   
    15    7   14 1   
    16    7   15 2   
    17    8   14 ar  
    18    8   16 ar  
    19    8   17 1   
    20    9   16 ar  
    21    9   23 1   
    22   10   18 ar  
    23   10   24 1   
    24   11   18 ar  
    25   11   25 1   
    26   12   13 1   
    27   13   26 1   
    28   17   27 1   
    29   17   28 1   
    30   18   19 1   
    31   19   29 1   
    32   19   30 1   
@<TRIPOS>SUBSTRUCTURE
     1 3WJ         1 TEMP              0 ****  ****    0 ROOT
