@<TRIPOS>MOLECULE
3WJ
   30    32     1     0     0
SMALL
bcc


@<TRIPOS>ATOM
      1 C2         -0.0070   -0.0530    0.0510 ca        1 3WJ      0.729200
      2 C3         -0.0320   -0.0060   -2.4220 ca        1 3WJ      0.071600
      3 N6          1.3660   -0.1530    0.0100 nb        1 3WJ     -0.794000
      4 C7          0.7750   -1.0940   -2.8050 ca        1 3WJ     -0.072000
      5 C8         -0.1760    1.0830   -3.3050 ca        1 3WJ     -0.072000
      6 C9         -2.8180    0.1690   -0.0130 cc        1 3WJ     -0.313200
      7 C10        -2.1860    0.1080    1.3010 c         1 3WJ      0.605900
      8 C11         0.0660   -0.0670    2.5030 ca        1 3WJ      0.767200
      9 C12         1.9860   -0.1970    1.2080 ca        1 3WJ      0.720900
     10 C13         1.4130   -1.0960   -4.0370 ca        1 3WJ     -0.191000
     11 C14         0.4560    1.0780   -4.5390 ca        1 3WJ     -0.191000
     12 N1         -0.7080    0.0010   -1.1640 na        1 3WJ     -0.500500
     13 C4         -2.0900    0.1200   -1.1550 cd        1 3WJ      0.113000
     14 C5         -0.7300   -0.0040    1.2920 ca        1 3WJ     -0.497200
     15 O15        -2.8800    0.1540    2.3380 o         1 3WJ     -0.613100
     16 N16         1.4460   -0.1620    2.4410 nb        1 3WJ     -0.815000
     17 N17        -0.5090   -0.0360    3.7390 nv        1 3WJ     -0.946500
     18 C18         1.2620   -0.0150   -4.9360 ca        1 3WJ      0.156600
     19 N19         1.8270   -0.0600   -6.2110 nv        1 3WJ     -0.823200
     20 H1          0.9180   -1.9490   -2.1240 ha        1 3WJ      0.145000
     21 H2         -0.7920    1.9510   -3.0220 ha        1 3WJ      0.145000
     22 H3         -3.9130    0.2550   -0.0410 ha        1 3WJ      0.167000
     23 H4          3.0950   -0.2730    1.1690 h5        1 3WJ      0.052100
     24 H5          2.0400   -1.9590   -4.3100 ha        1 3WJ      0.138000
     25 H6          0.3220    1.9390   -5.2120 ha        1 3WJ      0.138000
     26 H7         -2.5550    0.1640   -2.1590 h4        1 3WJ      0.163000
     27 H8         -1.4970    0.0370    3.8260 hn        1 3WJ      0.460800
     28 H9          0.0530   -0.0750    4.5540 hn        1 3WJ      0.460800
     29 H10         2.6070   -0.6710   -6.3030 hn        1 3WJ      0.396800
     30 H11         1.9560    0.8260   -6.6450 hn        1 3WJ      0.396800
@<TRIPOS>BOND
     1    1    3 ar  
     2    1   12 1   
     3    1   14 ar  
     4    2    4 ar  
     5    2    5 ar  
     6    2   12 1   
     7    3    9 ar  
     8    4   10 ar  
     9    4   20 1   
    10    5   11 ar  
    11    5   21 1   
    12    6    7 1   
    13    6   13 2   
    14    6   22 1   
    15    7   14 1   
    16    7   15 2   
    17    8   14 ar  
    18    8   16 ar  
    19    8   17 1   
    20    9   16 ar  
    21    9   23 1   
    22   10   18 ar  
    23   10   24 1   
    24   11   18 ar  
    25   11   25 1   
    26   12   13 1   
    27   13   26 1   
    28   17   27 1   
    29   17   28 1   
    30   18   19 1   
    31   19   29 1   
    32   19   30 1   
@<TRIPOS>SUBSTRUCTURE
     1 3WJ         1 TEMP              0 ****  ****    0 ROOT
