@<TRIPOS>MOLECULE
3WK
   30    32     1     0     0
SMALL
bcc


@<TRIPOS>ATOM
      1 C1          0.0380   -0.2690   -0.0870 c3        1 3WK     -0.288700
      2 C2          1.4540    0.1810   -0.0840 c2        1 3WK      0.466200
      3 C8          1.9700    0.2400    4.5260 ca        1 3WK      0.700900
      4 C10        -0.1480   -0.3820    3.8050 ca        1 3WK      0.756200
      5 C13        -1.9540   -0.9660    5.3870 ca        1 3WK      0.082600
      6 C14        -1.3160   -1.7200    6.3910 ca        1 3WK     -0.089000
      7 C15        -1.8970   -1.8630    7.6440 ca        1 3WK     -0.183000
      8 C16        -3.1470   -1.2720    7.9390 ca        1 3WK      0.139600
      9 N3          2.2020    0.4080    0.9390 ne        1 3WK     -0.625700
     10 C4         -0.5850   -0.3510    1.2840 c         1 3WK      0.607700
     11 C5          0.2900   -0.1860    2.4390 ca        1 3WK     -0.512200
     12 C6          1.6590    0.2130    2.2450 ca        1 3WK      0.688300
     13 N7          2.5050    0.4300    3.2900 nb        1 3WK     -0.713000
     14 N9          0.7280   -0.1460    4.8530 nb        1 3WK     -0.770000
     15 O11        -1.8100   -0.5510    1.3530 o         1 3WK     -0.576100
     16 N12        -1.4130   -0.8420    4.0850 nu        1 3WK     -0.718300
     17 C17        -3.7840   -0.5180    6.9260 ca        1 3WK     -0.183000
     18 C18        -3.1990   -0.3680    5.6780 ca        1 3WK     -0.089000
     19 N19        -3.7740   -1.4950    9.1680 nv        1 3WK     -0.818200
     20 H1         -0.5780    0.4280   -0.7210 hc        1 3WK      0.106700
     21 H2         -0.0260   -1.2880   -0.5620 hc        1 3WK      0.106700
     22 H3          1.9210    0.3380   -1.0790 h4        1 3WK      0.036800
     23 H4          2.6600    0.4310    5.3780 h5        1 3WK      0.059100
     24 H5         -0.3460   -2.2030    6.1970 ha        1 3WK      0.143000
     25 H6         -1.3720   -2.4550    8.4080 ha        1 3WK      0.135500
     26 H7         -2.0800   -0.8550    3.3380 hn        1 3WK      0.476800
     27 H8         -4.7590   -0.0450    7.1200 ha        1 3WK      0.135500
     28 H9         -3.7250    0.2240    4.9120 ha        1 3WK      0.143000
     29 H10        -3.1540   -1.7320    9.9100 hn        1 3WK      0.391300
     30 H11        -4.4450   -0.8040    9.4200 hn        1 3WK      0.391300
@<TRIPOS>BOND
     1    1    2 1   
     2    1   10 1   
     3    1   20 1   
     4    1   21 1   
     5    2    9 2   
     6    2   22 1   
     7    3   13 ar  
     8    3   14 ar  
     9    3   23 1   
    10    4   11 ar  
    11    4   14 ar  
    12    4   16 1   
    13    5    6 ar  
    14    5   16 1   
    15    5   18 ar  
    16    6    7 ar  
    17    6   24 1   
    18    7    8 ar  
    19    7   25 1   
    20    8   17 ar  
    21    8   19 1   
    22    9   12 1   
    23   10   11 1   
    24   10   15 2   
    25   11   12 ar  
    26   12   13 ar  
    27   16   26 1   
    28   17   18 ar  
    29   17   27 1   
    30   18   28 1   
    31   19   29 1   
    32   19   30 1   
@<TRIPOS>SUBSTRUCTURE
     1 3WK         1 TEMP              0 ****  ****    0 ROOT
