@<TRIPOS>MOLECULE
3WK
   30    32     1     0     0
SMALL
bcc


@<TRIPOS>ATOM
      1 C1          0.0530   -0.3040   -0.0860 c3        1 3WK     -0.288700
      2 C2          1.4600    0.1730   -0.0820 c2        1 3WK      0.466200
      3 C8          1.9530    0.2980    4.5290 ca        1 3WK      0.700900
      4 C10        -0.1490   -0.3740    3.8070 ca        1 3WK      0.756200
      5 C13        -1.9520   -0.9730    5.3870 ca        1 3WK      0.082600
      6 C14        -1.3050   -1.7030    6.4030 ca        1 3WK     -0.089000
      7 C15        -1.8880   -1.8410    7.6540 ca        1 3WK     -0.183000
      8 C16        -3.1500   -1.2700    7.9370 ca        1 3WK      0.139600
      9 N3          2.1990    0.4260    0.9410 ne        1 3WK     -0.625700
     10 C4         -0.5750   -0.3820    1.2830 c         1 3WK      0.607700
     11 C5          0.2920   -0.1860    2.4400 ca        1 3WK     -0.512200
     12 C6          1.6530    0.2370    2.2470 ca        1 3WK      0.688300
     13 N7          2.4900    0.4830    3.2930 nb        1 3WK     -0.713000
     14 N9          0.7170   -0.1080    4.8560 nb        1 3WK     -0.770000
     15 O11        -1.7960   -0.6040    1.3490 o         1 3WK     -0.576100
     16 N12        -1.4070   -0.8550    4.0870 nh        1 3WK     -0.718300
     17 C17        -3.7970   -0.5410    6.9120 ca        1 3WK     -0.183000
     18 C18        -3.2090   -0.3950    5.6650 ca        1 3WK     -0.089000
     19 N19        -3.7790   -1.4900    9.1660 nh        1 3WK     -0.818200
     20 H1         -0.5730    0.3730   -0.7320 hc        1 3WK      0.106700
     21 H2          0.0110   -1.3300   -0.5490 hc        1 3WK      0.106700
     22 H3          1.9290    0.3260   -1.0770 h4        1 3WK      0.036800
     23 H4          2.6350    0.5120    5.3820 h5        1 3WK      0.059100
     24 H5         -0.3240   -2.1700    6.2190 ha        1 3WK      0.143000
     25 H6         -1.3560   -2.4150    8.4290 ha        1 3WK      0.135500
     26 H7         -2.0700   -0.8890    3.3370 hn        1 3WK      0.476800
     27 H8         -4.7810   -0.0840    7.0960 ha        1 3WK      0.135500
     28 H9         -3.7420    0.1780    4.8890 ha        1 3WK      0.143000
     29 H10        -4.4640   -0.8090    9.4060 hn        1 3WK      0.391300
     30 H11        -3.1580   -1.7070    9.9130 hn        1 3WK      0.391300
@<TRIPOS>BOND
     1    1    2 1   
     2    1   10 1   
     3    1   20 1   
     4    1   21 1   
     5    2    9 2   
     6    2   22 1   
     7    3   13 ar  
     8    3   14 ar  
     9    3   23 1   
    10    4   11 ar  
    11    4   14 ar  
    12    4   16 1   
    13    5    6 ar  
    14    5   16 1   
    15    5   18 ar  
    16    6    7 ar  
    17    6   24 1   
    18    7    8 ar  
    19    7   25 1   
    20    8   17 ar  
    21    8   19 1   
    22    9   12 1   
    23   10   11 1   
    24   10   15 2   
    25   11   12 ar  
    26   12   13 ar  
    27   16   26 1   
    28   17   18 ar  
    29   17   27 1   
    30   18   28 1   
    31   19   29 1   
    32   19   30 1   
@<TRIPOS>SUBSTRUCTURE
     1 3WK         1 TEMP              0 ****  ****    0 ROOT
