@<TRIPOS>MOLECULE
3WL
   30    32     1     0     0
SMALL
bcc


@<TRIPOS>ATOM
      1 C4         -0.0560    0.4210    0.1000 ca        1 3WL     -0.090000
      2 C5          1.3360    0.4050    0.0470 ca        1 3WL     -0.136500
      3 C6         -2.1800    0.0440    1.3420 cc        1 3WL      0.207900
      4 C7         -2.9050    0.2110    2.4720 cd        1 3WL     -0.320200
      5 C8         -4.3630    0.2280    2.4610 c         1 3WL      0.607900
      6 C10        -6.3660    0.0670    0.9260 ca        1 3WL      0.188100
      7 C13        -4.6350   -0.2530   -1.2870 ca        1 3WL     -0.207000
      8 O          -5.0290    0.3710    3.5030 o         1 3WL     -0.588100
      9 C9         -4.9700    0.0680    1.1380 ca        1 3WL     -0.296600
     10 C14        -4.1380   -0.0940    0.0120 ca        1 3WL      0.184100
     11 C12        -6.0230   -0.2510   -1.4720 ca        1 3WL      0.197100
     12 O2         -6.4840   -0.4070   -2.7500 oh        1 3WL     -0.482100
     13 C11        -6.8900   -0.0910   -0.3700 ca        1 3WL     -0.029900
     14 O3         -8.2420   -0.1000   -0.6480 oh        1 3WL     -0.515100
     15 O4         -7.3080    0.2110    1.9070 oh        1 3WL     -0.519100
     16 O1         -2.7540   -0.1120    0.0900 os        1 3WL     -0.219200
     17 C3         -0.7180    0.0140    1.2670 ca        1 3WL     -0.082800
     18 C2          0.0270   -0.4170    2.3740 ca        1 3WL     -0.090000
     19 C1          1.4190   -0.4300    2.3130 ca        1 3WL     -0.136500
     20 C           2.0750   -0.0180    1.1530 ca        1 3WL     -0.105000
     21 H1         -0.6420    0.7500   -0.7720 ha        1 3WL      0.146000
     22 H2          1.8520    0.7280   -0.8700 ha        1 3WL      0.140000
     23 H3         -2.4170    0.3490    3.4480 ha        1 3WL      0.172000
     24 H4         -3.9580   -0.3790   -2.1430 ha        1 3WL      0.176000
     25 H5         -7.4560   -0.3880   -2.7270 ho        1 3WL      0.449000
     26 H6         -8.7180    0.0070    0.1910 ho        1 3WL      0.450000
     27 H7         -6.8760    0.3130    2.7740 ho        1 3WL      0.478000
     28 H8         -0.4860   -0.7520    3.2890 ha        1 3WL      0.146000
     29 H9          2.0000   -0.7680    3.1840 ha        1 3WL      0.140000
     30 H10         3.1750   -0.0290    1.1090 ha        1 3WL      0.138000
@<TRIPOS>BOND
     1    1    2 ar  
     2    1   17 ar  
     3    1   21 1   
     4    2   20 ar  
     5    2   22 1   
     6    3    4 2   
     7    3   16 1   
     8    3   17 1   
     9    4    5 1   
    10    4   23 1   
    11    5    8 2   
    12    5    9 1   
    13    6    9 ar  
    14    6   13 ar  
    15    6   15 1   
    16    7   10 ar  
    17    7   11 ar  
    18    7   24 1   
    19    9   10 ar  
    20   10   16 1   
    21   11   12 1   
    22   11   13 ar  
    23   12   25 1   
    24   13   14 1   
    25   14   26 1   
    26   15   27 1   
    27   17   18 ar  
    28   18   19 ar  
    29   18   28 1   
    30   19   20 ar  
    31   19   29 1   
    32   20   30 1   
@<TRIPOS>SUBSTRUCTURE
     1 3WL         1 TEMP              0 ****  ****    0 ROOT
