@<TRIPOS>MOLECULE
3WM
  120   119     1     0     0
SMALL
bcc


@<TRIPOS>ATOM
      1 CBF        -0.0300    2.6220    1.7080 c3        1 3WM     -0.092100
      2 CBE         1.1200    1.7890    2.2130 c3        1 3WM     -0.080400
      3 CBD         2.2960    2.6520    2.6170 c3        1 3WM     -0.079400
      4 CBC         3.4490    1.8110    3.1230 c3        1 3WM     -0.079400
      5 CBB         4.6240    2.6750    3.5270 c3        1 3WM     -0.078400
      6 CBA         5.7760    1.8340    4.0330 c3        1 3WM     -0.079400
      7 CAZ         6.9520    2.6980    4.4350 c3        1 3WM     -0.080400
      8 CAY         8.1020    1.8580    4.9480 c3        1 3WM     -0.075400
      9 CAX         9.2990    2.7030    5.3310 c3        1 3WM     -0.048200
     10 CAW         9.9910    3.2980    4.1630 c2        1 3WM     -0.173200
     11 CAV        10.9900    4.1820    4.2620 c2        1 3WM     -0.175200
     12 CAU        11.5180    4.6880    5.5510 c3        1 3WM     -0.048200
     13 CAT        12.7510    5.5540    5.3930 c3        1 3WM     -0.075400
     14 CAS        13.9630    4.7480    4.9770 c3        1 3WM     -0.080400
     15 CAR        15.1770    5.6340    4.8010 c3        1 3WM     -0.078400
     16 CAQ        16.3870    4.8260    4.3830 c3        1 3WM     -0.078400
     17 CAP        17.6040    5.7100    4.2250 c3        1 3WM     -0.103400
     18 CAO        18.7890    4.8920    3.7120 c3        1 3WM      0.337900
     19 OAD        18.6590    4.4930    2.3740 oh        1 3WM     -0.630800
     20 OAN        19.9210    5.7530    3.7680 os        1 3WM     -0.464600
     21 CAM        21.1700    5.1370    3.4560 c3        1 3WM      0.079100
     22 CAL        21.3720    5.0990    1.9360 c3        1 3WM      0.115400
     23 OAK        20.7160    6.1750    1.2950 oh        1 3WM     -0.605800
     24 CBI        22.2470    5.9790    4.1500 c3        1 3WM      0.130400
     25 OBJ        22.3880    7.2550    3.5410 os        1 3WM     -0.463600
     26 CBK        21.5660    8.2730    4.1060 c3        1 3WM      0.318900
     27 OCC        22.1390    8.5450    5.3600 oh        1 3WM     -0.618800
     28 CBL        21.6050    9.4550    3.1390 c3        1 3WM     -0.105400
     29 CBM        20.7300   10.5790    3.6480 c3        1 3WM     -0.079400
     30 CBN        20.8240   11.7930    2.7500 c3        1 3WM     -0.078400
     31 CBO        19.9410   12.9150    3.2530 c3        1 3WM     -0.079400
     32 CBP        20.0370   14.1320    2.3580 c3        1 3WM     -0.077400
     33 CBQ        19.1530   15.2530    2.8630 c3        1 3WM     -0.049200
     34 CBR        19.2290   16.4590    2.0050 c2        1 3WM     -0.175200
     35 CBS        18.5590   17.5890    2.2530 c2        1 3WM     -0.173200
     36 CBT        17.6610   17.7760    3.4170 c3        1 3WM     -0.049200
     37 CBU        17.0190   19.1470    3.4340 c3        1 3WM     -0.077400
     38 CBV        16.1080   19.3090    4.6320 c3        1 3WM     -0.079400
     39 CBW        15.4650   20.6790    4.6520 c3        1 3WM     -0.079400
     40 CBX        14.5540   20.8410    5.8500 c3        1 3WM     -0.079400
     41 CBY        13.9110   22.2110    5.8690 c3        1 3WM     -0.079400
     42 CBZ        13.0000   22.3740    7.0670 c3        1 3WM     -0.079400
     43 CCA        12.3560   23.7440    7.0880 c3        1 3WM     -0.080400
     44 CCB        11.4480   23.9100    8.2790 c3        1 3WM     -0.092100
     45 H1         -0.3810    3.3290    2.4980 hc        1 3WM      0.032700
     46 H2          0.2780    3.2200    0.8160 hc        1 3WM      0.032700
     47 H3         -0.8850    1.9670    1.4160 hc        1 3WM      0.032700
     48 H4          1.4420    1.0690    1.4150 hc        1 3WM      0.038700
     49 H5          0.7850    1.1780    3.0930 hc        1 3WM      0.038700
     50 H6          1.9770    3.3720    3.4160 hc        1 3WM      0.039700
     51 H7          2.6340    3.2620    1.7380 hc        1 3WM      0.039700
     52 H8          3.7680    1.0910    2.3240 hc        1 3WM      0.039200
     53 H9          3.1110    1.2000    4.0020 hc        1 3WM      0.039200
     54 H10         4.9620    3.2850    2.6480 hc        1 3WM      0.039700
     55 H11         4.3040    3.3950    4.3260 hc        1 3WM      0.039700
     56 H12         5.4390    1.2240    4.9130 hc        1 3WM      0.038700
     57 H13         6.0940    1.1130    3.2350 hc        1 3WM      0.038700
     58 H14         6.6320    3.4220    5.2300 hc        1 3WM      0.041200
     59 H15         7.2940    3.3040    3.5550 hc        1 3WM      0.041200
     60 H16         8.4010    1.1120    4.1650 hc        1 3WM      0.040200
     61 H17         7.7640    1.2770    5.8470 hc        1 3WM      0.040200
     62 H18         8.9730    3.5210    6.0310 hc        1 3WM      0.046700
     63 H19        10.0310    2.0640    5.8990 hc        1 3WM      0.046700
     64 H20         9.6390    2.9650    3.1730 ha        1 3WM      0.123000
     65 H21        11.4700    4.5830    3.3540 ha        1 3WM      0.123000
     66 H22        10.7140    5.2870    6.0620 hc        1 3WM      0.047200
     67 H23        11.7530    3.8200    6.2270 hc        1 3WM      0.047200
     68 H24        12.5540    6.3560    4.6340 hc        1 3WM      0.040200
     69 H25        12.9640    6.0650    6.3690 hc        1 3WM      0.040200
     70 H26        14.1770    3.9640    5.7500 hc        1 3WM      0.042700
     71 H27        13.7440    4.2120    4.0150 hc        1 3WM      0.042700
     72 H28        15.3950    6.1690    5.7630 hc        1 3WM      0.039700
     73 H29        14.9630    6.4180    4.0280 hc        1 3WM      0.039700
     74 H30        16.1810    4.3040    3.4110 hc        1 3WM      0.048700
     75 H31        16.5940    4.0330    5.1500 hc        1 3WM      0.048700
     76 H32        17.3900    6.5400    3.5020 hc        1 3WM      0.057200
     77 H33        17.8830    6.1750    5.2050 hc        1 3WM      0.057200
     78 H34        18.9460    3.9470    4.3030 h2        1 3WM      0.069700
     79 H35        18.7100    5.2830    1.8150 ho        1 3WM      0.434000
     80 H36        21.2040    4.0910    3.8670 h1        1 3WM      0.054700
     81 H37        20.9010    4.1790    1.4970 h1        1 3WM      0.056200
     82 H38        22.4690    5.1240    1.7020 h1        1 3WM      0.056200
     83 H39        20.9770    6.9810    1.7620 ho        1 3WM      0.414000
     84 H40        22.0160    6.0830    5.2420 h1        1 3WM      0.065700
     85 H41        23.2470    5.4870    4.0050 h1        1 3WM      0.065700
     86 H42        20.5210    7.9090    4.3140 h2        1 3WM      0.103700
     87 H43        23.0370    8.8660    5.2140 ho        1 3WM      0.410000
     88 H44        22.6630    9.8070    3.0250 hc        1 3WM      0.057200
     89 H45        21.2530    9.1100    2.1330 hc        1 3WM      0.057200
     90 H46        19.6650   10.2310    3.7040 hc        1 3WM      0.049200
     91 H47        21.0450   10.8490    4.6920 hc        1 3WM      0.049200
     92 H48        20.5210   11.5140    1.7060 hc        1 3WM      0.041200
     93 H49        21.8880   12.1450    2.7020 hc        1 3WM      0.041200
     94 H50        20.2430   13.1910    4.2980 hc        1 3WM      0.041200
     95 H51        18.8760   12.5640    3.2980 hc        1 3WM      0.041200
     96 H52        21.1020   14.4830    2.3120 hc        1 3WM      0.041700
     97 H53        19.7340   13.8550    1.3130 hc        1 3WM      0.041700
     98 H54        19.4520   15.5230    3.9140 hc        1 3WM      0.047700
     99 H55        18.0870   14.8980    2.9140 hc        1 3WM      0.047700
    100 H56        19.8830   16.3820    1.1210 ha        1 3WM      0.122000
    101 H57        18.6560   18.4530    1.5750 ha        1 3WM      0.122000
    102 H58        18.2450   17.6220    4.3660 hc        1 3WM      0.047700
    103 H59        16.8610   16.9850    3.4020 hc        1 3WM      0.047700
    104 H60        17.8160   19.9360    3.4580 hc        1 3WM      0.041700
    105 H61        16.4300   19.2990    2.4910 hc        1 3WM      0.041700
    106 H62        15.3110   18.5190    4.6090 hc        1 3WM      0.039700
    107 H63        16.6960   19.1560    5.5750 hc        1 3WM      0.039700
    108 H64        14.8760   20.8310    3.7080 hc        1 3WM      0.039700
    109 H65        16.2620   21.4680    4.6750 hc        1 3WM      0.039700
    110 H66        13.7570   20.0520    5.8260 hc        1 3WM      0.039700
    111 H67        15.1420   20.6890    6.7930 hc        1 3WM      0.039700
    112 H68        13.3220   22.3640    4.9260 hc        1 3WM      0.039700
    113 H69        14.7080   23.0000    5.8930 hc        1 3WM      0.039700
    114 H70        12.2030   21.5850    7.0440 hc        1 3WM      0.039700
    115 H71        13.5880   22.2210    8.0100 hc        1 3WM      0.039700
    116 H72        13.1550   24.5320    7.1100 hc        1 3WM      0.038700
    117 H73        11.7700   23.8950    6.1430 hc        1 3WM      0.038700
    118 H74        12.0200   23.7870    9.2310 hc        1 3WM      0.032700
    119 H75        10.6310   23.1490    8.2620 hc        1 3WM      0.032700
    120 H76        10.9840   24.9260    8.2750 hc        1 3WM      0.032700
@<TRIPOS>BOND
     1    1    2 1   
     2    1   45 1   
     3    1   46 1   
     4    1   47 1   
     5    2    3 1   
     6    2   48 1   
     7    2   49 1   
     8    3    4 1   
     9    3   50 1   
    10    3   51 1   
    11    4    5 1   
    12    4   52 1   
    13    4   53 1   
    14    5    6 1   
    15    5   54 1   
    16    5   55 1   
    17    6    7 1   
    18    6   56 1   
    19    6   57 1   
    20    7    8 1   
    21    7   58 1   
    22    7   59 1   
    23    8    9 1   
    24    8   60 1   
    25    8   61 1   
    26    9   10 1   
    27    9   62 1   
    28    9   63 1   
    29   10   11 2   
    30   10   64 1   
    31   11   12 1   
    32   11   65 1   
    33   12   13 1   
    34   12   66 1   
    35   12   67 1   
    36   13   14 1   
    37   13   68 1   
    38   13   69 1   
    39   14   15 1   
    40   14   70 1   
    41   14   71 1   
    42   15   16 1   
    43   15   72 1   
    44   15   73 1   
    45   16   17 1   
    46   16   74 1   
    47   16   75 1   
    48   17   18 1   
    49   17   76 1   
    50   17   77 1   
    51   18   19 1   
    52   18   20 1   
    53   18   78 1   
    54   19   79 1   
    55   20   21 1   
    56   21   22 1   
    57   21   24 1   
    58   21   80 1   
    59   22   23 1   
    60   22   81 1   
    61   22   82 1   
    62   23   83 1   
    63   24   25 1   
    64   24   84 1   
    65   24   85 1   
    66   25   26 1   
    67   26   27 1   
    68   26   28 1   
    69   26   86 1   
    70   27   87 1   
    71   28   29 1   
    72   28   88 1   
    73   28   89 1   
    74   29   30 1   
    75   29   90 1   
    76   29   91 1   
    77   30   31 1   
    78   30   92 1   
    79   30   93 1   
    80   31   32 1   
    81   31   94 1   
    82   31   95 1   
    83   32   33 1   
    84   32   96 1   
    85   32   97 1   
    86   33   34 1   
    87   33   98 1   
    88   33   99 1   
    89   34   35 2   
    90   34  100 1   
    91   35   36 1   
    92   35  101 1   
    93   36   37 1   
    94   36  102 1   
    95   36  103 1   
    96   37   38 1   
    97   37  104 1   
    98   37  105 1   
    99   38   39 1   
   100   38  106 1   
   101   38  107 1   
   102   39   40 1   
   103   39  108 1   
   104   39  109 1   
   105   40   41 1   
   106   40  110 1   
   107   40  111 1   
   108   41   42 1   
   109   41  112 1   
   110   41  113 1   
   111   42   43 1   
   112   42  114 1   
   113   42  115 1   
   114   43   44 1   
   115   43  116 1   
   116   43  117 1   
   117   44  118 1   
   118   44  119 1   
   119   44  120 1   
@<TRIPOS>SUBSTRUCTURE
     1 3WM         1 TEMP              0 ****  ****    0 ROOT
