@<TRIPOS>MOLECULE
3WM
  120   119     1     0     0
SMALL
bcc


@<TRIPOS>ATOM
      1 CBF        -0.0170    2.0550    1.5290 c3        1 3WM     -0.092100
      2 CBE         1.1500    1.2810    2.0860 c3        1 3WM     -0.080400
      3 CBD         2.2870    2.1990    2.4810 c3        1 3WM     -0.079400
      4 CBC         3.4570    1.4180    3.0400 c3        1 3WM     -0.079400
      5 CBB         4.5930    2.3370    3.4350 c3        1 3WM     -0.078400
      6 CBA         5.7630    1.5550    3.9930 c3        1 3WM     -0.079400
      7 CAZ         6.9000    2.4740    4.3870 c3        1 3WM     -0.080400
      8 CAY         8.0680    1.6930    4.9510 c3        1 3WM     -0.075400
      9 CAX         9.2270    2.5930    5.3260 c3        1 3WM     -0.048200
     10 CAW         9.9230    3.1690    4.1510 c2        1 3WM     -0.173200
     11 CAV        10.8970    4.0830    4.2380 c2        1 3WM     -0.175200
     12 CAU        11.3880    4.6430    5.5190 c3        1 3WM     -0.048200
     13 CAT        12.6090    5.5260    5.3550 c3        1 3WM     -0.075400
     14 CAS        13.8420    4.7280    4.9870 c3        1 3WM     -0.080400
     15 CAR        15.0450    5.6290    4.8080 c3        1 3WM     -0.078400
     16 CAQ        16.2750    4.8300    4.4340 c3        1 3WM     -0.078400
     17 CAP        17.4800    5.7290    4.2740 c3        1 3WM     -0.103400
     18 CAO        18.6860    4.9160    3.8010 c3        1 3WM      0.337900
     19 OAD        18.5850    4.4860    2.4700 oh        1 3WM     -0.630800
     20 OAN        19.8050    5.7930    3.8580 os        1 3WM     -0.464600
     21 CAM        21.0670    5.1880    3.5810 c3        1 3WM      0.079100
     22 CAL        21.2970    5.1200    2.0670 c3        1 3WM      0.115400
     23 OAK        20.6390    6.1720    1.3900 oh        1 3WM     -0.605800
     24 CBI        22.1210    6.0590    4.2760 c3        1 3WM      0.130400
     25 OBJ        22.2560    7.3230    3.6400 os        1 3WM     -0.463600
     26 CBK        21.4130    8.3430    4.1690 c3        1 3WM      0.318900
     27 OCC        21.9620    8.6500    5.4250 oh        1 3WM     -0.618800
     28 CBL        21.4540    9.5040    3.1760 c3        1 3WM     -0.105400
     29 CBM        20.5730   10.6360    3.6550 c3        1 3WM     -0.079400
     30 CBN        20.6680   11.8290    2.7280 c3        1 3WM     -0.078400
     31 CBO        19.7890   12.9640    3.2080 c3        1 3WM     -0.079400
     32 CBP        19.8820   14.1580    2.2820 c3        1 3WM     -0.077400
     33 CBQ        19.0120   15.2980    2.7690 c3        1 3WM     -0.049200
     34 CBR        19.0850   16.4810    1.8800 c2        1 3WM     -0.175200
     35 CBS        18.4960   17.6510    2.1510 c2        1 3WM     -0.173200
     36 CBT        17.7040   17.9100    3.3760 c3        1 3WM     -0.049200
     37 CBU        17.0830   19.2920    3.3770 c3        1 3WM     -0.077400
     38 CBV        16.2830   19.5300    4.6390 c3        1 3WM     -0.079400
     39 CBW        15.6620   20.9110    4.6430 c3        1 3WM     -0.079400
     40 CBX        14.8640   21.1510    5.9060 c3        1 3WM     -0.079400
     41 CBY        14.2440   22.5320    5.9100 c3        1 3WM     -0.079400
     42 CBZ        13.4470   22.7740    7.1740 c3        1 3WM     -0.079400
     43 CCA        12.8270   24.1550    7.1790 c3        1 3WM     -0.080400
     44 CCB        12.0340   24.4000    8.4370 c3        1 3WM     -0.092100
     45 H1         -0.8440    1.3590    1.2450 hc        1 3WM      0.032700
     46 H2         -0.4090    2.7770    2.2850 hc        1 3WM      0.032700
     47 H3          0.2880    2.6300    0.6220 hc        1 3WM      0.032700
     48 H4          0.8180    0.6910    2.9810 hc        1 3WM      0.038700
     49 H5          1.5130    0.5440    1.3220 hc        1 3WM      0.038700
     50 H6          2.6210    2.7890    1.5870 hc        1 3WM      0.039700
     51 H7          1.9260    2.9360    3.2470 hc        1 3WM      0.039700
     52 H8          3.8180    0.6810    2.2740 hc        1 3WM      0.039200
     53 H9          3.1230    0.8280    3.9340 hc        1 3WM      0.039200
     54 H10         4.9270    2.9270    2.5420 hc        1 3WM      0.039700
     55 H11         4.2330    3.0730    4.2010 hc        1 3WM      0.039700
     56 H12         5.4290    0.9650    4.8880 hc        1 3WM      0.038700
     57 H13         6.1230    0.8180    3.2270 hc        1 3WM      0.038700
     58 H14         7.2380    3.0610    3.4920 hc        1 3WM      0.041200
     59 H15         6.5390    3.2140    5.1490 hc        1 3WM      0.041200
     60 H16         7.7320    1.1330    5.8630 hc        1 3WM      0.040200
     61 H17         8.4080    0.9320    4.2000 hc        1 3WM      0.040200
     62 H18         8.8580    3.4240    5.9890 hc        1 3WM      0.046700
     63 H19         9.9680    2.0000    5.9320 hc        1 3WM      0.046700
     64 H20         9.5970    2.7960    3.1660 ha        1 3WM      0.123000
     65 H21        11.3800    4.4680    3.3260 ha        1 3WM      0.123000
     66 H22        10.5630    5.2450    5.9920 hc        1 3WM      0.047200
     67 H23        11.6250    3.8040    6.2300 hc        1 3WM      0.047200
     68 H24        12.4120    6.2990    4.5660 hc        1 3WM      0.040200
     69 H25        12.7940    6.0720    6.3170 hc        1 3WM      0.040200
     70 H26        13.6510    4.1590    4.0390 hc        1 3WM      0.042700
     71 H27        14.0540    3.9730    5.7890 hc        1 3WM      0.042700
     72 H28        15.2370    6.1950    5.7570 hc        1 3WM      0.039700
     73 H29        14.8320    6.3870    4.0080 hc        1 3WM      0.039700
     74 H30        16.4790    4.0610    5.2250 hc        1 3WM      0.048700
     75 H31        16.0950    4.2790    3.4730 hc        1 3WM      0.048700
     76 H32        17.7360    6.2210    5.2470 hc        1 3WM      0.057200
     77 H33        17.2670    6.5370    3.5280 hc        1 3WM      0.057200
     78 H34        18.8450    3.9860    4.4160 h2        1 3WM      0.069700
     79 H35        18.6360    5.2640    1.8940 ho        1 3WM      0.434000
     80 H36        21.1080    4.1520    4.0160 h1        1 3WM      0.054700
     81 H37        20.8460    4.1830    1.6400 h1        1 3WM      0.056200
     82 H38        22.3980    5.1540    1.8510 h1        1 3WM      0.056200
     83 H39        20.8810    6.9910    1.8440 ho        1 3WM      0.414000
     84 H40        21.8690    6.1850    5.3610 h1        1 3WM      0.065700
     85 H41        23.1290    5.5780    4.1600 h1        1 3WM      0.065700
     86 H42        20.3690    7.9710    4.3680 h2        1 3WM      0.103700
     87 H43        22.8590    8.9810    5.2860 ho        1 3WM      0.410000
     88 H44        21.1080    9.1350    2.1760 hc        1 3WM      0.057200
     89 H45        22.5120    9.8550    3.0590 hc        1 3WM      0.057200
     90 H46        20.8830   10.9310    4.6930 hc        1 3WM      0.049200
     91 H47        19.5090   10.2870    3.7140 hc        1 3WM      0.049200
     92 H48        20.3600   11.5270    1.6920 hc        1 3WM      0.041200
     93 H49        21.7330   12.1770    2.6690 hc        1 3WM      0.041200
     94 H50        20.0970   13.2660    4.2440 hc        1 3WM      0.041200
     95 H51        18.7240   12.6170    3.2680 hc        1 3WM      0.041200
     96 H52        20.9480   14.5010    2.2160 hc        1 3WM      0.041700
     97 H53        19.5660   13.8580    1.2480 hc        1 3WM      0.041700
     98 H54        17.9430   14.9510    2.8390 hc        1 3WM      0.047700
     99 H55        19.3230   15.5900    3.8100 hc        1 3WM      0.047700
    100 H56        19.6630   16.3510    0.9510 ha        1 3WM      0.122000
    101 H57        18.5850   18.4940    1.4460 ha        1 3WM      0.122000
    102 H58        16.8960   17.1340    3.4720 hc        1 3WM      0.047700
    103 H59        18.3670   17.7970    4.2780 hc        1 3WM      0.047700
    104 H60        16.4160   19.4050    2.4810 hc        1 3WM      0.041700
    105 H61        17.8890   20.0670    3.2900 hc        1 3WM      0.041700
    106 H62        15.4760   18.7550    4.7260 hc        1 3WM      0.039700
    107 H63        16.9490   19.4150    5.5340 hc        1 3WM      0.039700
    108 H64        16.4680   21.6860    4.5540 hc        1 3WM      0.039700
    109 H65        14.9940   21.0250    3.7480 hc        1 3WM      0.039700
    110 H66        14.0570   20.3770    5.9950 hc        1 3WM      0.039700
    111 H67        15.5320   21.0370    6.8000 hc        1 3WM      0.039700
    112 H68        15.0500   23.3070    5.8200 hc        1 3WM      0.039700
    113 H69        13.5750   22.6470    5.0160 hc        1 3WM      0.039700
    114 H70        12.6400   22.0000    7.2640 hc        1 3WM      0.039700
    115 H71        14.1160   22.6590    8.0680 hc        1 3WM      0.039700
    116 H72        13.6360   24.9280    7.0870 hc        1 3WM      0.038700
    117 H73        12.1590   24.2680    6.2850 hc        1 3WM      0.038700
    118 H74        12.6880   24.3160    9.3380 hc        1 3WM      0.032700
    119 H75        11.5860   25.4230    8.4200 hc        1 3WM      0.032700
    120 H76        11.2080   23.6550    8.5340 hc        1 3WM      0.032700
@<TRIPOS>BOND
     1    1    2 1   
     2    1   45 1   
     3    1   46 1   
     4    1   47 1   
     5    2    3 1   
     6    2   48 1   
     7    2   49 1   
     8    3    4 1   
     9    3   50 1   
    10    3   51 1   
    11    4    5 1   
    12    4   52 1   
    13    4   53 1   
    14    5    6 1   
    15    5   54 1   
    16    5   55 1   
    17    6    7 1   
    18    6   56 1   
    19    6   57 1   
    20    7    8 1   
    21    7   58 1   
    22    7   59 1   
    23    8    9 1   
    24    8   60 1   
    25    8   61 1   
    26    9   10 1   
    27    9   62 1   
    28    9   63 1   
    29   10   11 2   
    30   10   64 1   
    31   11   12 1   
    32   11   65 1   
    33   12   13 1   
    34   12   66 1   
    35   12   67 1   
    36   13   14 1   
    37   13   68 1   
    38   13   69 1   
    39   14   15 1   
    40   14   70 1   
    41   14   71 1   
    42   15   16 1   
    43   15   72 1   
    44   15   73 1   
    45   16   17 1   
    46   16   74 1   
    47   16   75 1   
    48   17   18 1   
    49   17   76 1   
    50   17   77 1   
    51   18   19 1   
    52   18   20 1   
    53   18   78 1   
    54   19   79 1   
    55   20   21 1   
    56   21   22 1   
    57   21   24 1   
    58   21   80 1   
    59   22   23 1   
    60   22   81 1   
    61   22   82 1   
    62   23   83 1   
    63   24   25 1   
    64   24   84 1   
    65   24   85 1   
    66   25   26 1   
    67   26   27 1   
    68   26   28 1   
    69   26   86 1   
    70   27   87 1   
    71   28   29 1   
    72   28   88 1   
    73   28   89 1   
    74   29   30 1   
    75   29   90 1   
    76   29   91 1   
    77   30   31 1   
    78   30   92 1   
    79   30   93 1   
    80   31   32 1   
    81   31   94 1   
    82   31   95 1   
    83   32   33 1   
    84   32   96 1   
    85   32   97 1   
    86   33   34 1   
    87   33   98 1   
    88   33   99 1   
    89   34   35 2   
    90   34  100 1   
    91   35   36 1   
    92   35  101 1   
    93   36   37 1   
    94   36  102 1   
    95   36  103 1   
    96   37   38 1   
    97   37  104 1   
    98   37  105 1   
    99   38   39 1   
   100   38  106 1   
   101   38  107 1   
   102   39   40 1   
   103   39  108 1   
   104   39  109 1   
   105   40   41 1   
   106   40  110 1   
   107   40  111 1   
   108   41   42 1   
   109   41  112 1   
   110   41  113 1   
   111   42   43 1   
   112   42  114 1   
   113   42  115 1   
   114   43   44 1   
   115   43  116 1   
   116   43  117 1   
   117   44  118 1   
   118   44  119 1   
   119   44  120 1   
@<TRIPOS>SUBSTRUCTURE
     1 3WM         1 TEMP              0 ****  ****    0 ROOT
