@<TRIPOS>MOLECULE
3WN
   30    32     1     0     0
SMALL
bcc


@<TRIPOS>ATOM
      1 C1         -0.0580    0.0240   -0.0870 cc        1 3WN     -0.307200
      2 C2          1.2950    0.0880   -0.1580 cd        1 3WN      0.104000
      3 C8          1.7840    0.0420    4.5260 ca        1 3WN      0.720900
      4 C10        -0.4010   -0.1060    3.7480 ca        1 3WN      0.770200
      5 C13        -2.3650   -0.2560    5.2550 ca        1 3WN      0.173600
      6 C14        -1.9080   -1.0800    6.2950 ca        1 3WN     -0.175000
      7 C15        -3.7170   -0.2800    7.7180 ca        1 3WN     -0.199000
      8 C16        -4.1700    0.5170    6.6740 ca        1 3WN     -0.081000
      9 N3          2.0940    0.1130    0.9660 na        1 3WN     -0.713700
     10 C4         -0.7550   -0.0230    1.1980 c         1 3WN      0.604900
     11 C5          0.0990   -0.0280    2.3850 ca        1 3WN     -0.489200
     12 C6          1.5240    0.0590    2.2380 ca        1 3WN      0.716200
     13 N7          2.3810    0.0970    3.3160 nb        1 3WN     -0.802000
     14 N9          0.4720   -0.0570    4.8170 nb        1 3WN     -0.797000
     15 O11        -2.0030   -0.0480    1.2300 o         1 3WN     -0.605100
     16 N12        -1.7470   -0.2480    3.9820 nh        1 3WN     -0.726300
     17 C17        -2.5790   -1.0980    7.5400 ca        1 3WN      0.148600
     18 C18        -3.5130    0.5450    5.4500 ca        1 3WN     -0.195000
     19 N19        -2.1680   -1.9780    8.5480 nh        1 3WN     -0.818200
     20 H1         -0.6780    0.0060   -0.9930 ha        1 3WN      0.168000
     21 H3          1.8420    0.1260   -1.1190 h4        1 3WN      0.158000
     22 H4          2.4690    0.0840    5.4020 h5        1 3WN      0.054100
     23 H5         -1.0270   -1.7240    6.1480 ha        1 3WN      0.151000
     24 H6         -4.2550   -0.2780    8.6780 ha        1 3WN      0.133000
     25 H7         -5.0630    1.1440    6.8210 ha        1 3WN      0.133000
     26 H8         -2.3690   -0.1450    3.2000 hn        1 3WN      0.486800
     27 H9         -3.8920    1.1890    4.6420 ha        1 3WN      0.139000
     28 H10        -1.2120   -2.2520    8.4870 hn        1 3WN      0.389800
     29 H11        -2.4380   -1.7010    9.4650 hn        1 3WN      0.389800
     30 H2          3.0840    0.1730    0.8750 hn        1 3WN      0.468800
@<TRIPOS>BOND
     1    1    2 2   
     2    1   10 1   
     3    1   20 1   
     4    2    9 1   
     5    2   21 1   
     6    3   13 ar  
     7    3   14 ar  
     8    3   22 1   
     9    4   11 ar  
    10    4   14 ar  
    11    4   16 1   
    12    5    6 ar  
    13    5   16 1   
    14    5   18 ar  
    15    6   17 ar  
    16    6   23 1   
    17    7    8 ar  
    18    7   17 ar  
    19    7   24 1   
    20    8   18 ar  
    21    8   25 1   
    22    9   12 1   
    23    9   30 1   
    24   10   11 1   
    25   10   15 2   
    26   11   12 ar  
    27   12   13 ar  
    28   16   26 1   
    29   17   19 1   
    30   18   27 1   
    31   19   28 1   
    32   19   29 1   
@<TRIPOS>SUBSTRUCTURE
     1 3WN         1 TEMP              0 ****  ****    0 ROOT
