@<TRIPOS>MOLECULE
3WN
   30    32     1     0     0
SMALL
bcc


@<TRIPOS>ATOM
      1 C1         -0.0380    0.0300   -0.0810 cc        1 3WN     -0.307200
      2 C2          1.3150    0.0980   -0.1460 cd        1 3WN      0.104000
      3 C8          1.7810    0.0470    4.5400 ca        1 3WN      0.720900
      4 C10        -0.4000   -0.1050    3.7520 ca        1 3WN      0.770200
      5 C13        -2.3700   -0.2600    5.2490 ca        1 3WN      0.173600
      6 C14        -1.9170   -1.0840    6.2910 ca        1 3WN     -0.175000
      7 C15        -3.7350   -0.2880    7.7060 ca        1 3WN     -0.199000
      8 C16        -4.1840    0.5090    6.6600 ca        1 3WN     -0.081000
      9 N3          2.1080    0.1220    0.9820 na        1 3WN     -0.713700
     10 C4         -0.7420   -0.0190    1.2000 c         1 3WN      0.604900
     11 C5          0.1060   -0.0240    2.3910 ca        1 3WN     -0.489200
     12 C6          1.5320    0.0660    2.2510 ca        1 3WN      0.716200
     13 N7          2.3840    0.1040    3.3340 nb        1 3WN     -0.802000
     14 N9          0.4680   -0.0550    4.8250 nb        1 3WN     -0.797000
     15 O11        -1.9890   -0.0470    1.2260 o         1 3WN     -0.605100
     16 N12        -1.7470   -0.2490    3.9790 nu        1 3WN     -0.726300
     17 C17        -2.5940   -1.1040    7.5320 ca        1 3WN      0.148600
     18 C18        -3.5210    0.5390    5.4390 ca        1 3WN     -0.195000
     19 N19        -2.1870   -1.9840    8.5410 nv        1 3WN     -0.818200
     20 H1         -0.6540    0.0120   -0.9910 ha        1 3WN      0.168000
     21 H3          1.8660    0.1380   -1.1040 h4        1 3WN      0.158000
     22 H4          2.4620    0.0890    5.4200 h5        1 3WN      0.054100
     23 H5         -1.0340   -1.7260    6.1480 ha        1 3WN      0.151000
     24 H6         -4.2770   -0.2870    8.6620 ha        1 3WN      0.133000
     25 H7         -5.0790    1.1340    6.8030 ha        1 3WN      0.133000
     26 H8         -2.3650   -0.1470    3.1940 hn        1 3WN      0.486800
     27 H9         -3.8970    1.1830    4.6300 ha        1 3WN      0.139000
     28 H10        -1.2300   -2.2560    8.4850 hn        1 3WN      0.389800
     29 H11        -2.4620   -1.7080    9.4580 hn        1 3WN      0.389800
     30 H2          3.0990    0.1850    0.8960 hn        1 3WN      0.468800
@<TRIPOS>BOND
     1    1    2 2   
     2    1   10 1   
     3    1   20 1   
     4    2    9 1   
     5    2   21 1   
     6    3   13 ar  
     7    3   14 ar  
     8    3   22 1   
     9    4   11 ar  
    10    4   14 ar  
    11    4   16 1   
    12    5    6 ar  
    13    5   16 1   
    14    5   18 ar  
    15    6   17 ar  
    16    6   23 1   
    17    7    8 ar  
    18    7   17 ar  
    19    7   24 1   
    20    8   18 ar  
    21    8   25 1   
    22    9   12 1   
    23    9   30 1   
    24   10   11 1   
    25   10   15 2   
    26   11   12 ar  
    27   12   13 ar  
    28   16   26 1   
    29   17   19 1   
    30   18   27 1   
    31   19   28 1   
    32   19   29 1   
@<TRIPOS>SUBSTRUCTURE
     1 3WN         1 TEMP              0 ****  ****    0 ROOT
