@<TRIPOS>MOLECULE
3WO
   30    32     1     0     0
SMALL
bcc


@<TRIPOS>ATOM
      1 C1          0.0560   -0.3170   -0.0720 c3        1 3WO     -0.288700
      2 C2          1.5280   -0.1140   -0.0580 c2        1 3WO      0.467200
      3 C8          1.9640    0.1770    4.5510 ca        1 3WO      0.700900
      4 C10        -0.2020   -0.2200    3.8150 ca        1 3WO      0.758200
      5 C13        -2.1180   -0.4190    5.3730 ca        1 3WO      0.171600
      6 C14        -3.0210   -1.4620    5.6640 ca        1 3WO     -0.219000
      7 C15        -3.3860   -0.5200    7.8770 ca        1 3WO     -0.195000
      8 C16        -2.4960    0.5000    7.5760 ca        1 3WO     -0.084000
      9 N3          2.2900    0.0260    0.9700 ne        1 3WO     -0.624700
     10 C4         -0.5500   -0.5120    1.2950 c         1 3WO      0.606700
     11 C5          0.2940   -0.2420    2.4540 ca        1 3WO     -0.509200
     12 C6          1.7000   -0.0020    2.2710 ca        1 3WO      0.687300
     13 N7          2.5420    0.2060    3.3210 nb        1 3WO     -0.711000
     14 N9          0.6740   -0.0170    4.8670 nb        1 3WO     -0.766000
     15 O11        -1.7300   -0.8950    1.3580 o         1 3WO     -0.574100
     16 N12        -1.5450   -0.3690    4.0800 nu        1 3WO     -0.729300
     17 C17        -3.6720   -1.5160    6.9140 ca        1 3WO      0.152600
     18 C18        -1.8620    0.5720    6.3380 ca        1 3WO     -0.153000
     19 N19        -4.6410   -2.4950    7.1660 nv        1 3WO     -0.819200
     20 H1         -0.1970   -1.2080   -0.7110 hc        1 3WO      0.106700
     21 H2         -0.4360    0.5780   -0.5480 hc        1 3WO      0.106700
     22 H3          2.0280   -0.0770   -1.0490 h4        1 3WO      0.037800
     23 H4          2.6550    0.3340    5.4090 h5        1 3WO      0.060100
     24 H5         -3.2300   -2.2350    4.9080 ha        1 3WO      0.137000
     25 H6         -3.8760   -0.5460    8.8620 ha        1 3WO      0.134000
     26 H7         -2.2860    1.2750    8.3310 ha        1 3WO      0.134000
     27 H8         -2.1310   -0.6960    3.3360 hn        1 3WO      0.478800
     28 H9         -1.1680    1.3990    6.1330 ha        1 3WO      0.150000
     29 H10        -4.7900   -2.6820    8.1330 hn        1 3WO      0.390300
     30 H11        -4.5470   -3.3190    6.6160 hn        1 3WO      0.390300
@<TRIPOS>BOND
     1    1    2 1   
     2    1   10 1   
     3    1   20 1   
     4    1   21 1   
     5    2    9 2   
     6    2   22 1   
     7    3   13 ar  
     8    3   14 ar  
     9    3   23 1   
    10    4   11 ar  
    11    4   14 ar  
    12    4   16 1   
    13    5    6 ar  
    14    5   16 1   
    15    5   18 ar  
    16    6   17 ar  
    17    6   24 1   
    18    7    8 ar  
    19    7   17 ar  
    20    7   25 1   
    21    8   18 ar  
    22    8   26 1   
    23    9   12 1   
    24   10   11 1   
    25   10   15 2   
    26   11   12 ar  
    27   12   13 ar  
    28   16   27 1   
    29   17   19 1   
    30   18   28 1   
    31   19   29 1   
    32   19   30 1   
@<TRIPOS>SUBSTRUCTURE
     1 3WO         1 TEMP              0 ****  ****    0 ROOT
