@<TRIPOS>MOLECULE
3WP
   29    30     1     0     0
SMALL
bcc


@<TRIPOS>ATOM
      1 C4          0.0170    0.1200   -0.0800 c3        1 3WP     -0.018300
      2 N2         -0.0010    2.8560    2.9090 nz        1 3WP     -0.805600
      3 C7          4.2740    1.0930    2.1030 ca        1 3WP     -0.064000
      4 C6          3.5540    0.0790    1.4600 ca        1 3WP     -0.151300
      5 C9          6.3840    0.1630    1.3760 ca        1 3WP      0.184900
      6 C8          5.6620    1.1510    2.0710 ca        1 3WP     -0.177000
      7 C1          1.6150   -1.3060    2.1910 c3        1 3WP     -0.103100
      8 C2          2.0310    0.0150    1.5030 c3        1 3WP      0.223500
      9 C3          1.5110    0.0290    0.0410 c3        1 3WP     -0.128400
     10 S1         -0.6700    1.5800    0.6640 ss        1 3WP     -0.163300
     11 C5          0.4190    1.7560    1.9840 c2        1 3WP      0.489100
     12 N1          1.4950    1.1270    2.2950 n2        1 3WP     -0.557900
     13 C10         5.7000   -0.8730    0.7240 ca        1 3WP     -0.196000
     14 C11         4.2960   -0.9130    0.7700 ca        1 3WP      0.163900
     15 F1          3.6840   -1.9390    0.1280 f         1 3WP     -0.133900
     16 F2          7.7320    0.2100    1.3360 f         1 3WP     -0.109900
     17 H6         -0.2830    0.1860   -1.1600 h1        1 3WP      0.113700
     18 H7         -0.4770   -0.7810    0.3620 h1        1 3WP      0.113700
     19 H9         -0.9670    2.6780    3.2080 hn        1 3WP      0.472800
     20 H8          0.6050    2.9110    3.7400 hn        1 3WP      0.472800
     21 H11         6.2030    1.9590    2.5860 ha        1 3WP      0.167000
     22 H3          2.0670   -1.3750    3.2090 hc        1 3WP      0.069033
     23 H2          1.9850   -2.1650    1.5780 hc        1 3WP      0.069033
     24 H1          0.5050   -1.3830    2.2760 hc        1 3WP      0.069033
     25 H5          2.0000    0.8740   -0.5150 hc        1 3WP      0.101700
     26 H4          1.8410   -0.9270   -0.4540 hc        1 3WP      0.101700
     27 H12         6.2540   -1.6550    0.1810 ha        1 3WP      0.184000
     28 H23         0.0450    3.7470    2.4010 hn        1 3WP      0.472800
     29 H10         3.7570    1.8830    2.6710 ha        1 3WP      0.140000
@<TRIPOS>BOND
     1    1    9 1   
     2    1   10 1   
     3    1   17 1   
     4    1   18 1   
     5    2   11 1   
     6    2   19 1   
     7    2   20 1   
     8    2   28 1   
     9    3    4 ar  
    10    3    6 ar  
    11    3   29 1   
    12    4    8 1   
    13    4   14 ar  
    14    5    6 ar  
    15    5   13 ar  
    16    5   16 1   
    17    6   21 1   
    18    7    8 1   
    19    7   22 1   
    20    7   23 1   
    21    7   24 1   
    22    8    9 1   
    23    8   12 1   
    24    9   25 1   
    25    9   26 1   
    26   10   11 1   
    27   11   12 2   
    28   13   14 ar  
    29   13   27 1   
    30   14   15 1   
@<TRIPOS>SUBSTRUCTURE
     1 3WP         1 TEMP              0 ****  ****    0 ROOT
