@<TRIPOS>MOLECULE
3WP
   29    30     1     0     0
SMALL
bcc


@<TRIPOS>ATOM
      1 C4          0.0140    0.1250   -0.0770 c3        1 3WP     -0.018300
      2 N2          0.0040    2.8560    2.9160 n4        1 3WP     -0.805600
      3 C7          4.2760    1.0900    2.1020 ca        1 3WP     -0.064000
      4 C6          3.5540    0.0770    1.4580 ca        1 3WP     -0.151300
      5 C9          6.3840    0.1590    1.3710 ca        1 3WP      0.184900
      6 C8          5.6630    1.1460    2.0680 ca        1 3WP     -0.177000
      7 C1          1.6140   -1.3070    2.1890 c3        1 3WP     -0.103100
      8 C2          2.0310    0.0150    1.5030 c3        1 3WP      0.223500
      9 C3          1.5090    0.0320    0.0420 c3        1 3WP     -0.128400
     10 S1         -0.6690    1.5850    0.6700 ss        1 3WP     -0.163300
     11 C5          0.4210    1.7580    1.9880 c2        1 3WP      0.489100
     12 N1          1.4960    1.1270    2.2980 n2        1 3WP     -0.557900
     13 C10         5.6970   -0.8760    0.7190 ca        1 3WP     -0.196000
     14 C11         4.2930   -0.9140    0.7660 ca        1 3WP      0.163900
     15 F1          3.6800   -1.9380    0.1240 f         1 3WP     -0.133900
     16 F2          7.7320    0.2050    1.3290 f         1 3WP     -0.109900
     17 H6         -0.4800   -0.7770    0.3650 h1        1 3WP      0.113700
     18 H7         -0.2870    0.1930   -1.1570 h1        1 3WP      0.113700
     19 H9         -0.9630    2.6820    3.2120 hn        1 3WP      0.472800
     20 H8          0.0540    3.7480    2.4110 hn        1 3WP      0.472800
     21 H11         6.2060    1.9530    2.5840 ha        1 3WP      0.167000
     22 H3          1.9820   -2.1650    1.5750 hc        1 3WP      0.069033
     23 H2          2.0670   -1.3780    3.2080 hc        1 3WP      0.069033
     24 H1          0.5050   -1.3830    2.2760 hc        1 3WP      0.069033
     25 H5          1.8370   -0.9240   -0.4550 hc        1 3WP      0.101700
     26 H4          1.9980    0.8760   -0.5130 hc        1 3WP      0.101700
     27 H12         6.2500   -1.6570    0.1740 ha        1 3WP      0.184000
     28 H23         0.6090    2.9070    3.7480 hn        1 3WP      0.472800
     29 H10         3.7600    1.8790    2.6710 ha        1 3WP      0.140000
@<TRIPOS>BOND
     1    1    9 1   
     2    1   10 1   
     3    1   17 1   
     4    1   18 1   
     5    2   11 1   
     6    2   19 1   
     7    2   20 1   
     8    2   28 1   
     9    3    4 ar  
    10    3    6 ar  
    11    3   29 1   
    12    4    8 1   
    13    4   14 ar  
    14    5    6 ar  
    15    5   13 ar  
    16    5   16 1   
    17    6   21 1   
    18    7    8 1   
    19    7   22 1   
    20    7   23 1   
    21    7   24 1   
    22    8    9 1   
    23    8   12 1   
    24    9   25 1   
    25    9   26 1   
    26   10   11 1   
    27   11   12 2   
    28   13   14 ar  
    29   13   27 1   
    30   14   15 1   
@<TRIPOS>SUBSTRUCTURE
     1 3WP         1 TEMP              0 ****  ****    0 ROOT
