@<TRIPOS>MOLECULE
3WQ
   47    49     1     0     0
SMALL
bcc


@<TRIPOS>ATOM
      1 CAA         0.1000    0.1220   -0.4260 c3        1 3WQ     -0.094100
      2 CAO         1.5810    0.3130   -0.2360 c3        1 3WQ     -0.086400
      3 CAP         1.9370    0.2530    1.2390 c3        1 3WQ      0.125400
      4 OAQ         3.3590    0.4460    1.3050 os        1 3WQ     -0.319900
      5 CAS         3.9100    0.4160    2.5630 cc        1 3WQ      0.165100
      6 CAN         3.2080    0.2350    3.7390 cd        1 3WQ     -0.235000
      7 CAX         3.9240    0.2290    4.9650 cd        1 3WQ      0.032700
      8 CAK         5.3320    0.5960    2.5780 cc        1 3WQ     -0.192000
      9 CAL         6.0080    0.5860    3.7760 cd        1 3WQ     -0.030300
     10 NAY         5.3280    0.4060    4.9580 na        1 3WQ      0.060700
     11 CAU         5.7970    0.3510    6.2870 cd        1 3WQ     -0.271300
     12 CAR         7.1960    0.4910    6.6780 c         1 3WQ      0.613300
     13 OAD         8.1060    0.6800    5.8570 o         1 3WQ     -0.575100
     14 CAB         7.4570    0.3880    8.1470 c3        1 3WQ     -0.192100
     15 CAM         4.6830    0.1370    7.1270 cc        1 3WQ     -0.037000
     16 CAV         3.5120    0.0470    6.3220 cc        1 3WQ     -0.222200
     17 CAT         2.1400   -0.0830    6.7600 ca        1 3WQ      0.133200
     18 CAI         1.2190    0.8730    6.2890 ca        1 3WQ     -0.165000
     19 CAG        -0.1150    0.8320    6.6730 ca        1 3WQ     -0.067000
     20 CAH        -0.5570   -0.1750    7.5350 ca        1 3WQ     -0.161000
     21 CAJ         0.3440   -1.1260    7.9920 ca        1 3WQ     -0.034000
     22 CAW         1.7010   -1.1100    7.6180 ca        1 3WQ     -0.375500
     23 SAZ         2.6560   -2.3410    8.2550 sy        1 3WQ      1.396300
     24 OAE         3.7760   -1.8320    8.9320 o         1 3WQ     -0.666800
     25 OAF         1.8480   -3.2200    9.0030 o         1 3WQ     -0.666800
     26 CAC         3.1500   -3.1340    6.8480 c3        1 3WQ     -0.360300
     27 H1         -0.4750    0.9200    0.1030 hc        1 3WQ      0.039033
     28 H2         -0.2270   -0.8690   -0.0290 hc        1 3WQ      0.039033
     29 H3         -0.1540    0.1670   -1.5130 hc        1 3WQ      0.039033
     30 H4          2.1510   -0.4810   -0.7860 hc        1 3WQ      0.059200
     31 H5          1.9040    1.3020   -0.6540 hc        1 3WQ      0.059200
     32 H6          1.4250    1.0680    1.8150 h1        1 3WQ      0.043700
     33 H7          1.6750   -0.7440    1.6810 h1        1 3WQ      0.043700
     34 H8          2.1210    0.0940    3.7800 ha        1 3WQ      0.163000
     35 H9          5.8670    0.7400    1.6290 ha        1 3WQ      0.174000
     36 H10         7.1070    0.7180    3.8610 h4        1 3WQ      0.209000
     37 H11         7.0750   -0.5890    8.5360 hc        1 3WQ      0.071700
     38 H12         8.5530    0.4610    8.3500 hc        1 3WQ      0.071700
     39 H13         6.9310    1.2140    8.6830 hc        1 3WQ      0.071700
     40 H14         4.7260    0.0420    8.2160 ha        1 3WQ      0.200000
     41 H15         1.5760    1.6690    5.6180 ha        1 3WQ      0.144000
     42 H16        -0.8200    1.5930    6.3050 ha        1 3WQ      0.136000
     43 H17        -1.6100   -0.2130    7.8500 ha        1 3WQ      0.142000
     44 H18        -0.0120   -1.9240    8.6720 ha        1 3WQ      0.167000
     45 H19         2.3190   -3.6920    6.3510 h1        1 3WQ      0.117700
     46 H20         3.5780   -2.4430    6.0780 h1        1 3WQ      0.117700
     47 H21         3.9470   -3.8880    7.0680 h1        1 3WQ      0.117700
@<TRIPOS>BOND
     1    1    2 1   
     2    1   27 1   
     3    1   28 1   
     4    1   29 1   
     5    2    3 1   
     6    2   30 1   
     7    2   31 1   
     8    3    4 1   
     9    3   32 1   
    10    3   33 1   
    11    4    5 1   
    12    5    6 2   
    13    5    8 1   
    14    6    7 1   
    15    6   34 1   
    16    7   10 1   
    17    7   16 2   
    18    8    9 2   
    19    8   35 1   
    20    9   10 1   
    21    9   36 1   
    22   10   11 1   
    23   11   12 1   
    24   11   15 2   
    25   12   13 2   
    26   12   14 1   
    27   14   37 1   
    28   14   38 1   
    29   14   39 1   
    30   15   16 1   
    31   15   40 1   
    32   16   17 1   
    33   17   18 ar  
    34   17   22 ar  
    35   18   19 ar  
    36   18   41 1   
    37   19   20 ar  
    38   19   42 1   
    39   20   21 ar  
    40   20   43 1   
    41   21   22 ar  
    42   21   44 1   
    43   22   23 1   
    44   23   24 2   
    45   23   25 2   
    46   23   26 1   
    47   26   45 1   
    48   26   46 1   
    49   26   47 1   
@<TRIPOS>SUBSTRUCTURE
     1 3WQ         1 TEMP              0 ****  ****    0 ROOT
