@<TRIPOS>MOLECULE
3WR
   47    50     1     0     0
SMALL
bcc


@<TRIPOS>ATOM
      1 C1          0.2180   -0.0400   -0.1900 ca        1 3WR      0.730200
      2 C3          1.6540   -0.0590   -0.2430 ca        1 3WR     -0.497200
      3 C7          2.4440   -0.1340    0.9820 c         1 3WR      0.605900
      4 C8          2.2500    0.0080   -1.5650 ca        1 3WR      0.768200
      5 C9          0.1260    0.1040   -2.4930 ca        1 3WR      0.722900
      6 C10        -2.6670   -1.0050    0.5280 ca        1 3WR     -0.092000
      7 C11        -2.4620    0.9640    1.9310 ca        1 3WR     -0.092000
      8 C12         1.6750   -0.1730    2.2230 cc        1 3WR     -0.308200
      9 C16        -4.0480   -0.9520    0.6620 ca        1 3WR     -0.151000
     10 C20        -6.7820    0.5900    2.6060 c         1 3WR      0.772100
     11 C24        -8.6780    1.2320    4.8650 ca        1 3WR     -0.069000
     12 C27       -11.2610    1.9410    4.0260 ca        1 3WR     -0.146000
     13 C30        -9.1620    2.0610    7.1920 c3        1 3WR      0.691200
     14 N2         -0.4320   -0.1040    1.0540 na        1 3WR     -0.506500
     15 N4         -0.5530    0.0390   -1.3270 nb        1 3WR     -0.797000
     16 C5         -1.8540   -0.0480    1.1630 ca        1 3WR      0.106600
     17 C6          0.3200   -0.1510    2.2210 cd        1 3WR      0.111000
     18 O13         3.6910   -0.1640    1.0130 o         1 3WR     -0.609100
     19 N14         1.4560    0.0950   -2.6960 nb        1 3WR     -0.812000
     20 N15         3.6000   -0.0120   -1.7420 nh        1 3WR     -0.944500
     21 C17        -3.8430    1.0180    2.0680 ca        1 3WR     -0.151000
     22 C18        -4.6630    0.0610    1.4340 ca        1 3WR      0.068600
     23 N19        -6.0700    0.1130    1.4870 n         1 3WR     -0.461100
     24 N21        -8.1810    0.3640    2.6090 n         1 3WR     -0.458100
     25 O22        -6.2170    1.1750    3.5550 o         1 3WR     -0.604100
     26 C23        -9.0400    1.0030    3.5220 ca        1 3WR      0.028600
     27 C25       -10.3580    1.3750    3.1110 ca        1 3WR      0.100900
     28 C26        -9.5890    1.8050    5.7500 ca        1 3WR     -0.160300
     29 F28       -10.7560    1.1720    1.8310 f         1 3WR     -0.139900
     30 C29       -10.8750    2.1590    5.3420 ca        1 3WR     -0.079000
     31 F31        -8.2540    1.1580    7.6890 f         1 3WR     -0.233633
     32 F32        -8.5690    3.2840    7.3930 f         1 3WR     -0.233633
     33 F33       -10.1930    2.0360    8.1010 f         1 3WR     -0.233633
     34 H1         -0.5030    0.1750   -3.4080 h5        1 3WR      0.053100
     35 H2         -2.2200   -1.8010   -0.0890 ha        1 3WR      0.151000
     36 H3         -1.8490    1.7300    2.4320 ha        1 3WR      0.151000
     37 H4          2.2400   -0.2210    3.1640 ha        1 3WR      0.169000
     38 H5         -4.6560   -1.7130    0.1500 ha        1 3WR      0.156500
     39 H6         -7.6650    0.9660    5.2210 ha        1 3WR      0.192000
     40 H7        -12.2710    2.2120    3.6830 ha        1 3WR      0.161000
     41 H8         -0.2760   -0.1800    3.1540 h4        1 3WR      0.165000
     42 H9          4.2060   -0.0650   -0.9540 hn        1 3WR      0.461800
     43 H10         3.9870    0.0430   -2.6530 hn        1 3WR      0.461800
     44 H11        -4.2890    1.8180    2.6840 ha        1 3WR      0.156500
     45 H12        -6.5330   -0.5160    0.8680 hn        1 3WR      0.316500
     46 H13        -8.6160    0.1200    1.7430 hn        1 3WR      0.319500
     47 H14       -11.5810    2.6060    6.0610 ha        1 3WR      0.161000
@<TRIPOS>BOND
     1    1    2 ar  
     2    1   14 1   
     3    1   15 ar  
     4    2    3 1   
     5    2    4 ar  
     6    3    8 1   
     7    3   18 2   
     8    4   19 ar  
     9    4   20 1   
    10    5   15 ar  
    11    5   19 ar  
    12    5   34 1   
    13    6    9 ar  
    14    6   16 ar  
    15    6   35 1   
    16    7   16 ar  
    17    7   21 ar  
    18    7   36 1   
    19    8   17 2   
    20    8   37 1   
    21    9   22 ar  
    22    9   38 1   
    23   10   23 1   
    24   10   24 1   
    25   10   25 2   
    26   11   26 ar  
    27   11   28 ar  
    28   11   39 1   
    29   12   27 ar  
    30   12   30 ar  
    31   12   40 1   
    32   13   28 1   
    33   13   31 1   
    34   13   32 1   
    35   13   33 1   
    36   14   16 1   
    37   14   17 1   
    38   17   41 1   
    39   20   42 1   
    40   20   43 1   
    41   21   22 ar  
    42   21   44 1   
    43   22   23 1   
    44   23   45 1   
    45   24   26 1   
    46   24   46 1   
    47   26   27 ar  
    48   27   29 1   
    49   28   30 ar  
    50   30   47 1   
@<TRIPOS>SUBSTRUCTURE
     1 3WR         1 TEMP              0 ****  ****    0 ROOT
