@<TRIPOS>MOLECULE
3WR
   47    50     1     0     0
SMALL
bcc


@<TRIPOS>ATOM
      1 C1          0.2200   -0.0400   -0.1870 ca        1 3WR      0.730200
      2 C3          1.6560   -0.0620   -0.2390 ca        1 3WR     -0.497200
      3 C7          2.4440   -0.1440    0.9870 c         1 3WR      0.605900
      4 C8          2.2530    0.0100   -1.5600 ca        1 3WR      0.768200
      5 C9          0.1300    0.1140   -2.4890 ca        1 3WR      0.722900
      6 C10        -2.6680   -1.0020    0.5240 ca        1 3WR     -0.092000
      7 C11        -2.4610    0.9600    1.9350 ca        1 3WR     -0.092000
      8 C12         1.6740   -0.1860    2.2270 cc        1 3WR     -0.308200
      9 C16        -4.0490   -0.9460    0.6570 ca        1 3WR     -0.151000
     10 C20        -6.7820    0.5930    2.6040 c         1 3WR      0.772100
     11 C24        -8.6810    1.2310    4.8620 ca        1 3WR     -0.069000
     12 C27       -11.2610    1.9490    4.0210 ca        1 3WR     -0.146000
     13 C30        -9.1660    2.0530    7.1910 c3        1 3WR      0.691200
     14 N2         -0.4310   -0.1080    1.0560 na        1 3WR     -0.506500
     15 N4         -0.5500    0.0460   -1.3240 nb        1 3WR     -0.797000
     16 C5         -1.8540   -0.0490    1.1630 ca        1 3WR      0.106600
     17 C6          0.3200   -0.1610    2.2230 cd        1 3WR      0.111000
     18 O13         3.6920   -0.1760    1.0190 o         1 3WR     -0.609100
     19 N14         1.4600    0.1020   -2.6920 nb        1 3WR     -0.812000
     20 N15         3.6040   -0.0130   -1.7360 nv        1 3WR     -0.944500
     21 C17        -3.8420    1.0170    2.0710 ca        1 3WR     -0.151000
     22 C18        -4.6630    0.0650    1.4330 ca        1 3WR      0.068600
     23 N19        -6.0690    0.1190    1.4840 ns        1 3WR     -0.461100
     24 N21        -8.1820    0.3700    2.6040 ns        1 3WR     -0.458100
     25 O22        -6.2170    1.1730    3.5550 o         1 3WR     -0.604100
     26 C23        -9.0410    1.0080    3.5180 ca        1 3WR      0.028600
     27 C25       -10.3580    1.3840    3.1060 ca        1 3WR      0.100900
     28 C26        -9.5910    1.8030    5.7470 ca        1 3WR     -0.160300
     29 F28       -10.7540    1.1870    1.8240 f         1 3WR     -0.139900
     30 C29       -10.8770    2.1620    5.3390 ca        1 3WR     -0.079000
     31 F31        -8.2620    1.1460    7.6860 f         1 3WR     -0.233633
     32 F32        -8.5700    3.2730    7.3970 f         1 3WR     -0.233633
     33 F33       -10.1990    2.0280    8.0980 f         1 3WR     -0.233633
     34 H1         -0.4970    0.1900   -3.4050 h5        1 3WR      0.053100
     35 H2         -2.2220   -1.7960   -0.0960 ha        1 3WR      0.151000
     36 H3         -1.8460    1.7230    2.4400 ha        1 3WR      0.151000
     37 H4          2.2380   -0.2390    3.1680 ha        1 3WR      0.169000
     38 H5         -4.6580   -1.7050    0.1400 ha        1 3WR      0.156500
     39 H6         -7.6690    0.9620    5.2190 ha        1 3WR      0.192000
     40 H7        -12.2700    2.2230    3.6780 ha        1 3WR      0.161000
     41 H8         -0.2780   -0.1930    3.1550 h4        1 3WR      0.165000
     42 H9          4.2080   -0.0710   -0.9470 hn        1 3WR      0.461800
     43 H10         3.9910    0.0450   -2.6460 hn        1 3WR      0.461800
     44 H11        -4.2870    1.8150    2.6900 ha        1 3WR      0.156500
     45 H12        -6.5330   -0.5070    0.8620 hn        1 3WR      0.316500
     46 H13        -8.6160    0.1300    1.7360 hn        1 3WR      0.319500
     47 H14       -11.5830    2.6070    6.0590 ha        1 3WR      0.161000
@<TRIPOS>BOND
     1    1    2 ar  
     2    1   14 1   
     3    1   15 ar  
     4    2    3 1   
     5    2    4 ar  
     6    3    8 1   
     7    3   18 2   
     8    4   19 ar  
     9    4   20 1   
    10    5   15 ar  
    11    5   19 ar  
    12    5   34 1   
    13    6    9 ar  
    14    6   16 ar  
    15    6   35 1   
    16    7   16 ar  
    17    7   21 ar  
    18    7   36 1   
    19    8   17 2   
    20    8   37 1   
    21    9   22 ar  
    22    9   38 1   
    23   10   23 1   
    24   10   24 1   
    25   10   25 2   
    26   11   26 ar  
    27   11   28 ar  
    28   11   39 1   
    29   12   27 ar  
    30   12   30 ar  
    31   12   40 1   
    32   13   28 1   
    33   13   31 1   
    34   13   32 1   
    35   13   33 1   
    36   14   16 1   
    37   14   17 1   
    38   17   41 1   
    39   20   42 1   
    40   20   43 1   
    41   21   22 ar  
    42   21   44 1   
    43   22   23 1   
    44   23   45 1   
    45   24   26 1   
    46   24   46 1   
    47   26   27 ar  
    48   27   29 1   
    49   28   30 ar  
    50   30   47 1   
@<TRIPOS>SUBSTRUCTURE
     1 3WR         1 TEMP              0 ****  ****    0 ROOT
