@<TRIPOS>MOLECULE
3X0
   40    43     1     0     0
SMALL
bcc


@<TRIPOS>ATOM
      1 C1          0.0120    0.1400    0.0140 c3        1 3X0     -0.112000
      2 C2          1.5150   -0.1960    0.0440 c3        1 3X0      0.214800
      3 C3          3.1010    0.7790    1.6570 ca        1 3X0      0.159600
      4 C4          3.1480    1.3230    2.9610 ca        1 3X0     -0.160500
      5 C5          4.0880    2.2910    3.2970 ca        1 3X0     -0.096500
      6 C6          4.9990    2.7440    2.3400 ca        1 3X0     -0.010600
      7 C7          4.9710    2.2190    1.0460 ca        1 3X0     -0.096500
      8 N1         -0.2810    0.6430    2.5100 na        1 3X0     -0.263800
      9 N2         -1.3120    2.6290    2.3180 nc        1 3X0     -0.347000
     10 N3         -1.0550    2.2110    1.0960 nc        1 3X0     -0.340000
     11 C8          4.0400    1.2440    0.7070 ca        1 3X0     -0.160500
     12 C10         0.3620   -0.5110    2.9940 ca        1 3X0     -0.013200
     13 Cl          6.1430    3.9330    2.7500 cl        1 3X0     -0.095400
     14 N           2.2070   -0.2650    1.3120 nh        1 3X0     -0.563400
     15 C9          1.5760   -0.9570    2.3850 ca        1 3X0      0.121600
     16 C14         2.1760   -2.1340    2.8710 ca        1 3X0     -0.099000
     17 C13         1.6110   -2.8410    3.9280 ca        1 3X0     -0.128000
     18 C12         0.4340   -2.3950    4.5240 ca        1 3X0     -0.116000
     19 C11        -0.1920   -1.2420    4.0620 ca        1 3X0     -0.134000
     20 C16        -0.4190    1.0020    1.1490 cd        1 3X0      0.375800
     21 C          -0.8330   -1.1180   -0.0430 c3        1 3X0     -0.098100
     22 C15        -0.8610    1.7130    3.2300 cd        1 3X0      0.377800
     23 C17        -0.9520    1.7990    4.7040 c3        1 3X0     -0.122400
     24 H1         -0.1680    0.7220   -0.9390 hc        1 3X0      0.092700
     25 H2          1.6440   -1.2090   -0.4420 h1        1 3X0      0.061200
     26 H3          2.0370    0.5660   -0.6030 h1        1 3X0      0.061200
     27 H4          2.4380    0.9860    3.7310 ha        1 3X0      0.140000
     28 H5          4.1050    2.7020    4.3180 ha        1 3X0      0.147000
     29 H6          5.6900    2.5700    0.2890 ha        1 3X0      0.147000
     30 H7          4.0590    0.8310   -0.3140 ha        1 3X0      0.140000
     31 H8          3.1120   -2.4960    2.4140 ha        1 3X0      0.155000
     32 H9          2.1000   -3.7580    4.2920 ha        1 3X0      0.143000
     33 H10        -0.0090   -2.9550    5.3620 ha        1 3X0      0.143000
     34 H11        -1.1270   -0.9010    4.5360 ha        1 3X0      0.149000
     35 H12        -1.9180   -0.8550   -0.0670 hc        1 3X0      0.046700
     36 H13        -0.5880   -1.6980   -0.9660 hc        1 3X0      0.046700
     37 H14        -0.6410   -1.7670    0.8450 hc        1 3X0      0.046700
     38 H15        -0.0900    1.2750    5.1880 hc        1 3X0      0.062700
     39 H16        -1.9050    1.3250    5.0500 hc        1 3X0      0.062700
     40 H17        -0.9510    2.8710    5.0220 hc        1 3X0      0.062700
@<TRIPOS>BOND
     1    1    2 1   
     2    1   20 1   
     3    1   21 1   
     4    1   24 1   
     5    2   14 1   
     6    2   25 1   
     7    2   26 1   
     8    3    4 ar  
     9    3   11 ar  
    10    3   14 1   
    11    4    5 ar  
    12    4   27 1   
    13    5    6 ar  
    14    5   28 1   
    15    6    7 ar  
    16    6   13 1   
    17    7   11 ar  
    18    7   29 1   
    19    8   12 1   
    20    8   20 1   
    21    8   22 1   
    22    9   10 1   
    23    9   22 2   
    24   10   20 2   
    25   11   30 1   
    26   12   15 ar  
    27   12   19 ar  
    28   14   15 1   
    29   15   16 ar  
    30   16   17 ar  
    31   16   31 1   
    32   17   18 ar  
    33   17   32 1   
    34   18   19 ar  
    35   18   33 1   
    36   19   34 1   
    37   21   35 1   
    38   21   36 1   
    39   21   37 1   
    40   22   23 1   
    41   23   38 1   
    42   23   39 1   
    43   23   40 1   
@<TRIPOS>SUBSTRUCTURE
     1 3X0         1 TEMP              0 ****  ****    0 ROOT
