@<TRIPOS>MOLECULE
3X0
   40    43     1     0     0
SMALL
bcc


@<TRIPOS>ATOM
      1 C1          0.0220    0.1410    0.0080 c3        1 3X0     -0.112000
      2 C2          1.5250   -0.1940    0.0450 c3        1 3X0      0.214800
      3 C3          3.1030    0.7810    1.6660 ca        1 3X0      0.159600
      4 C4          3.1450    1.3230    2.9700 ca        1 3X0     -0.160500
      5 C5          4.0830    2.2910    3.3110 ca        1 3X0     -0.096500
      6 C6          4.9980    2.7450    2.3580 ca        1 3X0     -0.010600
      7 C7          4.9760    2.2210    1.0640 ca        1 3X0     -0.096500
      8 N1         -0.2820    0.6420    2.5030 na        1 3X0     -0.263800
      9 N2         -1.3130    2.6270    2.3080 nc        1 3X0     -0.347000
     10 N3         -1.0500    2.2100    1.0870 nc        1 3X0     -0.340000
     11 C8          4.0470    1.2460    0.7200 ca        1 3X0     -0.160500
     12 C10         0.3590   -0.5110    2.9890 ca        1 3X0     -0.013200
     13 CL          6.1390    3.9340    2.7750 cl        1 3X0     -0.095400
     14 N           2.2110   -0.2630    1.3160 nh        1 3X0     -0.563400
     15 C9          1.5760   -0.9570    2.3850 ca        1 3X0      0.121600
     16 C14         2.1750   -2.1340    2.8730 ca        1 3X0     -0.099000
     17 C13         1.6040   -2.8420    3.9270 ca        1 3X0     -0.128000
     18 C12         0.4250   -2.3970    4.5180 ca        1 3X0     -0.116000
     19 C11        -0.2000   -1.2440    4.0550 ca        1 3X0     -0.134000
     20 C16        -0.4150    1.0020    1.1420 cd        1 3X0      0.375800
     21 C          -0.8220   -1.1180   -0.0530 c3        1 3X0     -0.098100
     22 C15        -0.8660    1.7110    3.2210 cd        1 3X0      0.377800
     23 C17        -0.9640    1.7960    4.6950 c3        1 3X0     -0.122400
     24 H1         -0.1540    0.7240   -0.9460 hc        1 3X0      0.092700
     25 H2          2.0490    0.5690   -0.5990 h1        1 3X0      0.061200
     26 H3          1.6570   -1.2060   -0.4410 h1        1 3X0      0.061200
     27 H4          2.4310    0.9850    3.7370 ha        1 3X0      0.140000
     28 H5          4.0950    2.7010    4.3330 ha        1 3X0      0.147000
     29 H6          5.6980    2.5730    0.3110 ha        1 3X0      0.147000
     30 H7          4.0700    0.8340   -0.3010 ha        1 3X0      0.140000
     31 H8          3.1130   -2.4950    2.4200 ha        1 3X0      0.155000
     32 H9          2.0920   -3.7590    4.2920 ha        1 3X0      0.143000
     33 H10        -0.0220   -2.9580    5.3530 ha        1 3X0      0.143000
     34 H11        -1.1370   -0.9030    4.5240 ha        1 3X0      0.149000
     35 H12        -0.6340   -1.7670    0.8350 hc        1 3X0      0.046700
     36 H13        -0.5730   -1.6960   -0.9760 hc        1 3X0      0.046700
     37 H14        -1.9070   -0.8550   -0.0820 hc        1 3X0      0.046700
     38 H15        -1.9180    1.3210    5.0370 hc        1 3X0      0.062700
     39 H16        -0.1040    1.2730    5.1830 hc        1 3X0      0.062700
     40 H17        -0.9650    2.8690    5.0140 hc        1 3X0      0.062700
@<TRIPOS>BOND
     1    1    2 1   
     2    1   20 1   
     3    1   21 1   
     4    1   24 1   
     5    2   14 1   
     6    2   25 1   
     7    2   26 1   
     8    3    4 ar  
     9    3   11 ar  
    10    3   14 1   
    11    4    5 ar  
    12    4   27 1   
    13    5    6 ar  
    14    5   28 1   
    15    6    7 ar  
    16    6   13 1   
    17    7   11 ar  
    18    7   29 1   
    19    8   12 1   
    20    8   20 1   
    21    8   22 1   
    22    9   10 1   
    23    9   22 2   
    24   10   20 2   
    25   11   30 1   
    26   12   15 ar  
    27   12   19 ar  
    28   14   15 1   
    29   15   16 ar  
    30   16   17 ar  
    31   16   31 1   
    32   17   18 ar  
    33   17   32 1   
    34   18   19 ar  
    35   18   33 1   
    36   19   34 1   
    37   21   35 1   
    38   21   36 1   
    39   21   37 1   
    40   22   23 1   
    41   23   38 1   
    42   23   39 1   
    43   23   40 1   
@<TRIPOS>SUBSTRUCTURE
     1 3X0         1 TEMP              0 ****  ****    0 ROOT
