@<TRIPOS>MOLECULE
3X2
   35    38     1     0     0
SMALL
bcc


@<TRIPOS>ATOM
      1 C1         -0.7270   -0.1760    0.0440 ca        1 3X2     -0.104000
      2 C2          0.6560   -0.2780   -0.1000 ca        1 3X2     -0.150000
      3 C3          1.4830   -0.2060    1.0210 ca        1 3X2     -0.147000
      4 C4          0.9250   -0.0280    2.2860 ca        1 3X2     -0.124000
      5 C5         -0.4590    0.0940    2.4290 ca        1 3X2     -0.099900
      6 C6         -1.3030    0.0160    1.3050 ca        1 3X2     -0.106600
      7 C7         -2.8070    0.1000    1.3940 c         1 3X2      0.749200
      8 O8         -3.3510    0.8430    2.3060 os        1 3X2     -0.446900
      9 O9         -3.5120   -0.5150    0.5610 o         1 3X2     -0.748500
     10 C10        -1.0880    0.3310    3.7340 ce        1 3X2      0.404800
     11 N11        -1.0050   -0.5070    4.7300 n2        1 3X2     -0.570100
     12 N12        -1.7680   -0.2980    5.8320 nu        1 3X2     -0.094000
     13 C13        -3.1800   -0.1540    5.6220 ce        1 3X2      0.339600
     14 N14        -4.0850   -0.3820    6.6080 ne        1 3X2     -0.657000
     15 C15        -5.3520   -0.1370    6.0970 cf        1 3X2      0.356200
     16 C16        -5.3940    0.2440    4.7470 cf        1 3X2     -0.637600
     17 S17        -3.8820    0.3300    4.1080 sx        1 3X2      0.217200
     18 C18        -6.5570   -0.3040    6.9020 ca        1 3X2     -0.030900
     19 C19        -6.6780    0.1580    8.2240 ca        1 3X2      0.031400
     20 C20        -7.8670   -0.0340    8.9400 ca        1 3X2     -0.140000
     21 C21        -8.9470   -0.6770    8.3440 ca        1 3X2     -0.148000
     22 C22        -8.8440   -1.1310    7.0280 ca        1 3X2     -0.140000
     23 C23        -7.6630   -0.9480    6.3190 ca        1 3X2     -0.124000
     24 Cl1        -5.4140    0.9840    9.0060 cl        1 3X2     -0.087400
     25 H1         -1.3930   -0.2590   -0.8300 ha        1 3X2      0.149000
     26 H2          1.0940   -0.4230   -1.0970 ha        1 3X2      0.114000
     27 H3          2.5720   -0.2950    0.9090 ha        1 3X2      0.113000
     28 H4          1.5690    0.0160    3.1750 ha        1 3X2      0.130000
     29 H6         -1.7130    1.2600    3.7290 h4        1 3X2      0.036800
     30 H7         -1.5610   -1.0380    6.4910 hn        1 3X2      0.247700
     31 H8         -6.3190    0.4590    4.2160 h4        1 3X2      0.155000
     32 H9         -7.9480    0.3280    9.9750 ha        1 3X2      0.130000
     33 H10        -9.8770   -0.8260    8.9090 ha        1 3X2      0.118000
     34 H11        -9.6960   -1.6380    6.5530 ha        1 3X2      0.120000
     35 H12        -7.5760   -1.3110    5.2830 ha        1 3X2      0.144000
@<TRIPOS>BOND
     1    1    2 ar  
     2    1    6 ar  
     3    1   25 1   
     4    2    3 ar  
     5    2   26 1   
     6    3    4 ar  
     7    3   27 1   
     8    4    5 ar  
     9    4   28 1   
    10    5    6 ar  
    11    5   10 1   
    12    6    7 1   
    13    7    8 1   
    14    7    9 2   
    15    8   17 1   
    16   10   11 2   
    17   10   29 1   
    18   11   12 1   
    19   12   13 2   
    20   12   30 1   
    21   13   14 1   
    22   13   17 1   
    23   14   15 2   
    24   15   16 1   
    25   15   18 1   
    26   16   17 2   
    27   16   31 1   
    28   18   19 ar  
    29   18   23 ar  
    30   19   20 ar  
    31   19   24 1   
    32   20   21 ar  
    33   20   32 1   
    34   21   22 ar  
    35   21   33 1   
    36   22   23 ar  
    37   22   34 1   
    38   23   35 1   
@<TRIPOS>SUBSTRUCTURE
     1 3X2         1 TEMP              0 ****  ****    0 ROOT
