@<TRIPOS>MOLECULE
3X2
   36    39     1     0     0
SMALL
bcc


@<TRIPOS>ATOM
      1 C1         -0.7650    0.4780    0.2140 ca        1 3X2     -0.082000
      2 C2          0.5540    0.9360    0.1660 ca        1 3X2     -0.122000
      3 C3          1.3130    1.0180    1.3320 ca        1 3X2     -0.117000
      4 C4          0.7620    0.6430    2.5600 ca        1 3X2     -0.113000
      5 C5         -0.5560    0.1970    2.6070 ca        1 3X2     -0.141900
      6 C6         -1.3310    0.1070    1.4340 ca        1 3X2     -0.100600
      7 C7         -2.7430   -0.3790    1.4970 c         1 3X2      0.761200
      8 O8         -3.3600   -0.8540    0.5320 o         1 3X2     -0.670500
      9 O9         -3.3280   -0.2790    2.6760 os        1 3X2     -0.509900
     10 C10        -1.2360   -0.1720    3.8620 ce        1 3X2      0.586800
     11 N11        -1.1780   -1.3970    4.3070 n2        1 3X2     -0.570400
     12 N12        -2.0360   -1.8350    5.3300 n4        1 3X2     -0.320100
     13 C13        -3.4490   -1.5160    5.1730 c2        1 3X2      0.131500
     14 N14        -4.1840   -1.1090    6.2900 ne        1 3X2     -0.531300
     15 C15        -5.4210   -0.7920    5.8650 ce        1 3X2      0.127400
     16 C16        -5.6230   -0.9420    4.4430 c2        1 3X2     -0.310300
     17 S17        -4.2980   -1.4330    3.7190 s4        1 3X2      0.260500
     18 C18        -6.4930   -0.3400    6.7500 ca        1 3X2      0.000200
     19 C19        -6.3090    0.6480    7.7290 ca        1 3X2      0.041400
     20 C20        -7.3770    1.0460    8.5440 ca        1 3X2     -0.133000
     21 C21        -8.6300    0.4620    8.3840 ca        1 3X2     -0.122000
     22 C22        -8.8250   -0.5170    7.4090 ca        1 3X2     -0.134000
     23 C23        -7.7650   -0.9130    6.5990 ca        1 3X2     -0.108000
     24 CL1        -4.8070    1.4150    7.9550 cl        1 3X2     -0.092400
     25 H1         -1.3710    0.3970   -0.7030 ha        1 3X2      0.165000
     26 H2          0.9950    1.2290   -0.7980 ha        1 3X2      0.141000
     27 H3          2.3530    1.3770    1.2900 ha        1 3X2      0.139000
     28 H4          1.3650    0.7010    3.4770 ha        1 3X2      0.138000
     29 H6         -1.8740    0.6400    4.2910 h4        1 3X2      0.053800
     30 H7         -1.9440   -2.8650    5.3040 hn        1 3X2      0.445800
     31 H8         -6.5700   -0.6630    3.9830 h4        1 3X2      0.184000
     32 H9         -7.2240    1.8210    9.3100 ha        1 3X2      0.144000
     33 H10        -9.4660    0.7750    9.0270 ha        1 3X2      0.135000
     34 H11        -9.8160   -0.9760    7.2800 ha        1 3X2      0.134000
     35 H12        -7.9150   -1.6850    5.8280 ha        1 3X2      0.143000
     36 H122       -1.7100   -1.5060    6.2550 hn        1 3X2      0.445800
@<TRIPOS>BOND
     1    1    2 ar  
     2    1    6 ar  
     3    1   25 1   
     4    2    3 ar  
     5    2   26 1   
     6    3    4 ar  
     7    3   27 1   
     8    4    5 ar  
     9    4   28 1   
    10    5    6 ar  
    11    5   10 1   
    12    6    7 1   
    13    7    8 2   
    14    7    9 1   
    15    9   17 1   
    16   10   11 2   
    17   10   29 1   
    18   11   12 1   
    19   12   13 1   
    20   12   30 1   
    21   12   36 1   
    22   13   14 2   
    23   13   17 1   
    24   14   15 1   
    25   15   16 2   
    26   15   18 1   
    27   16   17 1   
    28   16   31 1   
    29   18   19 ar  
    30   18   23 ar  
    31   19   20 ar  
    32   19   24 1   
    33   20   21 ar  
    34   20   32 1   
    35   21   22 ar  
    36   21   33 1   
    37   22   23 ar  
    38   22   34 1   
    39   23   35 1   
@<TRIPOS>SUBSTRUCTURE
     1 3X2         1 TEMP              0 ****  ****    0 ROOT
