@<TRIPOS>MOLECULE
3X2
   35    38     1     0     0
SMALL
bcc


@<TRIPOS>ATOM
      1 C1         -0.7090   -0.1730    0.0560 ca        1 3X2     -0.104000
      2 C2          0.6730   -0.2840   -0.0840 ca        1 3X2     -0.150000
      3 C3          1.4960   -0.2220    1.0400 ca        1 3X2     -0.147000
      4 C4          0.9340   -0.0470    2.3040 ca        1 3X2     -0.124000
      5 C5         -0.4500    0.0820    2.4420 ca        1 3X2     -0.099900
      6 C6         -1.2890    0.0150    1.3150 ca        1 3X2     -0.106600
      7 C7         -2.7930    0.1080    1.3980 c         1 3X2      0.749200
      8 O8         -3.3360    0.8510    2.3120 os        1 3X2     -0.446900
      9 O9         -3.4990   -0.4990    0.5600 o         1 3X2     -0.748500
     10 C10        -1.0820    0.3170    3.7460 ce        1 3X2      0.404800
     11 N11        -1.0080   -0.5270    4.7390 n2        1 3X2     -0.570100
     12 N12        -1.7740   -0.3190    5.8380 nh        1 3X2     -0.094000
     13 C13        -3.1850   -0.1640    5.6240 ce        1 3X2      0.339600
     14 N14        -4.0950   -0.3910    6.6050 ne        1 3X2     -0.657000
     15 C15        -5.3590   -0.1340    6.0900 cf        1 3X2      0.356200
     16 C16        -5.3920    0.2540    4.7420 cf        1 3X2     -0.637600
     17 S17        -3.8780    0.3320    4.1090 sx        1 3X2      0.217200
     18 C18        -6.5670   -0.2970    6.8910 ca        1 3X2     -0.030900
     19 C19        -6.6910    0.1600    8.2140 ca        1 3X2      0.031400
     20 C20        -7.8840   -0.0270    8.9240 ca        1 3X2     -0.140000
     21 C21        -8.9660   -0.6600    8.3210 ca        1 3X2     -0.148000
     22 C22        -8.8610   -1.1090    7.0040 ca        1 3X2     -0.140000
     23 C23        -7.6760   -0.9300    6.3000 ca        1 3X2     -0.124000
     24 CL1        -5.4240    0.9740    9.0050 cl        1 3X2     -0.087400
     25 H1         -1.3730   -0.2470   -0.8210 ha        1 3X2      0.149000
     26 H2          1.1140   -0.4260   -1.0800 ha        1 3X2      0.114000
     27 H3          2.5850   -0.3170    0.9330 ha        1 3X2      0.113000
     28 H4          1.5760   -0.0120    3.1970 ha        1 3X2      0.130000
     29 H6         -1.7010    1.2490    3.7440 h4        1 3X2      0.036800
     30 H7         -1.5750   -1.0640    6.4940 hn        1 3X2      0.247700
     31 H8         -6.3140    0.4770    4.2080 h4        1 3X2      0.155000
     32 H9         -7.9650    0.3310    9.9610 ha        1 3X2      0.130000
     33 H10        -9.8990   -0.8050    8.8820 ha        1 3X2      0.118000
     34 H11        -9.7140   -1.6080    6.5240 ha        1 3X2      0.120000
     35 H12        -7.5870   -1.2890    5.2620 ha        1 3X2      0.144000
@<TRIPOS>BOND
     1    1    2 ar  
     2    1    6 ar  
     3    1   25 1   
     4    2    3 ar  
     5    2   26 1   
     6    3    4 ar  
     7    3   27 1   
     8    4    5 ar  
     9    4   28 1   
    10    5    6 ar  
    11    5   10 1   
    12    6    7 1   
    13    7    8 1   
    14    7    9 2   
    15    8   17 1   
    16   10   11 2   
    17   10   29 1   
    18   11   12 1   
    19   12   13 2   
    20   12   30 1   
    21   13   14 1   
    22   13   17 1   
    23   14   15 2   
    24   15   16 1   
    25   15   18 1   
    26   16   17 2   
    27   16   31 1   
    28   18   19 ar  
    29   18   23 ar  
    30   19   20 ar  
    31   19   24 1   
    32   20   21 ar  
    33   20   32 1   
    34   21   22 ar  
    35   21   33 1   
    36   22   23 ar  
    37   22   34 1   
    38   23   35 1   
@<TRIPOS>SUBSTRUCTURE
     1 3X2         1 TEMP              0 ****  ****    0 ROOT
