@<TRIPOS>MOLECULE
3X3
   38    41     1     0     0
SMALL
bcc


@<TRIPOS>ATOM
      1 CAB        -0.3030   -0.4100   -0.1210 ca        1 3X3     -0.118500
      2 CAA         1.0630   -0.1700   -0.2540 ca        1 3X3     -0.121500
      3 CAG         1.8260    0.2320    0.8410 ca        1 3X3     -0.126000
      4 CAH         1.2190    0.3940    2.0850 ca        1 3X3     -0.121500
      5 CAI        -0.1430    0.1550    2.2480 ca        1 3X3     -0.118500
      6 CAC        -0.9130   -0.2500    1.1390 ca        1 3X3      0.025800
      7 NAD        -2.3210   -0.5030    1.2900 na        1 3X3      0.266800
      8 NAJ        -3.0720    0.0080    2.2910 nc        1 3X3     -0.473800
      9 NAE        -3.0610   -1.2770    0.4360 nc        1 3X3     -0.144800
     10 NAF        -4.2550   -1.2910    0.8390 nd        1 3X3     -0.348000
     11 CAK        -4.3190   -0.4810    2.0280 cd        1 3X3      0.557500
     12 CAN        -5.5270   -0.2520    2.8070 ca        1 3X3     -0.143500
     13 CAO        -5.5030   -0.4410    4.1930 ca        1 3X3     -0.069000
     14 CAP        -6.6550   -0.2520    4.9530 ca        1 3X3     -0.166000
     15 CAX        -7.8440    0.1340    4.3360 ca        1 3X3     -0.081000
     16 CAW        -7.8880    0.3450    2.9600 ca        1 3X3     -0.205000
     17 CAV        -6.7290    0.1600    2.1920 ca        1 3X3      0.160100
     18 OAU        -6.6670    0.4300    0.8410 os        1 3X3     -0.310900
     19 CAT        -7.9230    0.3530    0.1420 c3        1 3X3      0.105100
     20 CAS        -7.6030    0.2150   -1.2910 cc        1 3X3      0.218000
     21 OAR        -8.3440    1.0380   -2.1540 os        1 3X3     -0.366800
     22 CAQ        -7.9070    0.7430   -3.4440 cc        1 3X3      0.244600
     23 CAM        -6.7230   -0.5630   -2.0170 cd        1 3X3     -0.211300
     24 CAL        -6.9200   -0.2210   -3.4090 cd        1 3X3     -0.268300
     25 HAB        -0.8840   -0.7220   -1.0030 ha        1 3X3      0.158500
     26 HAA         1.5380   -0.2980   -1.2390 ha        1 3X3      0.140500
     27 HAG         2.9030    0.4210    0.7230 ha        1 3X3      0.138000
     28 HAH         1.8170    0.7130    2.9520 ha        1 3X3      0.140500
     29 HAI        -0.5990    0.2900    3.2410 ha        1 3X3      0.158500
     30 HAO        -4.5640   -0.7470    4.6820 ha        1 3X3      0.146000
     31 HAP        -6.6240   -0.4100    6.0410 ha        1 3X3      0.139000
     32 HAX        -8.7540    0.2800    4.9370 ha        1 3X3      0.136000
     33 HAW        -8.8260    0.6650    2.4850 ha        1 3X3      0.142000
     34 HAT1       -8.5010    1.2980    0.3350 h1        1 3X3      0.061700
     35 HAT2       -8.5080   -0.5380    0.4960 h1        1 3X3      0.061700
     36 HAM        -6.0090   -1.2840   -1.6250 ha        1 3X3      0.180000
     37 HAQ        -8.4090    1.3070   -4.2250 h4        1 3X3      0.052100
     38 HAL        -6.3830   -0.6530   -4.2480 ha        1 3X3      0.162000
@<TRIPOS>BOND
     1    1    2 ar  
     2    1    6 ar  
     3    1   25 1   
     4    2    3 ar  
     5    2   26 1   
     6    3    4 ar  
     7    3   27 1   
     8    4    5 ar  
     9    4   28 1   
    10    5    6 ar  
    11    5   29 1   
    12    6    7 1   
    13    7    8 1   
    14    7    9 1   
    15    8   11 2   
    16    9   10 2   
    17   10   11 1   
    18   11   12 1   
    19   12   13 ar  
    20   12   17 ar  
    21   13   14 ar  
    22   13   30 1   
    23   14   15 ar  
    24   14   31 1   
    25   15   16 ar  
    26   15   32 1   
    27   16   17 ar  
    28   16   33 1   
    29   17   18 1   
    30   18   19 1   
    31   19   20 1   
    32   19   34 1   
    33   19   35 1   
    34   20   21 1   
    35   20   23 2   
    36   21   22 1   
    37   22   24 2   
    38   22   37 1   
    39   23   24 1   
    40   23   36 1   
    41   24   38 1   
@<TRIPOS>SUBSTRUCTURE
     1 3X3         1 TEMP              0 ****  ****    0 ROOT
