@<TRIPOS>MOLECULE
3X3
   38    41     1     0     0
SMALL
bcc


@<TRIPOS>ATOM
      1 CAB        -0.2990   -0.3910   -0.1120 ca        1 3X3     -0.118500
      2 CAA         1.0660   -0.1450   -0.2440 ca        1 3X3     -0.121500
      3 CAG         1.8250    0.2650    0.8500 ca        1 3X3     -0.126000
      4 CAH         1.2150    0.4290    2.0930 ca        1 3X3     -0.121500
      5 CAI        -0.1460    0.1840    2.2550 ca        1 3X3     -0.118500
      6 CAC        -0.9120   -0.2290    1.1470 ca        1 3X3      0.025800
      7 NAD        -2.3190   -0.4890    1.2960 na        1 3X3      0.266800
      8 NAJ        -3.0740    0.0240    2.2930 nc        1 3X3     -0.473800
      9 NAE        -3.0530   -1.2710    0.4450 nc        1 3X3     -0.144800
     10 NAF        -4.2480   -1.2900    0.8470 nd        1 3X3     -0.348000
     11 CAK        -4.3190   -0.4730    2.0310 cd        1 3X3      0.557500
     12 CAN        -5.5290   -0.2460    2.8050 ca        1 3X3     -0.143500
     13 CAO        -5.5060   -0.4260    4.1930 ca        1 3X3     -0.069000
     14 CAP        -6.6600   -0.2390    4.9510 ca        1 3X3     -0.166000
     15 CAX        -7.8500    0.1360    4.3290 ca        1 3X3     -0.081000
     16 CAW        -7.8940    0.3390    2.9520 ca        1 3X3     -0.205000
     17 CAV        -6.7330    0.1560    2.1860 ca        1 3X3      0.160100
     18 OAU        -6.6700    0.4180    0.8340 os        1 3X3     -0.310900
     19 CAT        -7.9240    0.3290    0.1340 c3        1 3X3      0.105100
     20 CAS        -7.6010    0.1830   -1.2980 cc        1 3X3      0.218000
     21 OAR        -8.3460    0.9970   -2.1670 os        1 3X3     -0.366800
     22 CAQ        -7.9040    0.6960   -3.4550 cc        1 3X3      0.244600
     23 CAM        -6.7150   -0.5940   -2.0180 cd        1 3X3     -0.211300
     24 CAL        -6.9120   -0.2620   -3.4120 cd        1 3X3     -0.268300
     25 HAB        -0.8770   -0.7110   -0.9930 ha        1 3X3      0.158500
     26 HAA         1.5420   -0.2760   -1.2280 ha        1 3X3      0.140500
     27 HAG         2.9010    0.4590    0.7340 ha        1 3X3      0.138000
     28 HAH         1.8100    0.7550    2.9600 ha        1 3X3      0.140500
     29 HAI        -0.6040    0.3210    3.2470 ha        1 3X3      0.158500
     30 HAO        -4.5670   -0.7240    4.6850 ha        1 3X3      0.146000
     31 HAP        -6.6300   -0.3900    6.0390 ha        1 3X3      0.139000
     32 HAX        -8.7620    0.2800    4.9280 ha        1 3X3      0.136000
     33 HAW        -8.8330    0.6500    2.4730 ha        1 3X3      0.142000
     34 HAT1       -8.5080    1.2710    0.3190 h1        1 3X3      0.061700
     35 HAT2       -8.5050   -0.5640    0.4920 h1        1 3X3      0.061700
     36 HAM        -5.9970   -1.3080   -1.6200 ha        1 3X3      0.180000
     37 HAQ        -8.4080    1.2520   -4.2400 h4        1 3X3      0.052100
     38 HAL        -6.3700   -0.6950   -4.2470 ha        1 3X3      0.162000
@<TRIPOS>BOND
     1    1    2 ar  
     2    1    6 ar  
     3    1   25 1   
     4    2    3 ar  
     5    2   26 1   
     6    3    4 ar  
     7    3   27 1   
     8    4    5 ar  
     9    4   28 1   
    10    5    6 ar  
    11    5   29 1   
    12    6    7 1   
    13    7    8 1   
    14    7    9 1   
    15    8   11 2   
    16    9   10 2   
    17   10   11 1   
    18   11   12 1   
    19   12   13 ar  
    20   12   17 ar  
    21   13   14 ar  
    22   13   30 1   
    23   14   15 ar  
    24   14   31 1   
    25   15   16 ar  
    26   15   32 1   
    27   16   17 ar  
    28   16   33 1   
    29   17   18 1   
    30   18   19 1   
    31   19   20 1   
    32   19   34 1   
    33   19   35 1   
    34   20   21 1   
    35   20   23 2   
    36   21   22 1   
    37   22   24 2   
    38   22   37 1   
    39   23   24 1   
    40   23   36 1   
    41   24   38 1   
@<TRIPOS>SUBSTRUCTURE
     1 3X3         1 TEMP              0 ****  ****    0 ROOT
