@<TRIPOS>MOLECULE
3X3
   38    32     1     0     0
SMALL
bcc


@<TRIPOS>ATOM
      1 CAB         2.5600   -3.3390   -2.3490 c1        1 3X3     -0.119000
      2 CAA         3.7910   -3.9410   -2.5580 c1        1 3X3     -0.128500
      3 CAG         4.9490   -3.1810   -2.5200 c1        1 3X3     -0.128500
      4 CAH         4.8770   -1.8190   -2.2740 c1        1 3X3     -0.128500
      5 CAI         3.6460   -1.2170   -2.0650 c1        1 3X3     -0.128500
      6 CAC         2.4870   -1.9770   -2.1020 c1        1 3X3      0.073000
      7 NAD         1.2260   -1.3590   -1.8980 n3        1 3X3     -0.121000
      8 NAJ         0.3690   -1.6240   -0.8970 n2        1 3X3     -0.043000
      9 NAE         0.7030   -0.3710   -2.6410 n2        1 3X3      0.025000
     10 NAF        -0.4780   -0.0240   -2.0990 n2        1 3X3     -0.082000
     11 CAK        -0.6840   -0.7990   -1.0220 c1        1 3X3     -0.076000
     12 CAN        -1.9180   -0.7970   -0.1490 c1        1 3X3     -0.039000
     13 CAO        -2.8950   -1.7640   -0.3300 c2        1 3X3     -0.071000
     14 CAP        -3.9970   -1.8010    0.5090 c1        1 3X3     -0.167000
     15 CAX        -4.1240   -0.8700    1.5290 c1        1 3X3     -0.128500
     16 CAW        -3.1470    0.0970    1.7090 c1        1 3X3     -0.128500
     17 CAV        -2.0450    0.1330    0.8700 c1        1 3X3      0.112000
     18 OAU        -1.0470    1.1060    1.0630 os        1 3X3     -0.192000
     19 CAT        -1.4800    2.4240    0.8160 c3        1 3X3      0.045000
     20 CAS        -1.0780    3.3130    1.9740 c2        1 3X3     -0.097000
     21 OAR        -1.6650    3.3340    3.2130 os        1 3X3     -0.112000
     22 CAQ        -1.0640    4.3210    3.9500 c1        1 3X3     -0.085000
     23 CAM        -0.1080    4.2940    1.9450 c1        1 3X3     -0.153000
     24 CAL        -0.0990    4.9150    3.1620 c1        1 3X3     -0.202000
     25 HAB         1.7440   -3.8740   -2.3750 ha        1 3X3      0.158000
     26 HAA         3.8420   -4.8980   -2.7310 ha        1 3X3      0.144667
     27 HAG         5.8160   -3.6050   -2.6680 ha        1 3X3      0.144667
     28 HAH         5.6920   -1.2840   -2.2470 ha        1 3X3      0.144667
     29 HAI         3.5950   -0.2570   -1.8910 ha        1 3X3      0.144667
     30 HAO        -2.8060   -2.4190   -1.0480 ha        1 3X3      0.145000
     31 HAP        -4.6850   -2.4810    0.3820 ha        1 3X3      0.138000
     32 HAX        -4.9000   -0.8960    2.1190 ha        1 3X3      0.144667
     33 HAW        -3.2360    0.7520    2.4270 ha        1 3X3      0.144667
     34 HAT1       -1.0650    2.7550   -0.0080 h1        1 3X3      0.122000
     35 HAT2       -2.4540    2.4350    0.7180 h1        1 3X3      0.122000
     36 HAM         0.4710    4.5060    1.1880 DU        1 3X3      0.174667
     37 HAQ        -1.2800    4.5620    4.8700 DU        1 3X3      0.174667
     38 HAL         0.4870    5.6490    3.4270 DU        1 3X3      0.174667
@<TRIPOS>BOND
     1    1    6 1   
     2    1   25 1   
     3    2    3 1   
     4    2   26 1   
     5    3   27 1   
     6    4    5 1   
     7    4   28 1   
     8    5   29 1   
     9    6    7 1   
    10    7    8 1   
    11    7    9 1   
    12    8   11 1   
    13    9   10 1   
    14   10   11 1   
    15   12   13 1   
    16   12   17 1   
    17   13   14 1   
    18   13   30 1   
    19   14   31 1   
    20   15   16 1   
    21   15   32 1   
    22   16   33 1   
    23   17   18 1   
    24   18   19 1   
    25   19   20 1   
    26   19   34 1   
    27   19   35 1   
    28   20   21 1   
    29   20   23 1   
    30   21   22 1   
    31   22   24 1   
    32   23   24 1   
@<TRIPOS>SUBSTRUCTURE
     1 3X3         1 TEMP              0 ****  ****    0 ROOT
