@<TRIPOS>MOLECULE
3X3
   38    41     1     0     0
SMALL
bcc


@<TRIPOS>ATOM
      1 CAB        -3.7950   -1.9400   -0.3870 ca        1 3X3     -0.118500
      2 CAA        -5.0910   -2.3820   -0.1350 ca        1 3X3     -0.121500
      3 CAG        -6.0820   -1.4890    0.2710 ca        1 3X3     -0.126000
      4 CAH        -5.7750   -0.1380    0.4240 ca        1 3X3     -0.121500
      5 CAI        -4.4890    0.3320    0.1720 ca        1 3X3     -0.118500
      6 CAC        -3.4880   -0.5730   -0.2360 ca        1 3X3      0.025800
      7 NAD        -2.1540   -0.1050   -0.5020 na        1 3X3      0.266800
      8 NAJ        -1.6490    1.0440   -0.0000 nc        1 3X3     -0.473800
      9 NAE        -1.2450   -0.7700   -1.2800 nc        1 3X3     -0.144800
     10 NAF        -0.1750   -0.1030   -1.3060 nd        1 3X3     -0.348000
     11 CAK        -0.3780    1.0720   -0.5000 cd        1 3X3      0.557500
     12 CAN         0.6200    2.1070   -0.2830 ca        1 3X3     -0.143500
     13 CAO         0.2770    3.4500   -0.4750 ca        1 3X3     -0.069000
     14 CAP         1.2260    4.4550   -0.2990 ca        1 3X3     -0.166000
     15 CAX         2.5280    4.1290    0.0780 ca        1 3X3     -0.081000
     16 CAW         2.8890    2.8010    0.2910 ca        1 3X3     -0.205000
     17 CAV         1.9350    1.7860    0.1190 ca        1 3X3      0.160100
     18 OAU         2.1870    0.4580    0.3930 os        1 3X3     -0.310900
     19 CAT         3.5690    0.0660    0.3050 c3        1 3X3      0.105100
     20 CAS         3.5850   -1.4030    0.1730 cc        1 3X3      0.218000
     21 OAR         4.5110   -2.0700    0.9910 os        1 3X3     -0.366800
     22 CAQ         4.3790   -3.4270    0.7030 cc        1 3X3      0.244600
     23 CAM         2.8880   -2.3150   -0.5950 cd        1 3X3     -0.211300
     24 CAL         3.4020   -3.6230   -0.2520 cd        1 3X3     -0.268300
     25 HAB        -3.0300   -2.6670   -0.7020 ha        1 3X3      0.158500
     26 HAA        -5.3290   -3.4500   -0.2560 ha        1 3X3      0.140500
     27 HAG        -7.1020   -1.8490    0.4700 ha        1 3X3      0.138000
     28 HAH        -6.5540    0.5710    0.7450 ha        1 3X3      0.140500
     29 HAI        -4.2710    1.4040    0.3000 ha        1 3X3      0.158500
     30 HAO        -0.7510    3.7100   -0.7730 ha        1 3X3      0.146000
     31 HAP         0.9450    5.5060   -0.4580 ha        1 3X3      0.139000
     32 HAX         3.2770    4.9230    0.2140 ha        1 3X3      0.136000
     33 HAW         3.9130    2.5550    0.6030 ha        1 3X3      0.142000
     34 HAT1        4.0500    0.5410   -0.5930 h1        1 3X3      0.061700
     35 HAT2        4.0950    0.3900    1.2430 h1        1 3X3      0.061700
     36 HAM         2.0960   -2.1000   -1.3100 ha        1 3X3      0.180000
     37 HAQ         5.0510   -4.0700    1.2630 h4        1 3X3      0.052100
     38 HAL         3.0670   -4.5650   -0.6770 ha        1 3X3      0.162000
@<TRIPOS>BOND
     1    1    2 ar  
     2    1    6 ar  
     3    1   25 1   
     4    2    3 ar  
     5    2   26 1   
     6    3    4 ar  
     7    3   27 1   
     8    4    5 ar  
     9    4   28 1   
    10    5    6 ar  
    11    5   29 1   
    12    6    7 1   
    13    7    8 1   
    14    7    9 1   
    15    8   11 2   
    16    9   10 2   
    17   10   11 1   
    18   11   12 1   
    19   12   13 ar  
    20   12   17 ar  
    21   13   14 ar  
    22   13   30 1   
    23   14   15 ar  
    24   14   31 1   
    25   15   16 ar  
    26   15   32 1   
    27   16   17 ar  
    28   16   33 1   
    29   17   18 1   
    30   18   19 1   
    31   19   20 1   
    32   19   34 1   
    33   19   35 1   
    34   20   21 1   
    35   20   23 2   
    36   21   22 1   
    37   22   24 2   
    38   22   37 1   
    39   23   24 1   
    40   23   36 1   
    41   24   38 1   
@<TRIPOS>SUBSTRUCTURE
     1 3X3         1 TEMP              0 ****  ****    0 ROOT
