@<TRIPOS>MOLECULE
3X5
   70    74     1     0     0
SMALL
bcc


@<TRIPOS>ATOM
      1 O1          1.1490    0.5210   -0.6640 o         1 3X5     -0.482100
      2 C24         2.2780    0.4470   -0.1900 c         1 3X5      0.559900
      3 C23         2.5220    0.2000    1.2980 c3        1 3X5     -0.014500
      4 C25         3.3920   -1.0640    1.4520 c3        1 3X5     -0.002100
      5 C26         3.7020   -1.3170    2.8680 cc        1 3X5     -0.325900
      6 N3          3.3080   -2.4500    3.5980 na        1 3X5     -0.303900
      7 C28         3.8490   -2.3120    4.8760 cc        1 3X5      0.437400
      8 N2          4.5460   -1.1560    4.9990 nd        1 3X5     -0.651000
      9 C27         4.4720   -0.5340    3.7620 cd        1 3X5      0.336200
     10 N1          1.2580    0.0900    2.0890 ny        1 3X5     -0.745000
     11 C22         0.6360    1.4070    2.4040 c3        1 3X5      0.078800
     12 C21        -0.5260    1.2600    3.4330 c3        1 3X5      0.102700
     13 C20        -0.9430    2.6730    3.8740 c3        1 3X5     -0.085400
     14 C19        -1.9140    3.3320    2.9130 c3        1 3X5     -0.064700
     15 C18        -2.3510    4.6940    3.4300 c3        1 3X5     -0.073400
     16 C17        -3.3560    5.3290    2.4900 c3        1 3X5     -0.079400
     17 C16        -4.5470    4.4230    2.2560 c3        1 3X5     -0.079400
     18 C15        -4.1200    3.0580    1.7560 c3        1 3X5     -0.073400
     19 C14        -3.1260    2.4250    2.7160 c3        1 3X5     -0.076700
     20 C13        -2.6640    1.0690    2.1710 c3        1 3X5      0.088000
     21 N          -1.6180    0.4430    2.9500 n         1 3X5     -0.493800
     22 C          -1.6060   -0.9260    3.2210 c         1 3X5      0.705700
     23 O          -0.4960   -1.4650    3.4600 o         1 3X5     -0.677100
     24 C1         -2.8600   -1.7120    3.2030 ca        1 3X5     -0.167600
     25 C12        -2.8700   -2.9540    2.5570 ca        1 3X5     -0.081500
     26 C11        -4.0190   -3.7390    2.5740 ca        1 3X5     -0.128500
     27 C4         -5.1680   -3.3050    3.2520 cp        1 3X5      0.025000
     28 C3         -5.1430   -2.0660    3.9130 ca        1 3X5     -0.128500
     29 C2         -4.0010   -1.2720    3.8860 ca        1 3X5     -0.081500
     30 C5         -6.3720   -4.1320    3.2750 cp        1 3X5     -0.073000
     31 C10        -6.7750   -4.8290    2.1270 ca        1 3X5     -0.109000
     32 C9         -7.9250   -5.6140    2.1500 ca        1 3X5     -0.127000
     33 C8         -8.6800   -5.7180    3.3190 ca        1 3X5     -0.107000
     34 C7         -8.2820   -5.0310    4.4660 ca        1 3X5     -0.127000
     35 C6         -7.1360   -4.2390    4.4460 ca        1 3X5     -0.109000
     36 H1          3.2120    0.5520   -0.7820 h4        1 3X5      0.065200
     37 H2          3.1040    1.0830    1.7070 hx        1 3X5      0.125700
     38 H3          2.8830   -1.9410    0.9700 hc        1 3X5      0.090200
     39 H4          4.3510   -0.8780    0.8910 hc        1 3X5      0.090200
     40 H5          2.8170   -3.2290    3.2420 hn        1 3X5      0.315700
     41 H6          3.7070   -3.0590    5.6680 h5        1 3X5      0.086100
     42 H8          4.9750    0.4150    3.5700 h4        1 3X5      0.049100
     43 H9          0.5790   -0.4780    1.5630 hn        1 3X5      0.472800
     44 H11         0.2620    1.8590    1.4420 hx        1 3X5      0.106200
     45 H12         1.4240    2.0750    2.8510 hx        1 3X5      0.106200
     46 H13        -0.0930    0.7440    4.3490 h1        1 3X5      0.085700
     47 H14        -1.4240    2.5920    4.8860 hc        1 3X5      0.068700
     48 H15        -0.0270    3.3080    3.9900 hc        1 3X5      0.068700
     49 H16        -1.4080    3.4750    1.9160 hc        1 3X5      0.046700
     50 H17        -1.4550    5.3600    3.5330 hc        1 3X5      0.049200
     51 H18        -2.8070    4.5800    4.4490 hc        1 3X5      0.049200
     52 H19        -3.7050    6.3020    2.9250 hc        1 3X5      0.051200
     53 H20        -2.8600    5.5570    1.5100 hc        1 3X5      0.051200
     54 H21        -5.2330    4.8950    1.5030 hc        1 3X5      0.052700
     55 H22        -5.1240    4.3080    3.2110 hc        1 3X5      0.052700
     56 H23        -5.0180    2.3940    1.6550 hc        1 3X5      0.049200
     57 H24        -3.6550    3.1580    0.7400 hc        1 3X5      0.049200
     58 H25        -3.6310    2.2720    3.7100 hc        1 3X5      0.066700
     59 H26        -2.2680    1.2200    1.1220 h1        1 3X5      0.062200
     60 H27        -3.5520    0.3790    2.1070 h1        1 3X5      0.062200
     61 H28        -1.9630   -3.3130    2.0470 ha        1 3X5      0.141000
     62 H29        -4.0230   -4.7160    2.0640 ha        1 3X5      0.154000
     63 H30        -6.0390   -1.7180    4.4520 ha        1 3X5      0.154000
     64 H31        -3.9950   -0.3050    4.4120 ha        1 3X5      0.141000
     65 H32        -6.1870   -4.7460    1.2000 ha        1 3X5      0.134000
     66 H33        -8.2380   -6.1540    1.2430 ha        1 3X5      0.142500
     67 H34        -9.5870   -6.3420    3.3360 ha        1 3X5      0.144000
     68 H35        -8.8740   -5.1140    5.3900 ha        1 3X5      0.142500
     69 H36        -6.8240   -3.7050    5.3560 ha        1 3X5      0.134000
     70 H121        1.4420   -0.4140    2.9760 hn        1 3X5      0.472800
@<TRIPOS>BOND
     1    1    2 2   
     2    2    3 1   
     3    2   36 1   
     4    3    4 1   
     5    3   10 1   
     6    3   37 1   
     7    4    5 1   
     8    4   38 1   
     9    4   39 1   
    10    5    6 1   
    11    5    9 2   
    12    6    7 1   
    13    6   40 1   
    14    7    8 2   
    15    7   41 1   
    16    8    9 1   
    17    9   42 1   
    18   10   11 1   
    19   10   43 1   
    20   10   70 1   
    21   11   12 1   
    22   11   44 1   
    23   11   45 1   
    24   12   13 1   
    25   12   21 1   
    26   12   46 1   
    27   13   14 1   
    28   13   47 1   
    29   13   48 1   
    30   14   15 1   
    31   14   19 1   
    32   14   49 1   
    33   15   16 1   
    34   15   50 1   
    35   15   51 1   
    36   16   17 1   
    37   16   52 1   
    38   16   53 1   
    39   17   18 1   
    40   17   54 1   
    41   17   55 1   
    42   18   19 1   
    43   18   56 1   
    44   18   57 1   
    45   19   20 1   
    46   19   58 1   
    47   20   21 1   
    48   20   59 1   
    49   20   60 1   
    50   21   22 1   
    51   22   23 2   
    52   22   24 1   
    53   24   25 ar  
    54   24   29 ar  
    55   25   26 ar  
    56   25   61 1   
    57   26   27 ar  
    58   26   62 1   
    59   27   28 ar  
    60   27   30 1   
    61   28   29 ar  
    62   28   63 1   
    63   29   64 1   
    64   30   31 ar  
    65   30   35 ar  
    66   31   32 ar  
    67   31   65 1   
    68   32   33 ar  
    69   32   66 1   
    70   33   34 ar  
    71   33   67 1   
    72   34   35 ar  
    73   34   68 1   
    74   35   69 1   
@<TRIPOS>SUBSTRUCTURE
     1 3X5         1 TEMP              0 ****  ****    0 ROOT
