@<TRIPOS>MOLECULE
3X5
   70    74     1     0     0
SMALL
bcc


@<TRIPOS>ATOM
      1 O1          1.1450    0.5030   -0.6670 o         1 3X5     -0.482100
      2 C24         2.2750    0.4320   -0.1960 c         1 3X5      0.559900
      3 C23         2.5240    0.1920    1.2920 c3        1 3X5     -0.013500
      4 C25         3.3970   -1.0690    1.4500 c3        1 3X5     -0.002100
      5 C26         3.7110   -1.3150    2.8660 cc        1 3X5     -0.324900
      6 N3          3.3250   -2.4480    3.6010 na        1 3X5     -0.303900
      7 C28         3.8680   -2.3020    4.8770 cc        1 3X5      0.437400
      8 N2          4.5580   -1.1410    4.9950 nd        1 3X5     -0.650000
      9 C27         4.4770   -0.5240    3.7560 cd        1 3X5      0.336200
     10 N1          1.2620    0.0850    2.0880 n4        1 3X5     -0.745000
     11 C22         0.6410    1.4030    2.3990 c3        1 3X5      0.078800
     12 C21        -0.5200    1.2590    3.4300 c3        1 3X5      0.102700
     13 C20        -0.9350    2.6730    3.8690 c3        1 3X5     -0.085400
     14 C19        -1.9050    3.3320    2.9080 c3        1 3X5     -0.064700
     15 C18        -2.3400    4.6960    3.4240 c3        1 3X5     -0.073400
     16 C17        -3.3440    5.3310    2.4840 c3        1 3X5     -0.079400
     17 C16        -4.5380    4.4270    2.2520 c3        1 3X5     -0.079400
     18 C15        -4.1120    3.0600    1.7540 c3        1 3X5     -0.073400
     19 C14        -3.1190    2.4260    2.7130 c3        1 3X5     -0.076700
     20 C13        -2.6590    1.0690    2.1700 c3        1 3X5      0.088000
     21 N          -1.6130    0.4430    2.9500 n         1 3X5     -0.493800
     22 C          -1.6030   -0.9260    3.2210 c         1 3X5      0.705700
     23 O          -0.4930   -1.4650    3.4610 o         1 3X5     -0.677100
     24 C1         -2.8580   -1.7110    3.2040 ca        1 3X5     -0.167600
     25 C12        -2.8690   -2.9530    2.5570 ca        1 3X5     -0.081500
     26 C11        -4.0190   -3.7360    2.5750 ca        1 3X5     -0.128500
     27 C4         -5.1680   -3.3010    3.2540 cp        1 3X5      0.025000
     28 C3         -5.1410   -2.0630    3.9150 ca        1 3X5     -0.128500
     29 C2         -3.9970   -1.2700    3.8890 ca        1 3X5     -0.081500
     30 C5         -6.3720   -4.1270    3.2770 cp        1 3X5     -0.073000
     31 C10        -6.7770   -4.8210    2.1280 ca        1 3X5     -0.109000
     32 C9         -7.9280   -5.6060    2.1520 ca        1 3X5     -0.127000
     33 C8         -8.6820   -5.7100    3.3220 ca        1 3X5     -0.107000
     34 C7         -8.2820   -5.0250    4.4690 ca        1 3X5     -0.127000
     35 C6         -7.1350   -4.2340    4.4490 ca        1 3X5     -0.109000
     36 H1          3.2080    0.5350   -0.7910 h4        1 3X5      0.065200
     37 H2          3.1060    1.0780    1.6950 hx        1 3X5      0.125700
     38 H3          4.3530   -0.8850    0.8850 hc        1 3X5      0.090200
     39 H4          2.8870   -1.9490    0.9730 hc        1 3X5      0.090200
     40 H5          2.8390   -3.2310    3.2480 hn        1 3X5      0.315700
     41 H6          3.7310   -3.0470    5.6730 h5        1 3X5      0.086100
     42 H8          4.9730    0.4270    3.5600 h4        1 3X5      0.049100
     43 H9          0.5820   -0.4850    1.5650 hn        1 3X5      0.472800
     44 H11         0.2660    1.8530    1.4370 hx        1 3X5      0.105700
     45 H12         1.4290    2.0720    2.8440 hx        1 3X5      0.105700
     46 H13        -0.0860    0.7430    4.3460 h1        1 3X5      0.085700
     47 H14        -0.0170    3.3070    3.9840 hc        1 3X5      0.068700
     48 H15        -1.4150    2.5940    4.8820 hc        1 3X5      0.068700
     49 H16        -1.3990    3.4730    1.9110 hc        1 3X5      0.046700
     50 H17        -2.7950    4.5830    4.4430 hc        1 3X5      0.049200
     51 H18        -1.4430    5.3610    3.5250 hc        1 3X5      0.049200
     52 H19        -3.6920    6.3050    2.9170 hc        1 3X5      0.051200
     53 H20        -2.8490    5.5570    1.5040 hc        1 3X5      0.051200
     54 H21        -5.2230    4.8980    1.4990 hc        1 3X5      0.052700
     55 H22        -5.1140    4.3140    3.2080 hc        1 3X5      0.052700
     56 H23        -3.6480    3.1570    0.7370 hc        1 3X5      0.049200
     57 H24        -5.0110    2.3980    1.6540 hc        1 3X5      0.049200
     58 H25        -3.6230    2.2760    3.7090 hc        1 3X5      0.066700
     59 H26        -2.2650    1.2180    1.1210 h1        1 3X5      0.062200
     60 H27        -3.5490    0.3810    2.1080 h1        1 3X5      0.062200
     61 H28        -1.9630   -3.3120    2.0460 ha        1 3X5      0.141000
     62 H29        -4.0240   -4.7120    2.0640 ha        1 3X5      0.153500
     63 H30        -6.0350   -1.7140    4.4560 ha        1 3X5      0.153500
     64 H31        -3.9900   -0.3030    4.4150 ha        1 3X5      0.141000
     65 H32        -6.1900   -4.7390    1.2020 ha        1 3X5      0.134000
     66 H33        -8.2430   -6.1440    1.2450 ha        1 3X5      0.142500
     67 H34        -9.5890   -6.3330    3.3390 ha        1 3X5      0.144000
     68 H35        -8.8730   -5.1090    5.3940 ha        1 3X5      0.142500
     69 H36        -6.8210   -3.7020    5.3600 ha        1 3X5      0.134000
     70 H121        1.4500   -0.4160    2.9760 hn        1 3X5      0.472800
@<TRIPOS>BOND
     1    1    2 2   
     2    2    3 1   
     3    2   36 1   
     4    3    4 1   
     5    3   10 1   
     6    3   37 1   
     7    4    5 1   
     8    4   38 1   
     9    4   39 1   
    10    5    6 1   
    11    5    9 2   
    12    6    7 1   
    13    6   40 1   
    14    7    8 2   
    15    7   41 1   
    16    8    9 1   
    17    9   42 1   
    18   10   11 1   
    19   10   43 1   
    20   10   70 1   
    21   11   12 1   
    22   11   44 1   
    23   11   45 1   
    24   12   13 1   
    25   12   21 1   
    26   12   46 1   
    27   13   14 1   
    28   13   47 1   
    29   13   48 1   
    30   14   15 1   
    31   14   19 1   
    32   14   49 1   
    33   15   16 1   
    34   15   50 1   
    35   15   51 1   
    36   16   17 1   
    37   16   52 1   
    38   16   53 1   
    39   17   18 1   
    40   17   54 1   
    41   17   55 1   
    42   18   19 1   
    43   18   56 1   
    44   18   57 1   
    45   19   20 1   
    46   19   58 1   
    47   20   21 1   
    48   20   59 1   
    49   20   60 1   
    50   21   22 1   
    51   22   23 2   
    52   22   24 1   
    53   24   25 ar  
    54   24   29 ar  
    55   25   26 ar  
    56   25   61 1   
    57   26   27 ar  
    58   26   62 1   
    59   27   28 ar  
    60   27   30 1   
    61   28   29 ar  
    62   28   63 1   
    63   29   64 1   
    64   30   31 ar  
    65   30   35 ar  
    66   31   32 ar  
    67   31   65 1   
    68   32   33 ar  
    69   32   66 1   
    70   33   34 ar  
    71   33   67 1   
    72   34   35 ar  
    73   34   68 1   
    74   35   69 1   
@<TRIPOS>SUBSTRUCTURE
     1 3X5         1 TEMP              0 ****  ****    0 ROOT
