@<TRIPOS>MOLECULE
3X7
   49    51     1     0     0
SMALL
bcc


@<TRIPOS>ATOM
      1 N5         -1.2690    0.2020   -2.4120 n1        1 3X7     -0.024000
      2 C18        -0.6500    0.1780   -1.4280 c1        1 3X7     -0.081000
      3 C6          0.0970    0.1490   -0.2070 c2        1 3X7      0.013000
      4 N2          1.4610    0.1210   -0.2940 n2        1 3X7     -0.081000
      5 C7          2.1750    0.0930    0.8330 c2        1 3X7     -0.083000
      6 C3          1.5590    0.0920    2.1070 c2        1 3X7      0.004000
      7 C5         -0.6210    0.1510    1.0080 c2        1 3X7     -0.079000
      8 C2          0.1130    0.1220    2.1870 c2        1 3X7     -0.053000
      9 C1         -0.2180    0.1130    3.5930 c2        1 3X7     -0.126000
     10 C10        -1.3970    0.1310    4.3280 c2        1 3X7     -0.023000
     11 C9         -1.3060    0.1170    5.7250 c2        1 3X7     -0.113000
     12 C8         -0.0200    0.0830    6.3300 c2        1 3X7     -0.024000
     13 N3          1.1490    0.0640    5.6750 n2        1 3X7     -0.150000
     14 C4          1.0500    0.0800    4.3150 c2        1 3X7      0.084000
     15 N1          2.1100    0.0680    3.3870 na        1 3X7     -0.208000
     16 C14        -2.5030    0.1350    6.5570 ca        1 3X7     -0.035000
     17 C13        -3.6350   -0.6080    6.1910 ca        1 3X7     -0.122500
     18 C12        -4.7790   -0.5880    6.9850 ca        1 3X7     -0.119000
     19 C15        -2.5400    0.8970    7.7340 ca        1 3X7     -0.122500
     20 C16        -3.6840    0.9130    8.5270 ca        1 3X7     -0.119000
     21 C11        -4.8120    0.1710    8.1590 ca        1 3X7     -0.078000
     22 C17        -6.0560    0.2460    8.9950 c3        1 3X7     -0.038000
     23 N4         -6.6770   -1.0450    9.2680 n3        1 3X7     -0.246000
     24 C23        -5.7920   -1.9350   10.0060 c3        1 3X7     -0.158000
     25 C22        -6.3920   -3.1730   10.4940 c1        1 3X7     -0.045000
     26 C21       -10.2290   -5.1280   11.5380 c2        1 3X7     -0.229500
     27 C20        -9.6700   -4.2730   10.6930 c2        1 3X7     -0.229500
     28 C19        -7.9940   -0.9050    9.8490 c3        1 3X7     -0.127000
     29 H1          3.2730    0.0710    0.7160 h4        1 3X7      0.173000
     30 H2         -1.7200    0.1750    1.0150 ha        1 3X7      0.159000
     31 H3         -2.3750    0.1620    3.8250 ha        1 3X7      0.151000
     32 H4          0.0680    0.0630    7.4330 h4        1 3X7      0.169000
     33 H5          3.0710    0.0440    3.6100 hn        1 3X7      0.272000
     34 H6         -3.6170   -1.2150    5.2740 ha        1 3X7      0.135500
     35 H7         -5.6630   -1.1740    6.6880 ha        1 3X7      0.143500
     36 H8         -1.6640    1.4940    8.0280 ha        1 3X7      0.135500
     37 H9         -3.6990    1.5190    9.4460 ha        1 3X7      0.143500
     38 H10        -6.8120    0.8640    8.4250 h1        1 3X7      0.082000
     39 H11        -5.8230    0.8020    9.9530 h1        1 3X7      0.082000
     40 H13        -5.3580   -1.4340   10.9370 h1        1 3X7      0.111000
     41 H14        -4.9150   -2.1430    9.3160 h1        1 3X7      0.111000
     42 H15        -9.6520   -5.6690   12.3000 ha        1 3X7      0.113500
     43 H16        -5.6520   -3.9140   10.8360 ha        1 3X7      0.042000
     44 H17        -8.5900   -4.0420   10.6930 ha        1 3X7      0.113500
     45 H18       -11.3030   -5.3550   11.5340 ha        1 3X7      0.113500
     46 H19       -10.2500   -3.7350    9.9310 ha        1 3X7      0.113500
     47 H20        -8.4200   -1.9280   10.0370 h1        1 3X7      0.082667
     48 H21        -7.9910   -0.3310   10.8160 h1        1 3X7      0.082667
     49 H22        -8.6490   -0.3640    9.1160 h1        1 3X7      0.082667
@<TRIPOS>BOND
     1    1    2 1   
     2    2    3 1   
     3    3    4 1   
     4    3    7 1   
     5    4    5 1   
     6    5    6 1   
     7    5   29 1   
     8    6    8 1   
     9    6   15 1   
    10    7    8 1   
    11    7   30 1   
    12    8    9 1   
    13    9   10 1   
    14    9   14 1   
    15   10   11 1   
    16   10   31 1   
    17   11   12 1   
    18   11   16 1   
    19   12   13 1   
    20   12   32 1   
    21   13   14 1   
    22   14   15 1   
    23   15   33 1   
    24   16   17 1   
    25   16   19 1   
    26   17   18 1   
    27   17   34 1   
    28   18   21 1   
    29   18   35 1   
    30   19   20 1   
    31   19   36 1   
    32   20   21 1   
    33   20   37 1   
    34   21   22 1   
    35   22   23 1   
    36   22   38 1   
    37   22   39 1   
    38   23   24 1   
    39   23   28 1   
    40   24   25 1   
    41   24   40 1   
    42   24   41 1   
    43   25   43 1   
    44   26   27 1   
    45   26   42 1   
    46   26   45 1   
    47   27   44 1   
    48   27   46 1   
    49   28   47 1   
    50   28   48 1   
    51   28   49 1   
@<TRIPOS>SUBSTRUCTURE
     1 3X7         1 TEMP              0 ****  ****    0 ROOT
