@<TRIPOS>MOLECULE
3X7
   49    53     1     0     0
SMALL
bcc


@<TRIPOS>ATOM
      1 N5         -1.3250    0.3870   -2.3060 n1        1 3X7     -0.351800
      2 C18        -0.7260    0.3300   -1.3120 cg        1 3X7      0.138800
      3 C6         -0.0010    0.2590   -0.0790 ca        1 3X7      0.447300
      4 N2          1.3640    0.2520   -0.1400 nb        1 3X7     -0.607000
      5 C7          2.0570    0.1860    0.9990 ca        1 3X7      0.381200
      6 C3          1.4160    0.1240    2.2600 ca        1 3X7     -0.105500
      7 C5         -0.7430    0.2010    1.1200 ca        1 3X7     -0.144300
      8 C2         -0.0310    0.1320    2.3110 cp        1 3X7     -0.053000
      9 C1         -0.3890    0.0600    3.7100 cp        1 3X7     -0.191300
     10 C10        -1.5820    0.0320    4.4210 ca        1 3X7     -0.024000
     11 C9         -1.5190   -0.0400    5.8170 cp        1 3X7     -0.175300
     12 C8         -0.2440   -0.0840    6.4460 ca        1 3X7      0.441200
     13 N3          0.9370   -0.0600    5.8140 nb        1 3X7     -0.676000
     14 C4          0.8650    0.0120    4.4550 ca        1 3X7      0.474800
     15 N1          1.9420    0.0530    3.5480 na        1 3X7     -0.276000
     16 C14        -2.7310   -0.0720    6.6260 cp        1 3X7     -0.038000
     17 C13        -3.8460   -0.8140    6.2070 ca        1 3X7     -0.122500
     18 C12        -5.0050   -0.8430    6.9780 ca        1 3X7     -0.116500
     19 C15        -2.8010    0.6380    7.8330 ca        1 3X7     -0.122500
     20 C16        -3.9610    0.6050    8.6030 ca        1 3X7     -0.116500
     21 C11        -5.0710   -0.1340    8.1820 ca        1 3X7     -0.077300
     22 C17        -6.3320   -0.1100    8.9950 c3        1 3X7      0.213100
     23 N4         -6.9290   -1.4230    9.2090 n3        1 3X7     -0.729600
     24 C23        -6.0690   -2.3050    9.9880 c3        1 3X7      0.168300
     25 C22        -6.6820   -3.6830   10.2300 c3        1 3X7     -0.076900
     26 C21        -8.0590   -3.5650   10.8450 c3        1 3X7     -0.079400
     27 C20        -8.9380   -2.6670   10.0020 c3        1 3X7     -0.076900
     28 C19        -8.2750   -1.3120    9.7610 c3        1 3X7      0.168300
     29 H1          3.1560    0.1830    0.9030 h4        1 3X7      0.036100
     30 H2         -1.8410    0.2100    1.1070 ha        1 3X7      0.159000
     31 H3         -2.5510    0.0710    3.9000 ha        1 3X7      0.151000
     32 H4         -0.1780   -0.1500    7.5490 h4        1 3X7      0.033100
     33 H5          2.8990    0.0300    3.7890 hn        1 3X7      0.321700
     34 H6         -3.8010   -1.3830    5.2660 ha        1 3X7      0.134000
     35 H7         -5.8730   -1.4310    6.6420 ha        1 3X7      0.143000
     36 H8         -1.9390    1.2320    8.1700 ha        1 3X7      0.134000
     37 H9         -4.0000    1.1690    9.5480 ha        1 3X7      0.143000
     38 H10        -6.1270    0.4140    9.9770 h1        1 3X7      0.039700
     39 H11        -7.0850    0.5170    8.4310 h1        1 3X7      0.039700
     40 H13        -5.1090   -2.4260    9.4120 h1        1 3X7      0.031450
     41 H14        -5.8120   -1.8490   10.9900 h1        1 3X7      0.031450
     42 H15        -6.7480   -4.2430    9.2620 hc        1 3X7      0.047200
     43 H16        -6.0020   -4.2560   10.9120 hc        1 3X7      0.047200
     44 H17        -8.5260   -4.5800   10.9320 hc        1 3X7      0.040200
     45 H18        -7.9750   -3.1430   11.8810 hc        1 3X7      0.040200
     46 H19        -9.1490   -3.1630    9.0190 hc        1 3X7      0.047200
     47 H20        -9.9180   -2.4930   10.5150 hc        1 3X7      0.047200
     48 H21        -8.2750   -0.7360   10.7330 h1        1 3X7      0.031450
     49 H22        -8.8980   -0.7320    9.0220 h1        1 3X7      0.031450
@<TRIPOS>BOND
     1    1    2 3   
     2    2    3 1   
     3    3    4 ar  
     4    3    7 ar  
     5    4    5 ar  
     6    5    6 ar  
     7    5   29 1   
     8    6    8 ar  
     9    6   15 1   
    10    7    8 ar  
    11    7   30 1   
    12    8    9 1   
    13    9   10 ar  
    14    9   14 ar  
    15   10   11 ar  
    16   10   31 1   
    17   11   12 ar  
    18   11   16 1   
    19   12   13 ar  
    20   12   32 1   
    21   13   14 ar  
    22   14   15 1   
    23   15   33 1   
    24   16   17 ar  
    25   16   19 ar  
    26   17   18 ar  
    27   17   34 1   
    28   18   21 ar  
    29   18   35 1   
    30   19   20 ar  
    31   19   36 1   
    32   20   21 ar  
    33   20   37 1   
    34   21   22 1   
    35   22   23 1   
    36   22   38 1   
    37   22   39 1   
    38   23   24 1   
    39   23   28 1   
    40   24   25 1   
    41   24   40 1   
    42   24   41 1   
    43   25   26 1   
    44   25   42 1   
    45   25   43 1   
    46   26   27 1   
    47   26   44 1   
    48   26   45 1   
    49   27   28 1   
    50   27   46 1   
    51   27   47 1   
    52   28   48 1   
    53   28   49 1   
@<TRIPOS>SUBSTRUCTURE
     1 3X7         1 TEMP              0 ****  ****    0 ROOT
