@<TRIPOS>MOLECULE
3X8
   44    46     1     0     0
SMALL
bcc


@<TRIPOS>ATOM
      1 C4         -0.2900    0.1210    0.0570 c3        1 3X8      0.090100
      2 C5          1.2120    0.2050   -0.2380 c3        1 3X8      0.106100
      3 C6          1.5880    1.5680   -0.8250 c3        1 3X8      0.140400
      4 C3         -0.6010   -1.2320    0.7180 c3        1 3X8      0.115100
      5 CAH         8.2970   -4.3430    0.4810 ca        1 3X8     -0.119500
      6 CAI         9.6480   -4.6750    0.5660 ca        1 3X8     -0.129500
      7 CAJ        10.4540   -4.0880    1.5410 ca        1 3X8     -0.127000
      8 CAK         9.9050   -3.1640    2.4310 ca        1 3X8     -0.129500
      9 CAL         8.5560   -2.8280    2.3480 ca        1 3X8     -0.119500
     10 CAG         7.7380   -3.4160    1.3720 cp        1 3X8     -0.036000
     11 CAD         6.3220   -3.0660    1.2840 cp        1 3X8     -0.056000
     12 CAC         5.3610   -4.0560    1.0280 ca        1 3X8     -0.095000
     13 CAB         4.0110   -3.7350    0.9510 ca        1 3X8     -0.164000
     14 CAE         5.9080   -1.7370    1.4500 ca        1 3X8     -0.095000
     15 CAF         4.5610   -1.3940    1.3640 ca        1 3X8     -0.164000
     16 CAA         3.6160   -2.3970    1.1200 ca        1 3X8      0.113100
     17 O1          2.2600   -2.1500    0.9690 os        1 3X8     -0.360900
     18 C1          1.7280   -1.0730    1.7330 c3        1 3X8      0.307900
     19 O5          1.9540    0.0970    0.9840 os        1 3X8     -0.437600
     20 O6          2.9330    1.5940   -1.2480 oh        1 3X8     -0.593800
     21 O4         -0.9760    0.2530   -1.1760 oh        1 3X8     -0.593800
     22 O3         -1.9820   -1.3380    0.9890 oh        1 3X8     -0.594800
     23 C2          0.2430   -1.4100    1.9870 c3        1 3X8      0.092100
     24 O2         -0.2940   -0.5280    2.9600 oh        1 3X8     -0.596800
     25 H41        -0.5990    0.9560    0.7480 h1        1 3X8      0.060700
     26 H5          1.5220   -0.6230   -0.9310 h1        1 3X8      0.083700
     27 H62         1.4010    2.3750   -0.0690 h1        1 3X8      0.064200
     28 H61         0.9770    1.7480   -1.7500 h1        1 3X8      0.064200
     29 H31        -0.3770   -2.0730    0.0030 h1        1 3X8      0.105700
     30 HAI        10.0780   -5.4010   -0.1390 ha        1 3X8      0.132500
     31 HAJ        11.5200   -4.3510    1.6070 ha        1 3X8      0.132000
     32 HAK        10.5380   -2.7000    3.2010 ha        1 3X8      0.132500
     33 HAL         8.1260   -2.1030    3.0550 ha        1 3X8      0.134000
     34 HAC         5.6790   -5.1020    0.8960 ha        1 3X8      0.140000
     35 HAB         3.2540   -4.5060    0.7490 ha        1 3X8      0.150500
     36 HAE         6.6570   -0.9510    1.6350 ha        1 3X8      0.140000
     37 HAF         4.2420   -0.3460    1.4680 ha        1 3X8      0.150500
     38 H1          2.2840   -0.9070    2.6980 h2        1 3X8      0.086700
     39 H63         3.4750    1.3570   -0.4840 ho        1 3X8      0.407000
     40 H42        -1.8720   -0.0830   -1.0300 ho        1 3X8      0.421000
     41 H32        -2.1880   -0.7240    1.7070 ho        1 3X8      0.421000
     42 H21         0.1680   -2.4750    2.3430 h1        1 3X8      0.072700
     43 H22         0.1380   -0.7310    3.7990 ho        1 3X8      0.415000
     44 HAH         7.6670   -4.8040   -0.2950 ha        1 3X8      0.134000
@<TRIPOS>BOND
     1    1    2 1   
     2    1    4 1   
     3    1   21 1   
     4    1   25 1   
     5    2    3 1   
     6    2   19 1   
     7    2   26 1   
     8    3   20 1   
     9    3   27 1   
    10    3   28 1   
    11    4   22 1   
    12    4   23 1   
    13    4   29 1   
    14    5    6 ar  
    15    5   10 ar  
    16    5   44 1   
    17    6    7 ar  
    18    6   30 1   
    19    7    8 ar  
    20    7   31 1   
    21    8    9 ar  
    22    8   32 1   
    23    9   10 ar  
    24    9   33 1   
    25   10   11 1   
    26   11   12 ar  
    27   11   14 ar  
    28   12   13 ar  
    29   12   34 1   
    30   13   16 ar  
    31   13   35 1   
    32   14   15 ar  
    33   14   36 1   
    34   15   16 ar  
    35   15   37 1   
    36   16   17 1   
    37   17   18 1   
    38   18   19 1   
    39   18   23 1   
    40   18   38 1   
    41   20   39 1   
    42   21   40 1   
    43   22   41 1   
    44   23   24 1   
    45   23   42 1   
    46   24   43 1   
@<TRIPOS>SUBSTRUCTURE
     1 3X8         1 TEMP              0 ****  ****    0 ROOT
