@<TRIPOS>MOLECULE
3XA
   58    60     1     0     0
SMALL
bcc


@<TRIPOS>ATOM
      1 O1         -0.3030    0.9290    1.1880 os        1 3XA     -0.441600
      2 C2         -0.4060    1.4450   -0.1250 c3        1 3XA      0.105400
      3 C3         -1.8190    1.2230   -0.6850 c3        1 3XA      0.068800
      4 N4         -2.8680    1.7950    0.2070 n4        1 3XA     -0.753000
      5 C5         -4.2460    1.5180   -0.2770 c3        1 3XA      0.030800
      6 C6         -5.3430    2.0840    0.7150 c3        1 3XA      0.477900
      7 F7         -5.1210    1.5790    1.9820 f         1 3XA     -0.220800
      8 F8         -5.1350    3.4340    0.9130 f         1 3XA     -0.220800
      9 N1'        -0.8530   -1.7260    3.0870 n3        1 3XA     -0.782200
     10 C11        -6.6910    1.7290    0.1290 ca        1 3XA     -0.169300
     11 C12        -7.1740    0.4280    0.2960 ca        1 3XA     -0.149000
     12 C13        -8.4220    0.0880   -0.2540 ca        1 3XA      0.148900
     13 F13        -8.8960   -1.1680   -0.1050 f         1 3XA     -0.110900
     14 C14        -9.1770    1.0510   -0.9560 ca        1 3XA     -0.115000
     15 C15        -8.6770    2.3410   -1.0980 ca        1 3XA     -0.091000
     16 C16        -7.4360    2.6880   -0.5590 ca        1 3XA     -0.101000
     17 N1A         3.9670    0.2370    3.6510 nb        1 3XA     -0.670000
     18 C2'        -1.0000   -1.3450    1.6930 c3        1 3XA      0.137800
     19 C2A         2.7390    0.6500    4.0260 ca        1 3XA      0.455600
     20 C3'         0.1780   -0.4190    1.2850 c3        1 3XA      0.103100
     21 C3A         2.4270    0.9710    5.3730 ca        1 3XA     -0.202300
     22 C4'         1.2050   -0.5400    2.4350 c3        1 3XA     -0.092700
     23 C4A         3.4080    0.8670    6.3590 ca        1 3XA      0.011700
     24 C5'         0.5060   -1.4130    3.5070 c3        1 3XA      0.146800
     25 C5A         4.6980    0.4380    5.9860 ca        1 3XA     -0.206300
     26 C6A         4.9120    0.1410    4.6290 ca        1 3XA      0.453200
     27 N6A         6.2550   -0.3130    4.1960 n4        1 3XA     -0.818300
     28 C7A         1.6650    0.7960    2.9790 c3        1 3XA     -0.121700
     29 C8A         3.1260    1.2040    7.7710 c3        1 3XA     -0.085800
     30 H2         -0.1800    2.5430   -0.0220 h1        1 3XA      0.094700
     31 H2A         0.3250    0.9800   -0.8390 h1        1 3XA      0.094700
     32 H3         -2.0200    0.1170   -0.7870 hx        1 3XA      0.115700
     33 H3A        -1.9030    1.7080   -1.6990 hx        1 3XA      0.115700
     34 HN4        -2.7500    1.3950    1.1520 hn        1 3XA      0.465300
     35 H5         -4.3930    2.0020   -1.2820 hx        1 3XA      0.133700
     36 H5A        -4.3970    0.4050   -0.3650 hx        1 3XA      0.133700
     37 HN1'       -1.5270   -1.2590    3.6650 hn        1 3XA      0.366800
     38 H12        -6.6090   -0.3190    0.8720 ha        1 3XA      0.155000
     39 H14       -10.1580    0.7720   -1.3750 ha        1 3XA      0.180000
     40 H15        -9.2700    3.1010   -1.6350 ha        1 3XA      0.169000
     41 H16        -7.0610    3.7200   -0.6590 ha        1 3XA      0.157000
     42 H2'        -1.9820   -0.8370    1.4980 h1        1 3XA      0.053700
     43 H2'A       -0.9570   -2.2860    1.0770 h1        1 3XA      0.053700
     44 H3'         0.6340   -0.7490    0.3160 h1        1 3XA      0.073700
     45 H3AA        1.4090    1.3030    5.6340 ha        1 3XA      0.178000
     46 H4'         2.0950   -1.0990    2.0350 hc        1 3XA      0.082700
     47 H5'         0.5210   -0.9020    4.5070 h1        1 3XA      0.062200
     48 H5'A        1.0540   -2.3910    3.6090 h1        1 3XA      0.062200
     49 H5AA        5.4860    0.3490    6.7500 ha        1 3XA      0.176000
     50 HN6A        6.1950   -1.2650    3.8140 hn        1 3XA      0.474133
     51 HN6B        6.6190    0.3150    3.4680 hn        1 3XA      0.474133
     52 H7A         0.7930    1.3440    3.4290 hc        1 3XA      0.077700
     53 H7AA        2.0500    1.4260    2.1310 hc        1 3XA      0.077700
     54 H8A         2.0250    1.2450    7.9670 hc        1 3XA      0.081367
     55 H8AA        3.5790    0.4480    8.4610 hc        1 3XA      0.081367
     56 H8AB        3.5620    2.2070    8.0180 hc        1 3XA      0.081367
     57 H42        -2.7400    2.8130    0.2860 hn        1 3XA      0.465300
     58 H6A3        6.8890   -0.3060    5.0020 hn        1 3XA      0.474133
@<TRIPOS>BOND
     1    1    2 1   
     2    1   20 1   
     3    2    3 1   
     4    2   30 1   
     5    2   31 1   
     6    3    4 1   
     7    3   32 1   
     8    3   33 1   
     9    4    5 1   
    10    4   34 1   
    11    4   57 1   
    12    5    6 1   
    13    5   35 1   
    14    5   36 1   
    15    6    7 1   
    16    6    8 1   
    17    6   10 1   
    18    9   18 1   
    19    9   24 1   
    20    9   37 1   
    21   10   11 ar  
    22   10   16 ar  
    23   11   12 ar  
    24   11   38 1   
    25   12   13 1   
    26   12   14 ar  
    27   14   15 ar  
    28   14   39 1   
    29   15   16 ar  
    30   15   40 1   
    31   16   41 1   
    32   17   19 ar  
    33   17   26 ar  
    34   18   20 1   
    35   18   42 1   
    36   18   43 1   
    37   19   21 ar  
    38   19   28 1   
    39   20   22 1   
    40   20   44 1   
    41   21   23 ar  
    42   21   45 1   
    43   22   24 1   
    44   22   28 1   
    45   22   46 1   
    46   23   25 ar  
    47   23   29 1   
    48   24   47 1   
    49   24   48 1   
    50   25   26 ar  
    51   25   49 1   
    52   26   27 1   
    53   27   50 1   
    54   27   51 1   
    55   27   58 1   
    56   28   52 1   
    57   28   53 1   
    58   29   54 1   
    59   29   55 1   
    60   29   56 1   
@<TRIPOS>SUBSTRUCTURE
     1 3XA         1 TEMP              0 ****  ****    0 ROOT
