@<TRIPOS>MOLECULE
3XA
   56    53     1     0     0
SMALL
bcc


@<TRIPOS>ATOM
      1 O1         -0.0670    1.0850   -0.5470 os        1 3XA     -0.271000
      2 C2         -0.7710    1.3520   -1.7530 c3        1 3XA     -0.023000
      3 C3         -1.9740    0.3930   -1.8690 c3        1 3XA     -0.085000
      4 N4         -2.0730   -0.0870   -3.2030 n3        1 3XA     -0.299000
      5 C5         -2.6240   -1.4210   -3.1940 c3        1 3XA     -0.092000
      6 C6         -2.0460   -2.2170   -4.3610 c3        1 3XA      0.259000
      7 F7         -2.5820   -1.7810   -5.5070 f         1 3XA     -0.167000
      8 F8         -0.7200   -2.0520   -4.3970 f         1 3XA     -0.167000
      9 N1'         2.5790   -0.3160   -0.1100 n3        1 3XA     -0.266000
     10 C11        -2.3760   -3.7220   -4.1770 c2        1 3XA     -0.118000
     11 C12        -3.4310   -4.2920   -4.8840 c2        1 3XA     -0.138000
     12 C13        -3.6410   -5.6580   -4.8310 c1        1 3XA      0.091000
     13 F13        -4.7020   -6.1970   -5.4560 f         1 3XA     -0.101000
     14 C14        -2.8020   -6.4590   -4.0750 c1        1 3XA     -0.128500
     15 C15        -1.7520   -5.8930   -3.3710 c1        1 3XA     -0.128500
     16 C16        -1.5400   -4.5220   -3.4230 c1        1 3XA     -0.116000
     17 N1A         1.2650    1.3830    4.2580 n1        1 3XA     -0.208000
     18 C2'         2.0550    0.6540   -1.2040 c3        1 3XA     -0.124000
     19 C2A         1.4300    2.3800    3.3410 c1        1 3XA      0.029000
     20 C3'         1.3130    1.5240   -0.5630 c3        1 3XA      0.005000
     21 C3A         1.8420    3.6350    3.7510 c1        1 3XA     -0.226000
     22 C4'         1.9070    1.5860    0.9730 c3        1 3XA     -0.118000
     23 C4A         2.0860    3.8780    5.0800 c1        1 3XA      0.001000
     24 C5'         2.2410    0.3850    1.2760 c3        1 3XA     -0.095000
     25 C5A         1.9190    2.8740    6.0000 c1        1 3XA     -0.237000
     26 C6A         1.5080    1.6240    5.5900 c1        1 3XA      0.110000
     27 N6A         1.3510    0.5660    6.5520 n3        1 3XA     -0.321000
     28 C7A         0.8000    2.1030    1.9600 c3        1 3XA     -0.098000
     29 C8A         2.6120    5.2120    5.5460 c3        1 3XA     -0.186000
     30 H2         -0.1670    1.2180   -2.5240 h1        1 3XA      0.074500
     31 H2A        -1.0950    2.2880   -1.7460 h1        1 3XA      0.074500
     32 H3         -1.8500   -0.3540   -1.2640 h1        1 3XA      0.093500
     33 H3A        -2.8000    0.8730   -1.6310 h1        1 3XA      0.093500
     34 HN4        -2.6210    0.4680   -3.6880 hn        1 3XA      0.171000
     35 H5         -2.3950   -1.8640   -2.3520 h1        1 3XA      0.117500
     36 H5A        -3.6030   -1.3720   -3.2840 h1        1 3XA      0.117500
     37 HN1'        3.4900   -0.4100   -0.1920 hn        1 3XA      0.140000
     38 H12        -4.0550   -3.7240   -5.3640 ha        1 3XA      0.163000
     39 H14        -2.9520   -7.4310   -4.0370 ha        1 3XA      0.148500
     40 H15        -1.1680   -6.4520   -2.8440 ha        1 3XA      0.148500
     41 H16        -0.8040   -4.1250   -2.9300 ha        1 3XA      0.150000
     42 H2'         1.5100    0.1610   -1.8690 h1        1 3XA      0.095000
     43 H2'A        2.8060    1.1080   -1.6470 h1        1 3XA      0.095000
     44 H3'         1.3840    2.4090   -0.9910 h1        1 3XA      0.083000
     45 H3AA        1.9610    4.3480    3.0950 ha        1 3XA      0.144000
     46 H4'         2.6860    2.1680    1.0080 hc        1 3XA      0.110000
     47 H5'         1.4870   -0.0800    1.7220 h1        1 3XA      0.094500
     48 H5'A        3.0340    0.3880    1.8590 h1        1 3XA      0.094500
     49 H5AA        2.0920    3.0460    6.9460 ha        1 3XA      0.141000
     50 HN6A        1.6550    0.6770    7.4080 hn        1 3XA      0.194500
     51 HN6B        0.9100   -0.2090    6.3170 hn        1 3XA      0.194500
     52 H7A         0.1000    1.4240    2.0500 hc        1 3XA      0.109000
     53 H7AA        0.4100    2.9270    1.6080 hc        1 3XA      0.109000
     54 H8A         2.5050    5.8700    4.8360 hc        1 3XA      0.088333
     55 H8AA        3.5650    5.1270    5.7740 hc        1 3XA      0.088333
     56 H8AB        2.1120    5.5010    6.3370 hc        1 3XA      0.088333
@<TRIPOS>BOND
     1    1    2 1   
     2    1   20 1   
     3    2    3 1   
     4    2   30 1   
     5    2   31 1   
     6    3    4 1   
     7    3   32 1   
     8    3   33 1   
     9    4    5 1   
    10    4   34 1   
    11    5    6 1   
    12    5   35 1   
    13    5   36 1   
    14    6    7 1   
    15    6    8 1   
    16    6   10 1   
    17    9   18 1   
    18    9   24 1   
    19    9   37 1   
    20   10   11 1   
    21   10   16 1   
    22   11   12 1   
    23   11   38 1   
    24   12   13 1   
    25   14   15 1   
    26   14   39 1   
    27   15   40 1   
    28   16   41 1   
    29   17   26 1   
    30   18   20 1   
    31   18   42 1   
    32   18   43 1   
    33   19   21 1   
    34   19   28 1   
    35   20   22 1   
    36   20   44 1   
    37   21   45 1   
    38   22   24 1   
    39   22   28 1   
    40   22   46 1   
    41   23   25 1   
    42   23   29 1   
    43   24   47 1   
    44   24   48 1   
    45   25   49 1   
    46   26   27 1   
    47   27   50 1   
    48   27   51 1   
    49   28   52 1   
    50   28   53 1   
    51   29   54 1   
    52   29   55 1   
    53   29   56 1   
@<TRIPOS>SUBSTRUCTURE
     1 3XA         1 TEMP              0 ****  ****    0 ROOT
