@<TRIPOS>MOLECULE
3XA
   57    59     1     0     0
SMALL
bcc


@<TRIPOS>ATOM
      1 O1          0.0680    0.5460   -0.0620 os        1 3XA     -0.464600
      2 C2         -0.4220    1.1450   -1.2520 c3        1 3XA      0.107400
      3 C3         -1.9510    1.0380   -1.1750 c3        1 3XA      0.104800
      4 N4         -2.4830    1.5840    0.1100 n4        1 3XA     -0.756000
      5 C5         -3.9310    1.3070    0.2840 c3        1 3XA      0.035800
      6 C6         -4.5290    2.0370    1.5530 c3        1 3XA      0.472900
      7 F7         -3.7940    1.7100    2.6740 f         1 3XA     -0.217300
      8 F8         -4.3040    3.3960    1.4550 f         1 3XA     -0.217300
      9 N1'         2.3040   -1.8670    0.2170 n3        1 3XA     -0.783200
     10 C11        -5.9900    1.6470    1.6330 ca        1 3XA     -0.163300
     11 C12        -6.3310    0.4300    2.2270 ca        1 3XA     -0.142000
     12 C13        -7.6860    0.0590    2.2910 ca        1 3XA      0.144900
     13 F13        -8.0300   -1.1200    2.8560 f         1 3XA     -0.114900
     14 C14        -8.6830    0.9100    1.7700 ca        1 3XA     -0.122000
     15 C15        -8.3150    2.1210    1.1940 ca        1 3XA     -0.095000
     16 C16        -6.9730    2.4980    1.1230 ca        1 3XA     -0.106000
     17 N1A         0.8190   -0.6380    4.6340 nb        1 3XA     -0.743000
     18 C2'         1.9700   -0.8400   -0.7560 c3        1 3XA      0.125800
     19 C2A         1.2180    0.4020    3.8680 ca        1 3XA      0.435600
     20 C3'         1.4990    0.4330   -0.0090 c3        1 3XA      0.114100
     21 C3A         2.0180    1.4570    4.3410 ca        1 3XA     -0.301300
     22 C4'         1.9080    0.2190    1.4660 c3        1 3XA     -0.085700
     23 C4A         2.4330    1.4410    5.6800 ca        1 3XA      0.007700
     24 C5'         2.4710   -1.2220    1.5160 c3        1 3XA      0.142800
     25 C5A         2.0340    0.3880    6.4970 ca        1 3XA     -0.297300
     26 C6A         1.2080   -0.6440    5.9500 ca        1 3XA      0.652200
     27 N6A         0.7220   -1.6460    6.7920 nh        1 3XA     -0.932500
     28 C7A         0.7620    0.4380    2.4340 c3        1 3XA     -0.109700
     29 C8A         3.2720    2.5370    6.2180 c3        1 3XA     -0.066800
     30 H2         -0.0860    2.2150   -1.3130 h1        1 3XA      0.073700
     31 H2A        -0.0710    0.5880   -2.1620 h1        1 3XA      0.073700
     32 H3         -2.2530   -0.0470   -1.2360 hx        1 3XA      0.112200
     33 H3A        -2.4130    1.6060   -2.0300 hx        1 3XA      0.112200
     34 HN4        -1.9520    1.1590    0.8920 hn        1 3XA      0.471300
     35 H5         -4.0850    0.1990    0.4110 hx        1 3XA      0.130200
     36 H5A        -4.4910    1.6680   -0.6240 hx        1 3XA      0.130200
     37 HN1'        1.5810   -2.5620    0.2600 hn        1 3XA      0.357800
     38 H12        -5.5630   -0.2250    2.6650 ha        1 3XA      0.162000
     39 H14        -9.7410    0.6090    1.8330 ha        1 3XA      0.174000
     40 H15        -9.0920    2.7950    0.7980 ha        1 3XA      0.164000
     41 H16        -6.6950    3.4700    0.6850 ha        1 3XA      0.154000
     42 H2'         1.1880   -1.1890   -1.4820 h1        1 3XA      0.061200
     43 H2'A        2.9060   -0.5990   -1.3310 h1        1 3XA      0.061200
     44 H3'         1.9610    1.3600   -0.4360 h1        1 3XA      0.062700
     45 H3AA        2.3150    2.2750    3.6740 ha        1 3XA      0.137000
     46 H4'         2.7320    0.9430    1.7080 hc        1 3XA      0.078700
     47 H5'         3.5760   -1.1810    1.7270 h1        1 3XA      0.073200
     48 H5'A        1.9830   -1.8150    2.3350 h1        1 3XA      0.073200
     49 H5AA        2.3430    0.3530    7.5510 ha        1 3XA      0.151000
     50 HN6A        1.2860   -1.8300    7.5900 hn        1 3XA      0.414800
     51 HN6B        0.3280   -2.4510    6.3600 hn        1 3XA      0.414800
     52 H7A         0.3100    1.4480    2.2430 hc        1 3XA      0.043700
     53 H7AA       -0.0360   -0.3290    2.2420 hc        1 3XA      0.043700
     54 H8A         3.9000    2.1810    7.0720 hc        1 3XA      0.055367
     55 H8AA        2.6180    3.3670    6.5870 hc        1 3XA      0.055367
     56 H8AB        3.9470    2.9470    5.4270 hc        1 3XA      0.055367
     57 H42        -2.3260    2.6000    0.1470 hn        1 3XA      0.471300
@<TRIPOS>BOND
     1    1    2 1   
     2    1   20 1   
     3    2    3 1   
     4    2   30 1   
     5    2   31 1   
     6    3    4 1   
     7    3   32 1   
     8    3   33 1   
     9    4    5 1   
    10    4   34 1   
    11    4   57 1   
    12    5    6 1   
    13    5   35 1   
    14    5   36 1   
    15    6    7 1   
    16    6    8 1   
    17    6   10 1   
    18    9   18 1   
    19    9   24 1   
    20    9   37 1   
    21   10   11 ar  
    22   10   16 ar  
    23   11   12 ar  
    24   11   38 1   
    25   12   13 1   
    26   12   14 ar  
    27   14   15 ar  
    28   14   39 1   
    29   15   16 ar  
    30   15   40 1   
    31   16   41 1   
    32   17   19 ar  
    33   17   26 ar  
    34   18   20 1   
    35   18   42 1   
    36   18   43 1   
    37   19   21 ar  
    38   19   28 1   
    39   20   22 1   
    40   20   44 1   
    41   21   23 ar  
    42   21   45 1   
    43   22   24 1   
    44   22   28 1   
    45   22   46 1   
    46   23   25 ar  
    47   23   29 1   
    48   24   47 1   
    49   24   48 1   
    50   25   26 ar  
    51   25   49 1   
    52   26   27 1   
    53   27   50 1   
    54   27   51 1   
    55   28   52 1   
    56   28   53 1   
    57   29   54 1   
    58   29   55 1   
    59   29   56 1   
@<TRIPOS>SUBSTRUCTURE
     1 3XA         1 TEMP              0 ****  ****    0 ROOT
