@<TRIPOS>MOLECULE
3XA
   56    58     1     0     0
SMALL
bcc


@<TRIPOS>ATOM
      1 O1          1.3580   -2.8750    0.1530 os        1 3XA     -0.434600
      2 C2          0.5440   -3.8870   -0.4350 c3        1 3XA      0.121400
      3 C3         -0.9090   -3.4340   -0.2490 c3        1 3XA      0.164800
      4 N4         -1.2290   -2.2400   -1.0080 n3        1 3XA     -0.817200
      5 C5         -2.3960   -1.5460   -0.5170 c3        1 3XA      0.131800
      6 C6         -2.4950   -0.0640   -1.0290 c3        1 3XA      0.455900
      7 F7         -1.3590    0.6580   -0.7010 f         1 3XA     -0.233800
      8 F8         -2.4760    0.0140   -2.4070 f         1 3XA     -0.233800
      9 N1'         4.1860   -3.1110    1.8120 n3        1 3XA     -0.792200
     10 C11        -3.7610    0.5380   -0.4290 ca        1 3XA     -0.130300
     11 C12        -3.7100    1.1180    0.8390 ca        1 3XA     -0.139000
     12 C13        -4.8890    1.6370    1.4030 ca        1 3XA      0.124900
     13 F13        -4.8520    2.2010    2.6340 f         1 3XA     -0.135900
     14 C14        -6.1050    1.5730    0.6960 ca        1 3XA     -0.150000
     15 C15        -6.1290    0.9940   -0.5690 ca        1 3XA     -0.107000
     16 C16        -4.9640    0.4770   -1.1350 ca        1 3XA     -0.113000
     17 N1A         4.2820    1.1390    0.1580 nb        1 3XA     -0.733000
     18 C2'         3.4500   -3.9240    0.8530 c3        1 3XA      0.120800
     19 C2A         2.9710    0.8970   -0.0460 ca        1 3XA      0.449600
     20 C3'         2.7420   -2.9930   -0.1650 c3        1 3XA      0.110100
     21 C3A         2.0500    1.8990   -0.4240 ca        1 3XA     -0.294300
     22 C4'         3.4170   -1.6120    0.0110 c3        1 3XA     -0.071700
     23 C4A         2.5080    3.2080   -0.6030 ca        1 3XA     -0.004300
     24 C5'         4.3410   -1.7740    1.2410 c3        1 3XA      0.151800
     25 C5A         3.8610    3.4830   -0.4060 ca        1 3XA     -0.304300
     26 C6A         4.7350    2.4190   -0.0370 ca        1 3XA      0.629200
     27 N6A         6.1150    2.6720    0.0590 nh        1 3XA     -0.922500
     28 C7A         2.4180   -0.4860    0.1610 c3        1 3XA     -0.115700
     29 C8A         1.5730    4.2810   -1.0100 c3        1 3XA     -0.060800
     30 H2          0.7960   -4.0170   -1.5200 h1        1 3XA      0.040700
     31 H2A         0.7070   -4.8570    0.1050 h1        1 3XA      0.040700
     32 H3         -1.5810   -4.2600   -0.6160 h1        1 3XA      0.042700
     33 H3A        -1.0930   -3.3020    0.8580 h1        1 3XA      0.042700
     34 HN4        -0.4360   -1.6210   -1.0390 hn        1 3XA      0.379800
     35 H5         -3.3070   -2.0890   -0.8910 h1        1 3XA      0.057200
     36 H5A        -2.4460   -1.4920    0.6100 h1        1 3XA      0.057200
     37 HN1'        3.6780   -3.0590    2.6760 hn        1 3XA      0.347800
     38 H12        -2.7590    1.1810    1.3900 ha        1 3XA      0.161000
     39 H14        -7.0190    1.9830    1.1490 ha        1 3XA      0.153000
     40 H15        -7.0760    0.9460   -1.1280 ha        1 3XA      0.145000
     41 H16        -4.9850    0.0280   -2.1410 ha        1 3XA      0.154000
     42 H2'         4.1950   -4.5670    0.3090 h1        1 3XA      0.053700
     43 H2'A        2.7040   -4.5920    1.3580 h1        1 3XA      0.053700
     44 H3'         2.8700   -3.3700   -1.2130 h1        1 3XA      0.052700
     45 H3AA        0.9900    1.6470   -0.5740 ha        1 3XA      0.151000
     46 H4'         4.0510   -1.4230   -0.8960 hc        1 3XA      0.072700
     47 H5'         4.1330   -0.9800    2.0060 h1        1 3XA      0.057700
     48 H5'A        5.4120   -1.6670    0.9180 h1        1 3XA      0.057700
     49 H5AA        4.2470    4.5010   -0.5460 ha        1 3XA      0.140000
     50 HN6A        6.6560    1.9580    0.4970 hn        1 3XA      0.398300
     51 HN6B        6.3250    3.5880    0.3870 hn        1 3XA      0.398300
     52 H7A         1.9530   -0.5270    1.1840 hc        1 3XA      0.063200
     53 H7AA        1.5890   -0.6380   -0.5840 hc        1 3XA      0.063200
     54 H8A         0.5570    4.1110   -0.5740 hc        1 3XA      0.049700
     55 H8AA        1.9400    5.2830   -0.6780 hc        1 3XA      0.049700
     56 H8AB        1.4760    4.2940   -2.1260 hc        1 3XA      0.049700
@<TRIPOS>BOND
     1    1    2 1   
     2    1   20 1   
     3    2    3 1   
     4    2   30 1   
     5    2   31 1   
     6    3    4 1   
     7    3   32 1   
     8    3   33 1   
     9    4    5 1   
    10    4   34 1   
    11    5    6 1   
    12    5   35 1   
    13    5   36 1   
    14    6    7 1   
    15    6    8 1   
    16    6   10 1   
    17    9   18 1   
    18    9   24 1   
    19    9   37 1   
    20   10   11 ar  
    21   10   16 ar  
    22   11   12 ar  
    23   11   38 1   
    24   12   13 1   
    25   12   14 ar  
    26   14   15 ar  
    27   14   39 1   
    28   15   16 ar  
    29   15   40 1   
    30   16   41 1   
    31   17   19 ar  
    32   17   26 ar  
    33   18   20 1   
    34   18   42 1   
    35   18   43 1   
    36   19   21 ar  
    37   19   28 1   
    38   20   22 1   
    39   20   44 1   
    40   21   23 ar  
    41   21   45 1   
    42   22   24 1   
    43   22   28 1   
    44   22   46 1   
    45   23   25 ar  
    46   23   29 1   
    47   24   47 1   
    48   24   48 1   
    49   25   26 ar  
    50   25   49 1   
    51   26   27 1   
    52   27   50 1   
    53   27   51 1   
    54   28   52 1   
    55   28   53 1   
    56   29   54 1   
    57   29   55 1   
    58   29   56 1   
@<TRIPOS>SUBSTRUCTURE
     1 3XA         1 TEMP              0 ****  ****    0 ROOT
