@<TRIPOS>MOLECULE
3XA
   57    59     1     0     0
SMALL
bcc


@<TRIPOS>ATOM
      1 O1          0.4650    1.8250    0.0810 os        1 3XA     -0.425600
      2 C2         -0.1310    2.0720   -1.1740 c3        1 3XA      0.115400
      3 C3         -1.6140    1.6350   -1.2170 c3        1 3XA      0.076800
      4 N4         -2.1430    1.1640    0.0890 ny        1 3XA     -0.788000
      5 C5         -3.6140    1.0190    0.0800 c3        1 3XA      0.046800
      6 C6         -4.1700    0.4980    1.4630 c3        1 3XA      0.470900
      7 F7         -3.5380   -0.6780    1.8170 f         1 3XA     -0.219300
      8 F8         -3.7770    1.3450    2.4790 f         1 3XA     -0.219300
      9 N1'        -0.4410   -1.0220    0.6870 n7        1 3XA     -0.859200
     10 C11        -5.6730    0.3650    1.3120 ca        1 3XA     -0.159300
     11 C12        -6.1900   -0.7800    0.7030 ca        1 3XA     -0.144000
     12 C13        -7.5820   -0.8990    0.5440 ca        1 3XA      0.141900
     13 F13        -8.0950   -2.0000   -0.0490 f         1 3XA     -0.117900
     14 C14        -8.4400    0.1220    1.0000 ca        1 3XA     -0.125000
     15 C15        -7.8990    1.2470    1.6130 ca        1 3XA     -0.096000
     16 C16        -6.5180    1.3760    1.7720 ca        1 3XA     -0.106000
     17 N1A         0.9830    0.4100    4.7270 nb        1 3XA     -0.758000
     18 C2'         0.5260   -0.6330   -0.3410 c3        1 3XA      0.095800
     19 C2A         1.7110    1.2980    4.0100 ca        1 3XA      0.430600
     20 C3'         1.2350    0.6240    0.2140 c3        1 3XA      0.120100
     21 C3A         2.8210    1.9860    4.5220 ca        1 3XA     -0.289300
     22 C4'         1.3110    0.3270    1.7340 c3        1 3XA     -0.064700
     23 C4A         3.2130    1.7480    5.8490 ca        1 3XA      0.006700
     24 C5'         0.1140   -0.6210    1.9890 c3        1 3XA      0.138800
     25 C5A         2.4920    0.8330    6.6090 ca        1 3XA     -0.293300
     26 C6A         1.3760    0.1620    6.0160 ca        1 3XA      0.649200
     27 N6A         0.7130   -0.8300    6.7460 nv        1 3XA     -0.932500
     28 C7A         1.2900    1.5740    2.5900 c3        1 3XA     -0.108700
     29 C8A         4.3710    2.4710    6.4230 c3        1 3XA     -0.067800
     30 H2         -0.0780    3.1920   -1.2900 h1        1 3XA      0.086200
     31 H2A         0.4230    1.5840   -2.0170 h1        1 3XA      0.086200
     32 H3         -1.7480    0.7980   -1.9600 hx        1 3XA      0.094700
     33 H3A        -2.2340    2.5110   -1.5620 hx        1 3XA      0.094700
     34 HN4        -1.8630    1.8290    0.8220 hn        1 3XA      0.487300
     35 H5         -3.9090    0.2780   -0.7140 hx        1 3XA      0.119700
     36 H5A        -4.0960    2.0140   -0.1350 hx        1 3XA      0.119700
     37 HN1'       -0.6530   -1.9990    0.6540 hn        1 3XA      0.395800
     38 H12        -5.5290   -1.5950    0.3700 ha        1 3XA      0.159000
     39 H14        -9.5290    0.0130    0.8740 ha        1 3XA      0.172000
     40 H15        -8.5660    2.0430    1.9810 ha        1 3XA      0.162000
     41 H16        -6.1000    2.2620    2.2760 ha        1 3XA      0.155000
     42 H2'        -0.0130   -0.4440   -1.3050 h1        1 3XA      0.061200
     43 H2'A        1.3030   -1.4240   -0.5350 h1        1 3XA      0.061200
     44 H3'         2.2340    0.7890   -0.2600 h1        1 3XA      0.086700
     45 H3AA        3.3770    2.7020    3.9020 ha        1 3XA      0.145000
     46 H4'         2.2690   -0.2310    1.9190 hc        1 3XA      0.087700
     47 H5'        -0.7020   -0.1010    2.5610 h1        1 3XA      0.076700
     48 H5'A        0.4490   -1.5030    2.5990 h1        1 3XA      0.076700
     49 H5AA        2.7810    0.6200    7.6470 ha        1 3XA      0.151000
     50 HN6A       -0.1790   -1.1170    6.4120 hn        1 3XA      0.411800
     51 HN6B        0.7760   -0.7280    7.7330 hn        1 3XA      0.411800
     52 H7A         1.9890    2.3300    2.1400 hc        1 3XA      0.059700
     53 H7AA        0.2630    2.0290    2.5840 hc        1 3XA      0.059700
     54 H8A         4.6890    2.0240    7.3970 hc        1 3XA      0.056700
     55 H8AA        5.2390    2.4380    5.7180 hc        1 3XA      0.056700
     56 H8AB        4.1020    3.5430    6.5970 hc        1 3XA      0.056700
     57 H42        -1.6850    0.2270    0.3420 hn        1 3XA      0.487300
@<TRIPOS>BOND
     1    1    2 1   
     2    1   20 1   
     3    2    3 1   
     4    2   30 1   
     5    2   31 1   
     6    3    4 1   
     7    3   32 1   
     8    3   33 1   
     9    4    5 1   
    10    4   34 1   
    11    4   57 1   
    12    5    6 1   
    13    5   35 1   
    14    5   36 1   
    15    6    7 1   
    16    6    8 1   
    17    6   10 1   
    18    9   18 1   
    19    9   24 1   
    20    9   37 1   
    21   10   11 ar  
    22   10   16 ar  
    23   11   12 ar  
    24   11   38 1   
    25   12   13 1   
    26   12   14 ar  
    27   14   15 ar  
    28   14   39 1   
    29   15   16 ar  
    30   15   40 1   
    31   16   41 1   
    32   17   19 ar  
    33   17   26 ar  
    34   18   20 1   
    35   18   42 1   
    36   18   43 1   
    37   19   21 ar  
    38   19   28 1   
    39   20   22 1   
    40   20   44 1   
    41   21   23 ar  
    42   21   45 1   
    43   22   24 1   
    44   22   28 1   
    45   22   46 1   
    46   23   25 ar  
    47   23   29 1   
    48   24   47 1   
    49   24   48 1   
    50   25   26 ar  
    51   25   49 1   
    52   26   27 1   
    53   27   50 1   
    54   27   51 1   
    55   28   52 1   
    56   28   53 1   
    57   29   54 1   
    58   29   55 1   
    59   29   56 1   
@<TRIPOS>SUBSTRUCTURE
     1 3XA         1 TEMP              0 ****  ****    0 ROOT
