@<TRIPOS>MOLECULE
3XB
   57    59     1     0     0
SMALL
bcc


@<TRIPOS>ATOM
      1 C1          0.3940   -1.4520    0.4000 c3        1 3XB      0.108400
      2 O1          1.7440   -1.4450    0.8170 os        1 3XB     -0.432600
      3 C2          0.2140   -0.6520   -0.9010 c3        1 3XB      0.067800
      4 N2          1.3310   -0.8790   -1.8580 n4        1 3XB     -0.783000
      5 C3          0.9940   -0.5400   -3.2570 c3        1 3XB      0.049800
      6 C4          0.2880   -1.7080   -4.0490 c3        1 3XB      0.464900
      7 F5          1.0030   -2.8810   -3.9030 f         1 3XB     -0.223800
      8 F6         -0.9130   -2.0400   -3.4550 f         1 3XB     -0.223800
      9 N1'         2.8290   -1.3020    3.8560 n3        1 3XB     -0.788200
     10 C11         0.1570   -1.2510   -5.4890 ca        1 3XB     -0.155300
     11 C12         1.2810   -1.3060   -6.3160 ca        1 3XB     -0.143000
     12 C13         1.1710   -0.8700   -7.6480 ca        1 3XB      0.141900
     13 F13         2.2540   -0.9120   -8.4560 f         1 3XB     -0.118900
     14 C14        -0.0600   -0.3920   -8.1410 ca        1 3XB     -0.126000
     15 C15        -1.1670   -0.3570   -7.2990 ca        1 3XB     -0.097000
     16 C16        -1.0670   -0.7850   -5.9740 ca        1 3XB     -0.106000
     17 N1A         3.5700    0.7510   -1.2020 nb        1 3XB     -0.818000
     18 C2'         1.6750   -0.7520    3.1610 c3        1 3XB      0.128800
     19 C2A         4.6120    0.3210   -0.4510 ca        1 3XB      0.455600
     20 C3'         2.0900   -0.3810    1.7140 c3        1 3XB      0.107100
     21 C3A         5.9070    0.8560   -0.5730 ca        1 3XB     -0.263300
     22 C4'         3.6270   -0.2630    1.7750 c3        1 3XB     -0.077700
     23 C4A         6.1450    1.8740   -1.5070 ca        1 3XB      0.025700
     24 C5'         4.0240   -1.0220    3.0670 c3        1 3XB      0.150800
     25 C5A         5.0790    2.3410   -2.2760 ca        1 3XB     -0.282300
     26 C6A         3.7910    1.7620   -2.0990 ca        1 3XB      0.615200
     27 N6A         2.7120    2.1740   -2.9190 nh        1 3XB     -0.932500
     28 C7A         4.3820   -0.7700    0.5630 c3        1 3XB     -0.129700
     29 C8A         7.4990    2.4520   -1.6540 c3        1 3XB     -0.076800
     30 H1          0.1550   -2.5380    0.2280 h1        1 3XB      0.088200
     31 H1A        -0.2990   -1.0300    1.1730 h1        1 3XB      0.088200
     32 H2         -0.7590   -0.9610   -1.3810 hx        1 3XB      0.102200
     33 H2A         0.1790    0.4510   -0.6790 hx        1 3XB      0.102200
     34 HN2         2.1650   -0.2930   -1.5340 hn        1 3XB      0.486300
     35 H3          0.3180    0.3590   -3.2770 hx        1 3XB      0.128200
     36 H3A         1.9510   -0.2950   -3.8050 hx        1 3XB      0.128200
     37 HN1'        2.7230   -2.2890    3.9990 hn        1 3XB      0.367800
     38 H12         2.2380   -1.7050   -5.9470 ha        1 3XB      0.159000
     39 H14        -0.1340   -0.0590   -9.1890 ha        1 3XB      0.171000
     40 H15        -2.1340    0.0040   -7.6840 ha        1 3XB      0.161000
     41 H16        -1.9540   -0.7720   -5.3210 ha        1 3XB      0.154000
     42 H2'         1.3650    0.1830    3.7030 h1        1 3XB      0.063700
     43 H2'A        0.8090   -1.4650    3.1540 h1        1 3XB      0.063700
     44 H3'         1.6120    0.5720    1.3710 h1        1 3XB      0.051700
     45 H3AA        6.7260    0.4790    0.0570 ha        1 3XB      0.164000
     46 H4'         3.8610    0.8270    1.9250 hc        1 3XB      0.075700
     47 H5'         4.5850   -1.9640    2.8170 h1        1 3XB      0.059200
     48 H5'A        4.6980   -0.3740    3.6910 h1        1 3XB      0.059200
     49 H5A         5.2360    3.1430   -3.0110 ha        1 3XB      0.161000
     50 HN6A        2.9420    2.9800   -3.4640 hn        1 3XB      0.396300
     51 HN6B        1.8510    2.2960   -2.4260 hn        1 3XB      0.396300
     52 H7A         5.3870   -1.1550    0.8910 hc        1 3XB      0.072700
     53 H7AA        3.8420   -1.6340    0.0910 hc        1 3XB      0.072700
     54 H8A         7.7090    3.1460   -0.8000 hc        1 3XB      0.067700
     55 H8AA        7.5960    3.0280   -2.6080 hc        1 3XB      0.067700
     56 H8AB        8.2740    1.6450   -1.6460 hc        1 3XB      0.067700
     57 H22         1.6130   -1.8660   -1.8080 hn        1 3XB      0.486300
@<TRIPOS>BOND
     1    1    2 1   
     2    1    3 1   
     3    1   30 1   
     4    1   31 1   
     5    2   20 1   
     6    3    4 1   
     7    3   32 1   
     8    3   33 1   
     9    4    5 1   
    10    4   34 1   
    11    4   57 1   
    12    5    6 1   
    13    5   35 1   
    14    5   36 1   
    15    6    7 1   
    16    6    8 1   
    17    6   10 1   
    18    9   18 1   
    19    9   24 1   
    20    9   37 1   
    21   10   11 ar  
    22   10   16 ar  
    23   11   12 ar  
    24   11   38 1   
    25   12   13 1   
    26   12   14 ar  
    27   14   15 ar  
    28   14   39 1   
    29   15   16 ar  
    30   15   40 1   
    31   16   41 1   
    32   17   19 ar  
    33   17   26 ar  
    34   18   20 1   
    35   18   42 1   
    36   18   43 1   
    37   19   21 ar  
    38   19   28 1   
    39   20   22 1   
    40   20   44 1   
    41   21   23 ar  
    42   21   45 1   
    43   22   24 1   
    44   22   28 1   
    45   22   46 1   
    46   23   25 ar  
    47   23   29 1   
    48   24   47 1   
    49   24   48 1   
    50   25   26 ar  
    51   25   49 1   
    52   26   27 1   
    53   27   50 1   
    54   27   51 1   
    55   28   52 1   
    56   28   53 1   
    57   29   54 1   
    58   29   55 1   
    59   29   56 1   
@<TRIPOS>SUBSTRUCTURE
     1 3XB         1 TEMP              0 ****  ****    0 ROOT
