@<TRIPOS>MOLECULE
3XB
   57    59     1     0     0
SMALL
bcc


@<TRIPOS>ATOM
      1 C1          0.3680   -1.3960    0.4070 c3        1 3XB      0.108400
      2 O1          1.7200   -1.4250    0.8190 os        1 3XB     -0.432600
      3 C2          0.2050   -0.5920   -0.8940 c3        1 3XB      0.067800
      4 N2          1.3120   -0.8500   -1.8550 ny        1 3XB     -0.783000
      5 C3          0.9790   -0.5030   -3.2530 c3        1 3XB      0.049800
      6 C4          0.2400   -1.6520   -4.0410 c3        1 3XB      0.464900
      7 F5          0.9240   -2.8450   -3.8970 f         1 3XB     -0.223800
      8 F6         -0.9670   -1.9530   -3.4420 f         1 3XB     -0.223800
      9 N1'         2.8180   -1.3120    3.8550 n7        1 3XB     -0.788200
     10 C11         0.1150   -1.1940   -5.4810 ca        1 3XB     -0.155300
     11 C12         1.2350   -1.2770   -6.3110 ca        1 3XB     -0.143000
     12 C13         1.1320   -0.8390   -7.6440 ca        1 3XB      0.141900
     13 F13         2.2100   -0.9080   -8.4550 f         1 3XB     -0.118900
     14 C14        -0.0890   -0.3300   -8.1330 ca        1 3XB     -0.126000
     15 C15        -1.1910   -0.2670   -7.2870 ca        1 3XB     -0.097000
     16 C16        -1.0980   -0.6970   -5.9620 ca        1 3XB     -0.106000
     17 N1A         3.5950    0.7210   -1.2080 nb        1 3XB     -0.818000
     18 C2'         1.6770   -0.7310    3.1640 c3        1 3XB      0.128800
     19 C2A         4.6280    0.2660   -0.4580 ca        1 3XB      0.455600
     20 C3'         2.0960   -0.3710    1.7150 c3        1 3XB      0.107100
     21 C3A         5.9340    0.7720   -0.5800 ca        1 3XB     -0.263300
     22 C4'         3.6350   -0.2930    1.7720 c3        1 3XB     -0.077700
     23 C4A         6.1960    1.7840   -1.5140 ca        1 3XB      0.025700
     24 C5'         4.0180   -1.0630    3.0620 c3        1 3XB      0.150800
     25 C5A         5.1400    2.2760   -2.2820 ca        1 3XB     -0.282300
     26 C6A         3.8390    1.7270   -2.1050 ca        1 3XB      0.615200
     27 N6A         2.7690    2.1640   -2.9240 nv        1 3XB     -0.932500
     28 C7A         4.3730   -0.8190    0.5570 c3        1 3XB     -0.129700
     29 C8A         7.5670    2.3160   -1.6770 c3        1 3XB     -0.076800
     30 H1          0.0990   -2.4760    0.2370 h1        1 3XB      0.088200
     31 H1A        -0.3110   -0.9550    1.1830 h1        1 3XB      0.088200
     32 H2         -0.7780   -0.8750   -1.3700 hx        1 3XB      0.102200
     33 H2A         0.2010    0.5110   -0.6720 hx        1 3XB      0.102200
     34 HN2         1.5680   -1.8450   -1.8040 hn        1 3XB      0.486800
     35 H3          1.9400   -0.2840   -3.8040 hx        1 3XB      0.128200
     36 H3A         0.3270    0.4130   -3.2710 hx        1 3XB      0.128200
     37 HN1'        2.6870   -2.2960    3.9970 hn        1 3XB      0.367800
     38 H12         2.1830   -1.7000   -5.9460 ha        1 3XB      0.159000
     39 H14        -0.1580    0.0040   -9.1800 ha        1 3XB      0.171000
     40 H15        -2.1510    0.1190   -7.6680 ha        1 3XB      0.161000
     41 H16        -1.9820   -0.6610   -5.3060 ha        1 3XB      0.154000
     42 H2'         0.7920   -1.4210    3.1600 h1        1 3XB      0.063700
     43 H2'A        1.3930    0.2120    3.7070 h1        1 3XB      0.063700
     44 H3'         1.6420    0.5940    1.3750 h1        1 3XB      0.051700
     45 H3AA        6.7440    0.3780    0.0510 ha        1 3XB      0.164000
     46 H4'         3.8990    0.7910    1.9210 hc        1 3XB      0.075700
     47 H5'         4.5530   -2.0180    2.8090 h1        1 3XB      0.059200
     48 H5'A        4.7100   -0.4320    3.6840 h1        1 3XB      0.059200
     49 H5A         5.3140    3.0770   -3.0160 ha        1 3XB      0.161000
     50 HN6A        3.0180    2.9650   -3.4690 hn        1 3XB      0.396300
     51 HN6B        1.9130    2.3070   -2.4300 hn        1 3XB      0.396300
     52 H7A         3.8090   -1.6680    0.0860 hc        1 3XB      0.072700
     53 H7AA        5.3690   -1.2290    0.8800 hc        1 3XB      0.072700
     54 H8A         8.1940    1.5770   -2.2390 hc        1 3XB      0.067700
     55 H8AA        8.0420    2.4890   -0.6790 hc        1 3XB      0.067700
     56 H8AB        7.5670    3.2800   -2.2420 hc        1 3XB      0.067700
     57 H22         2.1630   -0.2860   -1.5340 hn        1 3XB      0.486800
@<TRIPOS>BOND
     1    1    2 1   
     2    1    3 1   
     3    1   30 1   
     4    1   31 1   
     5    2   20 1   
     6    3    4 1   
     7    3   32 1   
     8    3   33 1   
     9    4    5 1   
    10    4   34 1   
    11    4   57 1   
    12    5    6 1   
    13    5   35 1   
    14    5   36 1   
    15    6    7 1   
    16    6    8 1   
    17    6   10 1   
    18    9   18 1   
    19    9   24 1   
    20    9   37 1   
    21   10   11 ar  
    22   10   16 ar  
    23   11   12 ar  
    24   11   38 1   
    25   12   13 1   
    26   12   14 ar  
    27   14   15 ar  
    28   14   39 1   
    29   15   16 ar  
    30   15   40 1   
    31   16   41 1   
    32   17   19 ar  
    33   17   26 ar  
    34   18   20 1   
    35   18   42 1   
    36   18   43 1   
    37   19   21 ar  
    38   19   28 1   
    39   20   22 1   
    40   20   44 1   
    41   21   23 ar  
    42   21   45 1   
    43   22   24 1   
    44   22   28 1   
    45   22   46 1   
    46   23   25 ar  
    47   23   29 1   
    48   24   47 1   
    49   24   48 1   
    50   25   26 ar  
    51   25   49 1   
    52   26   27 1   
    53   27   50 1   
    54   27   51 1   
    55   28   52 1   
    56   28   53 1   
    57   29   54 1   
    58   29   55 1   
    59   29   56 1   
@<TRIPOS>SUBSTRUCTURE
     1 3XB         1 TEMP              0 ****  ****    0 ROOT
