@<TRIPOS>MOLECULE
3XB
   58    60     1     0     0
SMALL
bcc


@<TRIPOS>ATOM
      1 C1         -0.0370    0.2050   -0.0520 c3        1 3XB      0.102400
      2 O1          1.3870    0.1400   -0.1020 os        1 3XB     -0.460600
      3 C2         -0.5470    0.0450   -1.4860 c3        1 3XB      0.102800
      4 N2         -0.1420   -1.2580   -2.0890 n4        1 3XB     -0.755000
      5 C3         -0.6470   -1.4260   -3.4770 c3        1 3XB      0.030800
      6 C4         -0.0960   -2.7500   -4.1480 c3        1 3XB      0.477900
      7 F5          1.2850   -2.7460   -4.1020 f         1 3XB     -0.221300
      8 F6         -0.3980   -3.8350   -3.3500 f         1 3XB     -0.221300
      9 N1'         3.4940   -1.7960    1.5340 n3        1 3XB     -0.784200
     10 C11        -0.6740   -2.8100   -5.5440 ca        1 3XB     -0.168300
     11 C12        -0.1090   -2.0060   -6.5370 ca        1 3XB     -0.151000
     12 C13        -0.6440   -2.0480   -7.8370 ca        1 3XB      0.146900
     13 F13        -0.1110   -1.2690   -8.8030 f         1 3XB     -0.112900
     14 C14        -1.7320   -2.8980   -8.1300 ca        1 3XB     -0.114000
     15 C15        -2.2670   -3.6960   -7.1250 ca        1 3XB     -0.091000
     16 C16        -1.7440   -3.6590   -5.8300 ca        1 3XB     -0.099000
     17 N1A         5.2850    3.1160    0.8240 nb        1 3XB     -0.668000
     18 C2'         2.1110   -1.3730    1.6790 c3        1 3XB      0.128800
     19 C2A         5.1040    2.0730   -0.0130 ca        1 3XB      0.455600
     20 C3'         1.9750    0.0990    1.2080 c3        1 3XB      0.113100
     21 C3A         6.1490    1.5690   -0.8300 ca        1 3XB     -0.203300
     22 C4'         3.4220    0.6350    1.1570 c3        1 3XB     -0.088700
     23 C4A         7.4150    2.1550   -0.7830 ca        1 3XB      0.011700
     24 C5'         4.3210   -0.6140    1.3280 c3        1 3XB      0.147800
     25 C5A         7.6220    3.2450    0.0850 ca        1 3XB     -0.206300
     26 C6A         6.5290    3.6740    0.8560 ca        1 3XB      0.454200
     27 N6A         6.7070    4.8140    1.7850 n4        1 3XB     -0.819300
     28 C7A         3.7430    1.4290   -0.0910 c3        1 3XB     -0.118700
     29 C8A         8.5320    1.6510   -1.6110 c3        1 3XB     -0.085800
     30 H1         -0.3620    1.2130    0.3250 h1        1 3XB      0.080200
     31 H1A        -0.4420   -0.5960    0.6230 h1        1 3XB      0.080200
     32 H2         -0.1280    0.8690   -2.1330 hx        1 3XB      0.118700
     33 H2A        -1.6730    0.1090   -1.4860 hx        1 3XB      0.118700
     34 HN2        -0.4910   -2.0340   -1.5100 hn        1 3XB      0.465300
     35 H3         -0.3150   -0.5530   -4.1060 hx        1 3XB      0.133700
     36 H3A        -1.7720   -1.4770   -3.4610 hx        1 3XB      0.133700
     37 HN1'        3.5990   -2.4470    0.7790 hn        1 3XB      0.365800
     38 H12         0.7610   -1.3670   -6.3260 ha        1 3XB      0.152000
     39 H14        -2.1370   -2.9270   -9.1550 ha        1 3XB      0.180000
     40 H15        -3.1090   -4.3720   -7.3540 ha        1 3XB      0.170000
     41 H16        -2.1640   -4.3110   -5.0480 ha        1 3XB      0.158000
     42 H2'         1.4060   -2.0370    1.1130 h1        1 3XB      0.064200
     43 H2'A        1.8520   -1.4330    2.7730 h1        1 3XB      0.064200
     44 H3'         1.3530    0.7030    1.9200 h1        1 3XB      0.075700
     45 H3AA        5.9570    0.7140   -1.4970 ha        1 3XB      0.176000
     46 H4'         3.5530    1.2990    2.0560 hc        1 3XB      0.084700
     47 H5'         4.9610   -0.4940    2.2460 h1        1 3XB      0.058200
     48 H5'A        5.0050   -0.7330    0.4440 h1        1 3XB      0.058200
     49 H5A         8.6140    3.7220    0.1350 ha        1 3XB      0.177000
     50 HN6A        5.9990    5.5370    1.5990 hn        1 3XB      0.474467
     51 HN6B        6.6010    4.4910    2.7560 hn        1 3XB      0.474467
     52 H7A         3.7120    0.7580   -0.9910 hc        1 3XB      0.074200
     53 H7AA        2.9570    2.2200   -0.2360 hc        1 3XB      0.074200
     54 H8A         9.2370    1.0540   -0.9760 hc        1 3XB      0.081367
     55 H8AA        8.1620    0.9930   -2.4360 hc        1 3XB      0.081367
     56 H8AB        9.1060    2.4980   -2.0640 hc        1 3XB      0.081367
     57 H22         0.8890   -1.3130   -2.0910 hn        1 3XB      0.465300
     58 H6A3        7.6440    5.2110    1.6570 hn        1 3XB      0.474467
@<TRIPOS>BOND
     1    1    2 1   
     2    1    3 1   
     3    1   30 1   
     4    1   31 1   
     5    2   20 1   
     6    3    4 1   
     7    3   32 1   
     8    3   33 1   
     9    4    5 1   
    10    4   34 1   
    11    4   57 1   
    12    5    6 1   
    13    5   35 1   
    14    5   36 1   
    15    6    7 1   
    16    6    8 1   
    17    6   10 1   
    18    9   18 1   
    19    9   24 1   
    20    9   37 1   
    21   10   11 ar  
    22   10   16 ar  
    23   11   12 ar  
    24   11   38 1   
    25   12   13 1   
    26   12   14 ar  
    27   14   15 ar  
    28   14   39 1   
    29   15   16 ar  
    30   15   40 1   
    31   16   41 1   
    32   17   19 ar  
    33   17   26 ar  
    34   18   20 1   
    35   18   42 1   
    36   18   43 1   
    37   19   21 ar  
    38   19   28 1   
    39   20   22 1   
    40   20   44 1   
    41   21   23 ar  
    42   21   45 1   
    43   22   24 1   
    44   22   28 1   
    45   22   46 1   
    46   23   25 ar  
    47   23   29 1   
    48   24   47 1   
    49   24   48 1   
    50   25   26 ar  
    51   25   49 1   
    52   26   27 1   
    53   27   50 1   
    54   27   51 1   
    55   27   58 1   
    56   28   52 1   
    57   28   53 1   
    58   29   54 1   
    59   29   55 1   
    60   29   56 1   
@<TRIPOS>SUBSTRUCTURE
     1 3XB         1 TEMP              0 ****  ****    0 ROOT
