@<TRIPOS>MOLECULE
3XB
   56    58     1     0     0
SMALL
bcc


@<TRIPOS>ATOM
      1 C1         -0.2510   -3.0700   -1.4330 c3        1 3XB      0.123400
      2 O1         -1.1030   -2.1400   -0.7660 os        1 3XB     -0.431600
      3 C2          1.0680   -2.3390   -1.7070 c3        1 3XB      0.166800
      4 N2          1.8180   -2.0620   -0.4980 n3        1 3XB     -0.819200
      5 C3          2.9200   -1.1550   -0.7150 c3        1 3XB      0.132800
      6 C4          3.5490   -0.6190    0.6210 c3        1 3XB      0.457900
      7 F5          2.6000    0.0120    1.4050 f         1 3XB     -0.231800
      8 F6          3.9570   -1.6410    1.4540 f         1 3XB     -0.231800
      9 N1'        -2.7480   -2.6350    2.1000 n3        1 3XB     -0.789200
     10 C11         4.6960    0.3100    0.2350 ca        1 3XB     -0.130300
     11 C12         4.4340    1.6560   -0.0180 ca        1 3XB     -0.138000
     12 C13         5.4890    2.4980   -0.4110 ca        1 3XB      0.123900
     13 F13         5.2460    3.8070   -0.6620 f         1 3XB     -0.135900
     14 C14         6.7950    1.9890   -0.5430 ca        1 3XB     -0.150000
     15 C15         7.0330    0.6440   -0.2790 ca        1 3XB     -0.107000
     16 C16         5.9910   -0.1980    0.1100 ca        1 3XB     -0.113000
     17 N1A        -4.9800    0.7900   -1.1870 nb        1 3XB     -0.731000
     18 C2'        -2.1170   -3.4290    1.0530 c3        1 3XB      0.115800
     19 C2A        -3.9370    0.8110   -0.3280 ca        1 3XB      0.450600
     20 C3'        -2.3210   -2.7280   -0.3160 c3        1 3XB      0.115100
     21 C3A        -3.7890    1.7800    0.6840 ca        1 3XB     -0.294300
     22 C4'        -3.3590   -1.6130   -0.0580 c3        1 3XB     -0.080700
     23 C4A        -4.7640    2.7760    0.8170 ca        1 3XB     -0.005300
     24 C5'        -3.6630   -1.6970    1.4570 c3        1 3XB      0.140800
     25 C5A        -5.8530    2.7750   -0.0510 ca        1 3XB     -0.302300
     26 C6A        -5.9450    1.7530   -1.0440 ca        1 3XB      0.631200
     27 N6A        -7.0930    1.6890   -1.8510 nh        1 3XB     -0.923500
     28 C7A        -2.8690   -0.2410   -0.4740 c3        1 3XB     -0.116700
     29 C8A        -4.6430    3.8060    1.8750 c3        1 3XB     -0.061800
     30 H1         -0.0950   -3.9800   -0.7970 h1        1 3XB      0.040700
     31 H1A        -0.7180   -3.3700   -2.4080 h1        1 3XB      0.040700
     32 H2          1.7020   -3.0040   -2.3580 h1        1 3XB      0.041700
     33 H2A         0.8330   -1.4010   -2.2920 h1        1 3XB      0.041700
     34 HN2         1.2100   -1.7200    0.2250 hn        1 3XB      0.381800
     35 H3          3.7280   -1.7120   -1.2640 h1        1 3XB      0.055700
     36 H3A         2.6380   -0.2430   -1.3170 h1        1 3XB      0.055700
     37 HN1'       -2.0490   -2.1340    2.6190 hn        1 3XB      0.350800
     38 H12         3.4170    2.0610    0.0960 ha        1 3XB      0.161000
     39 H14         7.6120    2.6590   -0.8500 ha        1 3XB      0.153000
     40 H15         8.0530    0.2420   -0.3760 ha        1 3XB      0.144000
     41 H16         6.1850   -1.2600    0.3280 ha        1 3XB      0.153000
     42 H2'        -1.0240   -3.5880    1.2540 h1        1 3XB      0.057200
     43 H2'A       -2.6250   -4.4310    1.0350 h1        1 3XB      0.057200
     44 H3'        -2.7000   -3.4530   -1.0830 h1        1 3XB      0.050700
     45 H3AA       -2.9210    1.7560    1.3540 ha        1 3XB      0.142000
     46 H4'        -4.2900   -1.8590   -0.6350 hc        1 3XB      0.077700
     47 H5'        -4.7050   -2.0920    1.6070 h1        1 3XB      0.055200
     48 H5'A       -3.6090   -0.6790    1.9290 h1        1 3XB      0.055200
     49 H5A        -6.6350    3.5420    0.0350 ha        1 3XB      0.141000
     50 HN6A       -7.4850    2.5810   -2.0540 hn        1 3XB      0.400300
     51 HN6B       -7.0320    1.0880   -2.6440 hn        1 3XB      0.400300
     52 H7A        -2.5250   -0.2870   -1.5430 hc        1 3XB      0.065200
     53 H7AA       -1.9800    0.0470    0.1470 hc        1 3XB      0.065200
     54 H8A        -3.5740    4.1040    2.0170 hc        1 3XB      0.049700
     55 H8AA       -5.2360    4.7180    1.6220 hc        1 3XB      0.049700
     56 H8AB       -5.0230    3.3970    2.8450 hc        1 3XB      0.049700
@<TRIPOS>BOND
     1    1    2 1   
     2    1    3 1   
     3    1   30 1   
     4    1   31 1   
     5    2   20 1   
     6    3    4 1   
     7    3   32 1   
     8    3   33 1   
     9    4    5 1   
    10    4   34 1   
    11    5    6 1   
    12    5   35 1   
    13    5   36 1   
    14    6    7 1   
    15    6    8 1   
    16    6   10 1   
    17    9   18 1   
    18    9   24 1   
    19    9   37 1   
    20   10   11 ar  
    21   10   16 ar  
    22   11   12 ar  
    23   11   38 1   
    24   12   13 1   
    25   12   14 ar  
    26   14   15 ar  
    27   14   39 1   
    28   15   16 ar  
    29   15   40 1   
    30   16   41 1   
    31   17   19 ar  
    32   17   26 ar  
    33   18   20 1   
    34   18   42 1   
    35   18   43 1   
    36   19   21 ar  
    37   19   28 1   
    38   20   22 1   
    39   20   44 1   
    40   21   23 ar  
    41   21   45 1   
    42   22   24 1   
    43   22   28 1   
    44   22   46 1   
    45   23   25 ar  
    46   23   29 1   
    47   24   47 1   
    48   24   48 1   
    49   25   26 ar  
    50   25   49 1   
    51   26   27 1   
    52   27   50 1   
    53   27   51 1   
    54   28   52 1   
    55   28   53 1   
    56   29   54 1   
    57   29   55 1   
    58   29   56 1   
@<TRIPOS>SUBSTRUCTURE
     1 3XB         1 TEMP              0 ****  ****    0 ROOT
