@<TRIPOS>MOLECULE
3XB
   56    53     1     0     0
SMALL
bcc


@<TRIPOS>ATOM
      1 C1         -1.0690   -1.5160    0.8270 c3        1 3XB     -0.024000
      2 O1          0.3580   -1.7970    0.8560 os        1 3XB     -0.271000
      3 C2         -1.5390   -1.4000   -0.6250 c3        1 3XB     -0.084000
      4 N2         -3.0320   -1.3330   -0.6620 n3        1 3XB     -0.299000
      5 C3         -3.4590   -0.5210   -1.8130 c3        1 3XB     -0.092000
      6 C4         -4.9320   -0.1350   -1.6480 c3        1 3XB      0.259000
      7 F5         -5.6850   -1.2290   -1.6940 f         1 3XB     -0.167500
      8 F6         -5.1040    0.4770   -0.4650 f         1 3XB     -0.167500
      9 N1'         2.2350   -3.8780    2.8540 n3        1 3XB     -0.266000
     10 C11        -5.3410    0.8180   -2.7790 c2        1 3XB     -0.118000
     11 C12        -6.0750    0.3360   -3.8580 c2        1 3XB     -0.139000
     12 C13        -6.5970    1.2200   -4.7910 c1        1 3XB      0.090000
     13 F13        -7.2040    0.7490   -5.8940 f         1 3XB     -0.101000
     14 C14        -6.3860    2.5850   -4.6460 c1        1 3XB     -0.128500
     15 C15        -5.6530    3.0650   -3.5670 c1        1 3XB     -0.128500
     16 C16        -5.1320    2.1840   -2.6370 c1        1 3XB     -0.115000
     17 N1A         3.3720    1.1750    2.3090 n1        1 3XB     -0.207000
     18 C2'         0.8040   -3.2820    2.8710 c3        1 3XB     -0.124000
     19 C2A         3.5880    0.3310    1.2650 c1        1 3XB      0.029000
     20 C3'         0.9360   -1.8080    2.2170 c3        1 3XB      0.006000
     21 C3A         4.6120    0.5920    0.3590 c1        1 3XB     -0.227000
     22 C4'         2.1810   -1.5810    2.1710 c3        1 3XB     -0.118000
     23 C4A         5.4010    1.6970    0.5180 c1        1 3XB      0.001000
     24 C5'         2.9240   -3.0750    2.0800 c3        1 3XB     -0.095000
     25 C5A         5.1830    2.5440    1.5670 c1        1 3XB     -0.237000
     26 C6A         4.1610    2.2830    2.4710 c1        1 3XB      0.110000
     27 N6A         3.9330    3.1690    3.5670 n3        1 3XB     -0.322000
     28 C7A         2.5330   -0.7250    0.8970 c3        1 3XB     -0.099000
     29 C8A         6.5840    2.0100   -0.4060 c3        1 3XB     -0.186000
     30 H1         -1.2450   -0.6770    1.2950 h1        1 3XB      0.074500
     31 H1A        -1.5540   -2.2460    1.2690 h1        1 3XB      0.074500
     32 H2         -1.2370   -2.1780   -1.1250 h1        1 3XB      0.093000
     33 H2A        -1.1620   -0.5830   -1.0290 h1        1 3XB      0.093000
     34 HN2        -3.3410   -0.9490    0.1160 hn        1 3XB      0.172000
     35 H3         -2.9190    0.2800   -1.8600 h1        1 3XB      0.117500
     36 H3A        -3.3490   -1.0350   -2.6320 h1        1 3XB      0.117500
     37 HN1'        2.5920   -3.8580    3.7230 hn        1 3XB      0.141000
     38 H12        -6.2380   -0.6190   -3.9490 ha        1 3XB      0.161000
     39 H14        -6.7450    3.1930   -5.2860 ha        1 3XB      0.148500
     40 H15        -5.5020    4.0420   -3.4640 ha        1 3XB      0.148500
     41 H16        -4.6150    2.5250   -1.8760 ha        1 3XB      0.152000
     42 H2'         0.1880   -3.8480    2.3260 h1        1 3XB      0.095000
     43 H2'A        0.4760   -3.2150    3.7940 h1        1 3XB      0.095000
     44 H3'         0.4910   -1.1470    2.7800 h1        1 3XB      0.083000
     45 H3AA        4.7640   -0.0060   -0.3800 ha        1 3XB      0.144000
     46 H4'         2.4660   -1.1130    2.9800 hc        1 3XB      0.110000
     47 H5'         2.9080   -3.4050    1.1500 h1        1 3XB      0.094000
     48 H5'A        3.8470   -3.0110    2.3980 h1        1 3XB      0.094000
     49 H5A         5.7470    3.3350    1.6830 ha        1 3XB      0.141000
     50 HN6A        3.1330    3.1360    4.0290 hn        1 3XB      0.195000
     51 HN6B        4.5620    3.7970    3.7860 hn        1 3XB      0.195000
     52 H7A         2.8980   -1.3270    0.1800 hc        1 3XB      0.109500
     53 H7AA        1.7280   -0.2810    0.5700 hc        1 3XB      0.109500
     54 H8A         6.4840    1.5060   -1.2540 hc        1 3XB      0.088333
     55 H8AA        6.6040    2.9810   -0.5990 hc        1 3XB      0.088333
     56 H8AB        7.4220    1.7470    0.0340 hc        1 3XB      0.088333
@<TRIPOS>BOND
     1    1    2 1   
     2    1    3 1   
     3    1   30 1   
     4    1   31 1   
     5    2   20 1   
     6    3    4 1   
     7    3   32 1   
     8    3   33 1   
     9    4    5 1   
    10    4   34 1   
    11    5    6 1   
    12    5   35 1   
    13    5   36 1   
    14    6    7 1   
    15    6    8 1   
    16    6   10 1   
    17    9   18 1   
    18    9   24 1   
    19    9   37 1   
    20   10   11 1   
    21   10   16 1   
    22   11   12 1   
    23   11   38 1   
    24   12   13 1   
    25   14   15 1   
    26   14   39 1   
    27   15   40 1   
    28   16   41 1   
    29   17   26 1   
    30   18   20 1   
    31   18   42 1   
    32   18   43 1   
    33   19   21 1   
    34   19   28 1   
    35   20   22 1   
    36   20   44 1   
    37   21   45 1   
    38   22   24 1   
    39   22   28 1   
    40   22   46 1   
    41   23   25 1   
    42   23   29 1   
    43   24   47 1   
    44   24   48 1   
    45   25   49 1   
    46   26   27 1   
    47   27   50 1   
    48   27   51 1   
    49   28   52 1   
    50   28   53 1   
    51   29   54 1   
    52   29   55 1   
    53   29   56 1   
@<TRIPOS>SUBSTRUCTURE
     1 3XB         1 TEMP              0 ****  ****    0 ROOT
