@<TRIPOS>MOLECULE
3XC
   56    58     1     0     0
SMALL
bcc


@<TRIPOS>ATOM
      1 C1          0.3220    2.9980   -1.4560 c3        1 3XC      0.123400
      2 O1          1.1860    2.0810   -0.7870 os        1 3XC     -0.430600
      3 C2         -0.9970    2.2580   -1.7010 c3        1 3XC      0.166800
      4 N2         -1.7300    1.9940   -0.4790 n3        1 3XC     -0.819200
      5 C3         -2.8320    1.0820   -0.6680 c3        1 3XC      0.132800
      6 C4         -3.4320    0.5480    0.6810 c3        1 3XC      0.460900
      7 F5         -2.4630   -0.0750    1.4480 f         1 3XC     -0.233800
      8 F6         -3.8250    1.5730    1.5190 f         1 3XC     -0.233800
      9 N1'         2.8860    2.6270    2.0340 n3        1 3XC     -0.789200
     10 C11        -4.5820   -0.3860    0.3250 ca        1 3XC     -0.173300
     11 C12        -4.3310   -1.7400    0.0870 ca        1 3XC     -0.073000
     12 C13        -5.3680   -2.5940   -0.2750 ca        1 3XC     -0.170000
     13 C14        -6.6740   -2.0820   -0.3970 ca        1 3XC      0.142900
     14 F14        -7.6890   -2.9050   -0.7510 f         1 3XC     -0.135900
     15 C15        -6.9300   -0.7200   -0.1510 ca        1 3XC     -0.170000
     16 C16        -5.8800    0.1180    0.2110 ca        1 3XC     -0.073000
     17 N1A         5.0700   -0.8500   -1.2160 nb        1 3XC     -0.731000
     18 C2'         2.2400    3.4040    0.9850 c3        1 3XC      0.115800
     19 C2A         4.0270   -0.8650   -0.3570 ca        1 3XC      0.451600
     20 C3'         2.4140    2.6760   -0.3740 c3        1 3XC      0.115100
     21 C3A         3.8850   -1.8220    0.6670 ca        1 3XC     -0.295300
     22 C4'         3.4570    1.5650   -0.1160 c3        1 3XC     -0.080700
     23 C4A         4.8630   -2.8140    0.8110 ca        1 3XC     -0.005300
     24 C5'         3.7840    1.6700    1.3930 c3        1 3XC      0.140800
     25 C5A         5.9460   -2.8250   -0.0660 ca        1 3XC     -0.302300
     26 C6A         6.0190   -1.8300   -1.0870 ca        1 3XC      0.632200
     27 N6A         7.0540   -1.9030   -2.0350 nh        1 3XC     -0.923500
     28 C7A         2.9610    0.1870   -0.5060 c3        1 3XC     -0.117700
     29 C8A         4.7380   -3.8400    1.8710 c3        1 3XC     -0.060800
     30 H1          0.1710    3.9160   -0.8310 h1        1 3XC      0.041200
     31 H1A         0.7740    3.2860   -2.4420 h1        1 3XC      0.041200
     32 H2         -1.6430    2.9110   -2.3530 h1        1 3XC      0.041700
     33 H2A        -0.7660    1.3130   -2.2770 h1        1 3XC      0.041700
     34 HN2        -1.1100    1.6620    0.2400 hn        1 3XC      0.381800
     35 H3         -3.6540    1.6340   -1.2020 h1        1 3XC      0.055200
     36 H3A        -2.5600    0.1690   -1.2740 h1        1 3XC      0.055200
     37 HN1'        2.1950    2.1400    2.5770 hn        1 3XC      0.351800
     38 H12        -3.3070   -2.1330    0.1960 ha        1 3XC      0.152500
     39 H13        -5.1800   -3.6600   -0.4630 ha        1 3XC      0.155000
     40 H15        -7.9540   -0.3310   -0.2420 ha        1 3XC      0.155000
     41 H16        -6.0710    1.1840    0.4170 ha        1 3XC      0.152500
     42 H2'         1.1520    3.5720    1.2030 h1        1 3XC      0.057700
     43 H2'A        2.7520    4.4030    0.9390 h1        1 3XC      0.057700
     44 H3'         2.7780    3.3860   -1.1630 h1        1 3XC      0.050700
     45 H3AA        3.0210   -1.7880    1.3430 ha        1 3XC      0.142000
     46 H4'         4.3780    1.8040   -0.7110 hc        1 3XC      0.075700
     47 H5'         4.8310    2.0580    1.5210 h1        1 3XC      0.053200
     48 H5'A        3.7270    0.6600    1.8810 h1        1 3XC      0.053200
     49 H5A         6.7240   -3.5940    0.0210 ha        1 3XC      0.141000
     50 HN6A        7.9050   -2.2620   -1.6640 hn        1 3XC      0.400300
     51 HN6B        7.1740   -1.0960   -2.6080 hn        1 3XC      0.400300
     52 H7A         2.6060    0.2180   -1.5720 hc        1 3XC      0.066700
     53 H7AA        2.0780   -0.0890    0.1280 hc        1 3XC      0.066700
     54 H8A         4.0550   -4.6570    1.5270 hc        1 3XC      0.049367
     55 H8AA        5.7310   -4.2920    2.1150 hc        1 3XC      0.049367
     56 H8AB        4.3100   -3.3960    2.8040 hc        1 3XC      0.049367
@<TRIPOS>BOND
     1    1    2 1   
     2    1    3 1   
     3    1   30 1   
     4    1   31 1   
     5    2   20 1   
     6    3    4 1   
     7    3   32 1   
     8    3   33 1   
     9    4    5 1   
    10    4   34 1   
    11    5    6 1   
    12    5   35 1   
    13    5   36 1   
    14    6    7 1   
    15    6    8 1   
    16    6   10 1   
    17    9   18 1   
    18    9   24 1   
    19    9   37 1   
    20   10   11 ar  
    21   10   16 ar  
    22   11   12 ar  
    23   11   38 1   
    24   12   13 ar  
    25   12   39 1   
    26   13   14 1   
    27   13   15 ar  
    28   15   16 ar  
    29   15   40 1   
    30   16   41 1   
    31   17   19 ar  
    32   17   26 ar  
    33   18   20 1   
    34   18   42 1   
    35   18   43 1   
    36   19   21 ar  
    37   19   28 1   
    38   20   22 1   
    39   20   44 1   
    40   21   23 ar  
    41   21   45 1   
    42   22   24 1   
    43   22   28 1   
    44   22   46 1   
    45   23   25 ar  
    46   23   29 1   
    47   24   47 1   
    48   24   48 1   
    49   25   26 ar  
    50   25   49 1   
    51   26   27 1   
    52   27   50 1   
    53   27   51 1   
    54   28   52 1   
    55   28   53 1   
    56   29   54 1   
    57   29   55 1   
    58   29   56 1   
@<TRIPOS>SUBSTRUCTURE
     1 3XC         1 TEMP              0 ****  ****    0 ROOT
