@<TRIPOS>MOLECULE
3XC
   57    59     1     0     0
SMALL
bcc


@<TRIPOS>ATOM
      1 C1          0.3620   -1.3740    0.4050 c3        1 3XC      0.108400
      2 O1          1.7110   -1.4050    0.8250 os        1 3XC     -0.432600
      3 C2          0.2100   -0.5830   -0.9050 c3        1 3XC      0.067800
      4 N2          1.3190   -0.8590   -1.8590 ny        1 3XC     -0.783000
      5 C3          0.9930   -0.5260   -3.2620 c3        1 3XC      0.049800
      6 C4          0.2460   -1.6780   -4.0400 c3        1 3XC      0.469900
      7 F5          0.9240   -2.8730   -3.8830 f         1 3XC     -0.225300
      8 F6         -0.9620   -1.9660   -3.4360 f         1 3XC     -0.225300
      9 N1'         2.7960   -1.2720    3.8640 n7        1 3XC     -0.788200
     10 C11         0.1210   -1.2310   -5.4810 ca        1 3XC     -0.207300
     11 C12         1.1820   -1.4510   -6.3660 ca        1 3XC     -0.065000
     12 C13         1.0890   -1.0320   -7.6870 ca        1 3XC     -0.164500
     13 C14        -0.0850   -0.3890   -8.1300 ca        1 3XC      0.175900
     14 F14        -0.1830    0.0240   -9.4100 f         1 3XC     -0.112900
     15 C15        -1.1590   -0.1810   -7.2410 ca        1 3XC     -0.164500
     16 C16        -1.0500   -0.6070   -5.9230 ca        1 3XC     -0.065000
     17 N1A         3.6030    0.7150   -1.2150 nb        1 3XC     -0.818000
     18 C2'         1.6600   -0.6930    3.1630 c3        1 3XC      0.128800
     19 C2A         4.6300    0.2680   -0.4520 ca        1 3XC      0.455600
     20 C3'         2.0870   -0.3450    1.7140 c3        1 3XC      0.107100
     21 C3A         5.9360    0.7750   -0.5670 ca        1 3XC     -0.263300
     22 C4'         3.6260   -0.2720    1.7770 c3        1 3XC     -0.077700
     23 C4A         6.2040    1.7800   -1.5060 ca        1 3XC      0.024700
     24 C5'         4.0000   -1.0340    3.0740 c3        1 3XC      0.150800
     25 C5A         5.1550    2.2630   -2.2890 ca        1 3XC     -0.282300
     26 C6A         3.8530    1.7130   -2.1190 ca        1 3XC      0.615200
     27 N6A         2.7920    2.1400   -2.9530 nv        1 3XC     -0.931500
     28 C7A         4.3670   -0.8090    0.5690 c3        1 3XC     -0.129700
     29 C8A         7.5710    2.3290   -1.6460 c3        1 3XC     -0.076800
     30 H1          0.0890   -2.4540    0.2440 h1        1 3XC      0.088200
     31 H1A        -0.3190   -0.9220    1.1720 h1        1 3XC      0.088200
     32 H2          0.2130    0.5230   -0.6950 hx        1 3XC      0.101700
     33 H2A        -0.7730   -0.8640   -1.3810 hx        1 3XC      0.101700
     34 HN2         2.1710   -0.2980   -1.5420 hn        1 3XC      0.486300
     35 H3          0.3480    0.3940   -3.2930 hx        1 3XC      0.126700
     36 H3A         1.9570   -0.3220   -3.8130 hx        1 3XC      0.126700
     37 HN1'        2.6600   -2.2550    4.0130 hn        1 3XC      0.367800
     38 H12         2.0890   -1.9740   -6.0200 ha        1 3XC      0.151500
     39 H13         1.9160   -1.2040   -8.3930 ha        1 3XC      0.171000
     40 H15        -2.0780    0.3080   -7.6010 ha        1 3XC      0.171000
     41 H16        -1.8960   -0.4670   -5.2310 ha        1 3XC      0.151500
     42 H2'         1.3770    0.2550    3.6980 h1        1 3XC      0.063700
     43 H2'A        0.7720   -1.3800    3.1600 h1        1 3XC      0.063700
     44 H3'         1.6380    0.6190    1.3640 h1        1 3XC      0.051700
     45 H3AA        6.7410    0.3860    0.0730 ha        1 3XC      0.164000
     46 H4'         3.8930    0.8120    1.9200 hc        1 3XC      0.075700
     47 H5'         4.6930   -0.4010    3.6950 h1        1 3XC      0.059200
     48 H5'A        4.5330   -1.9930    2.8310 h1        1 3XC      0.059200
     49 H5A         5.3360    3.0560   -3.0290 ha        1 3XC      0.161000
     50 HN6A        3.0420    2.9400   -3.4980 hn        1 3XC      0.396300
     51 HN6B        1.9270    2.2770   -2.4720 hn        1 3XC      0.396300
     52 H7A         3.8030   -1.6600    0.1030 hc        1 3XC      0.072700
     53 H7AA        5.3610   -1.2200    0.9000 hc        1 3XC      0.072700
     54 H8A         7.6940    2.8780   -2.6120 hc        1 3XC      0.067367
     55 H8AA        7.7790    3.0420   -0.8070 hc        1 3XC      0.067367
     56 H8AB        8.3310    1.5100   -1.6030 hc        1 3XC      0.067367
     57 H22         1.5670   -1.8550   -1.7960 hn        1 3XC      0.486300
@<TRIPOS>BOND
     1    1    2 1   
     2    1    3 1   
     3    1   30 1   
     4    1   31 1   
     5    2   20 1   
     6    3    4 1   
     7    3   32 1   
     8    3   33 1   
     9    4    5 1   
    10    4   34 1   
    11    4   57 1   
    12    5    6 1   
    13    5   35 1   
    14    5   36 1   
    15    6    7 1   
    16    6    8 1   
    17    6   10 1   
    18    9   18 1   
    19    9   24 1   
    20    9   37 1   
    21   10   11 ar  
    22   10   16 ar  
    23   11   12 ar  
    24   11   38 1   
    25   12   13 ar  
    26   12   39 1   
    27   13   14 1   
    28   13   15 ar  
    29   15   16 ar  
    30   15   40 1   
    31   16   41 1   
    32   17   19 ar  
    33   17   26 ar  
    34   18   20 1   
    35   18   42 1   
    36   18   43 1   
    37   19   21 ar  
    38   19   28 1   
    39   20   22 1   
    40   20   44 1   
    41   21   23 ar  
    42   21   45 1   
    43   22   24 1   
    44   22   28 1   
    45   22   46 1   
    46   23   25 ar  
    47   23   29 1   
    48   24   47 1   
    49   24   48 1   
    50   25   26 ar  
    51   25   49 1   
    52   26   27 1   
    53   27   50 1   
    54   27   51 1   
    55   28   52 1   
    56   28   53 1   
    57   29   54 1   
    58   29   55 1   
    59   29   56 1   
@<TRIPOS>SUBSTRUCTURE
     1 3XC         1 TEMP              0 ****  ****    0 ROOT
