@<TRIPOS>MOLECULE
3XC
   56    53     1     0     0
SMALL
bcc


@<TRIPOS>ATOM
      1 C1         -1.7680   -1.3780    1.4000 c3        1 3XC     -0.024000
      2 O1         -0.3900   -1.7860    1.3880 os        1 3XC     -0.281000
      3 C2         -2.2900   -1.2910   -0.0420 c3        1 3XC     -0.077000
      4 N2         -3.4630   -0.4860   -0.0710 n3        1 3XC     -0.299000
      5 C3         -3.8460   -0.2410   -1.4440 c3        1 3XC     -0.104000
      6 C4         -4.6820    1.0480   -1.5250 c3        1 3XC      0.310000
      7 F5         -5.9630    0.7660   -1.2540 f         1 3XC     -0.162000
      8 F6         -4.2200    1.9400   -0.6300 f         1 3XC     -0.162000
      9 N1'         1.5750   -3.4650    3.7630 n3        1 3XC     -0.269000
     10 C11        -4.5750    1.6530   -2.9730 c2        1 3XC     -0.166000
     11 C12        -5.5890    1.4170   -3.9010 c2        1 3XC     -0.072000
     12 C13        -5.5540    2.0420   -5.1480 c1        1 3XC     -0.169000
     13 C14        -4.4980    2.9090   -5.4680 c1        1 3XC      0.109000
     14 F14        -4.4410    3.4820   -6.6870 f         1 3XC     -0.100000
     15 C15        -3.4810    3.1450   -4.5360 c1        1 3XC     -0.170000
     16 C16        -3.5170    2.5220   -3.2940 c1        1 3XC     -0.074000
     17 N1A         3.1580    0.8850    1.7700 n1        1 3XC     -0.206000
     18 C2'         0.3100   -3.3220    2.9010 c3        1 3XC     -0.099000
     19 C2A         3.3720   -0.3460    1.2260 c1        1 3XC      0.028000
     20 C3'         0.1660   -2.0390    2.7150 c3        1 3XC      0.005000
     21 C3A         4.4260   -0.5400    0.3310 c1        1 3XC     -0.231000
     22 C4'         1.6570   -1.3970    2.8260 c3        1 3XC     -0.148000
     23 C4A         5.2350    0.4970    0.0030 c1        1 3XC      0.003000
     24 C5'         2.2590   -2.0500    3.7450 c3        1 3XC     -0.095000
     25 C5A         5.0170    1.7420    0.5560 c1        1 3XC     -0.236000
     26 C6A         3.9740    1.9310    1.4410 c1        1 3XC      0.113000
     27 N6A         3.7500    3.2180    2.0150 n3        1 3XC     -0.322000
     28 C7A         2.4310   -1.5580    1.4360 c3        1 3XC     -0.102000
     29 C8A         6.5680    0.2850   -0.6880 c3        1 3XC     -0.187000
     30 H1         -1.8450   -0.4980    1.8290 h1        1 3XC      0.080000
     31 H1A        -2.2930   -2.0270    1.8950 h1        1 3XC      0.080000
     32 H2         -2.4990   -2.1790   -0.3630 h1        1 3XC      0.084000
     33 H2A        -1.6060   -0.8910   -0.6130 h1        1 3XC      0.084000
     34 HN2        -3.2930    0.3220    0.3520 hn        1 3XC      0.167000
     35 H3         -3.0400   -0.1420   -1.9960 h1        1 3XC      0.096500
     36 H3A        -4.3780   -0.9970   -1.7740 h1        1 3XC      0.096500
     37 HN1'        2.1430   -4.0890    3.3760 hn        1 3XC      0.144000
     38 H12        -6.3230    0.8130   -3.6780 ha        1 3XC      0.154000
     39 H13        -6.2700    1.8770   -5.8030 ha        1 3XC      0.155000
     40 H15        -2.7390    3.7540   -4.7600 ha        1 3XC      0.155000
     41 H16        -2.8020    2.6890   -2.6370 ha        1 3XC      0.152000
     42 H2'        -0.4720   -3.6870    3.3780 h1        1 3XC      0.101000
     43 H2'A        0.4290   -3.7740    2.0510 h1        1 3XC      0.101000
     44 H3'        -0.4120   -1.6650    3.3970 h1        1 3XC      0.093000
     45 H3AA        4.5800   -1.4200   -0.0590 ha        1 3XC      0.141000
     46 H4'         1.5970   -0.4470    3.0720 hc        1 3XC      0.114000
     47 H5'         2.1420   -1.5990    4.6220 h1        1 3XC      0.093500
     48 H5'A        3.2060   -2.1360    3.5320 h1        1 3XC      0.093500
     49 H5A         5.6000    2.4900    0.3210 ha        1 3XC      0.142000
     50 HN6A        4.4010    3.6110    2.5250 hn        1 3XC      0.197000
     51 HN6B        2.9610    3.6640    1.8520 hn        1 3XC      0.197000
     52 H7A         1.7690   -1.5970    0.6890 hc        1 3XC      0.101000
     53 H7AA        2.9580   -2.3820    1.4490 hc        1 3XC      0.101000
     54 H8A         7.2790    0.2300   -0.0170 hc        1 3XC      0.089333
     55 H8AA        6.5400   -0.5440   -1.2020 hc        1 3XC      0.089333
     56 H8AB        6.7470    1.0410   -1.2940 hc        1 3XC      0.089333
@<TRIPOS>BOND
     1    1    2 1   
     2    1    3 1   
     3    1   30 1   
     4    1   31 1   
     5    2   20 1   
     6    3    4 1   
     7    3   32 1   
     8    3   33 1   
     9    4    5 1   
    10    4   34 1   
    11    5    6 1   
    12    5   35 1   
    13    5   36 1   
    14    6    7 1   
    15    6    8 1   
    16    6   10 1   
    17    9   18 1   
    18    9   24 1   
    19    9   37 1   
    20   10   11 1   
    21   10   16 1   
    22   11   12 1   
    23   11   38 1   
    24   12   39 1   
    25   13   14 1   
    26   13   15 1   
    27   15   40 1   
    28   16   41 1   
    29   17   26 1   
    30   18   20 1   
    31   18   42 1   
    32   18   43 1   
    33   19   21 1   
    34   19   28 1   
    35   20   22 1   
    36   20   44 1   
    37   21   45 1   
    38   22   24 1   
    39   22   28 1   
    40   22   46 1   
    41   23   25 1   
    42   23   29 1   
    43   24   47 1   
    44   24   48 1   
    45   25   49 1   
    46   26   27 1   
    47   27   50 1   
    48   27   51 1   
    49   28   52 1   
    50   28   53 1   
    51   29   54 1   
    52   29   55 1   
    53   29   56 1   
@<TRIPOS>SUBSTRUCTURE
     1 3XC         1 TEMP              0 ****  ****    0 ROOT
