@<TRIPOS>MOLECULE
3XC
   57    59     1     0     0
SMALL
bcc


@<TRIPOS>ATOM
      1 C1          0.0990   -0.6980    0.6470 c3        1 3XC      0.109400
      2 O1          1.4220   -1.0720    0.9750 os        1 3XC     -0.432600
      3 C2          0.0570    0.0100   -0.7190 c3        1 3XC      0.079800
      4 N2          0.9650   -0.6310   -1.7080 n4        1 3XC     -0.781000
      5 C3          0.5130   -0.4700   -3.1070 c3        1 3XC      0.045800
      6 C4          1.2460   -1.4630   -4.0940 c3        1 3XC      0.475900
      7 F5          2.6150   -1.3340   -3.9800 f         1 3XC     -0.221800
      8 F6          1.0550   -2.7650   -3.6730 f         1 3XC     -0.221800
      9 N1'         2.8240   -1.3060    3.8500 n3        1 3XC     -0.788200
     10 C11         0.7150   -1.1770   -5.4820 ca        1 3XC     -0.208300
     11 C12         1.2780   -0.1410   -6.2340 ca        1 3XC     -0.064500
     12 C13         0.7930    0.1450   -7.5040 ca        1 3XC     -0.166000
     13 C14        -0.2670   -0.6220   -8.0300 ca        1 3XC      0.176900
     14 F14        -0.7450   -0.3490   -9.2620 f         1 3XC     -0.112900
     15 C15        -0.8250   -1.6750   -7.2770 ca        1 3XC     -0.166000
     16 C16        -0.3270   -1.9470   -6.0080 ca        1 3XC     -0.064500
     17 N1A         3.4420    0.7090   -1.2340 nb        1 3XC     -0.817000
     18 C2'         1.7860   -0.4450    3.3020 c3        1 3XC      0.128800
     19 C2A         4.4520    0.0620   -0.6020 ca        1 3XC      0.453600
     20 C3'         2.1180   -0.1430    1.8180 c3        1 3XC      0.108100
     21 C3A         5.8060    0.3610   -0.8300 ca        1 3XC     -0.263300
     22 C4'         3.6330   -0.4100    1.7100 c3        1 3XC     -0.079700
     23 C4A         6.1430    1.3650   -1.7500 ca        1 3XC      0.025700
     24 C5'         3.9530   -1.3200    2.9230 c3        1 3XC      0.150800
     25 C5A         5.1160    2.0570   -2.3910 ca        1 3XC     -0.283300
     26 C6A         3.7640    1.7100   -2.1110 ca        1 3XC      0.621200
     27 N6A         2.7120    2.3580   -2.8020 nh        1 3XC     -0.930500
     28 C7A         4.1130   -1.0080    0.4040 c3        1 3XC     -0.126700
     29 C8A         7.5620    1.6790   -2.0280 c3        1 3XC     -0.076800
     30 H1         -0.3640   -0.0220    1.4130 h1        1 3XC      0.085700
     31 H1A        -0.4720   -1.6670    0.6020 h1        1 3XC      0.085700
     32 H2          0.3830    1.0820   -0.6100 hx        1 3XC      0.096700
     33 H2A        -1.0030   -0.0120   -1.1010 hx        1 3XC      0.096700
     34 HN2         1.9360   -0.2100   -1.5840 hn        1 3XC      0.486300
     35 H3         -0.5910   -0.6770   -3.1820 hx        1 3XC      0.121700
     36 H3A         0.7280    0.5810   -3.4480 hx        1 3XC      0.121700
     37 HN1'        2.4760   -2.2350    3.9970 hn        1 3XC      0.366800
     38 H12         2.1200    0.4400   -5.8240 ha        1 3XC      0.153500
     39 H13         1.2310    0.9550   -8.1070 ha        1 3XC      0.170000
     40 H15        -1.6430   -2.2760   -7.7030 ha        1 3XC      0.170000
     41 H16        -0.7460   -2.7840   -5.4250 ha        1 3XC      0.153500
     42 H2'         1.8010    0.5180    3.8830 h1        1 3XC      0.063200
     43 H2'A        0.7660   -0.9020    3.3930 h1        1 3XC      0.063200
     44 H3'         1.8570    0.9060    1.5290 h1        1 3XC      0.055700
     45 H3AA        6.5950   -0.1870   -0.2950 ha        1 3XC      0.163000
     46 H4'         4.1460    0.5790    1.8710 hc        1 3XC      0.076700
     47 H5'         4.1970   -2.3620    2.5800 h1        1 3XC      0.058700
     48 H5'A        4.8480   -0.9170    3.4720 h1        1 3XC      0.058700
     49 H5A         5.3510    2.8570   -3.1080 ha        1 3XC      0.159000
     50 HN6A        3.0340    3.1560   -3.3110 hn        1 3XC      0.395300
     51 HN6B        1.9240    2.5790   -2.2290 hn        1 3XC      0.395300
     52 H7A         3.3450   -1.7120   -0.0140 hc        1 3XC      0.070700
     53 H7AA        5.0410   -1.6130    0.5950 hc        1 3XC      0.070700
     54 H8A         8.0000    0.8890   -2.6910 hc        1 3XC      0.067033
     55 H8AA        7.6690    2.6670   -2.5400 hc        1 3XC      0.067033
     56 H8AB        8.1530    1.7040   -1.0780 hc        1 3XC      0.067033
     57 H22         1.0410   -1.6340   -1.4910 hn        1 3XC      0.486300
@<TRIPOS>BOND
     1    1    2 1   
     2    1    3 1   
     3    1   30 1   
     4    1   31 1   
     5    2   20 1   
     6    3    4 1   
     7    3   32 1   
     8    3   33 1   
     9    4    5 1   
    10    4   34 1   
    11    4   57 1   
    12    5    6 1   
    13    5   35 1   
    14    5   36 1   
    15    6    7 1   
    16    6    8 1   
    17    6   10 1   
    18    9   18 1   
    19    9   24 1   
    20    9   37 1   
    21   10   11 ar  
    22   10   16 ar  
    23   11   12 ar  
    24   11   38 1   
    25   12   13 ar  
    26   12   39 1   
    27   13   14 1   
    28   13   15 ar  
    29   15   16 ar  
    30   15   40 1   
    31   16   41 1   
    32   17   19 ar  
    33   17   26 ar  
    34   18   20 1   
    35   18   42 1   
    36   18   43 1   
    37   19   21 ar  
    38   19   28 1   
    39   20   22 1   
    40   20   44 1   
    41   21   23 ar  
    42   21   45 1   
    43   22   24 1   
    44   22   28 1   
    45   22   46 1   
    46   23   25 ar  
    47   23   29 1   
    48   24   47 1   
    49   24   48 1   
    50   25   26 ar  
    51   25   49 1   
    52   26   27 1   
    53   27   50 1   
    54   27   51 1   
    55   28   52 1   
    56   28   53 1   
    57   29   54 1   
    58   29   55 1   
    59   29   56 1   
@<TRIPOS>SUBSTRUCTURE
     1 3XC         1 TEMP              0 ****  ****    0 ROOT
