@<TRIPOS>MOLECULE
3XC
   58    60     1     0     0
SMALL
bcc


@<TRIPOS>ATOM
      1 C1          0.0060    0.2300   -0.1300 c3        1 3XC      0.102400
      2 O1          1.4300    0.1610   -0.1630 os        1 3XC     -0.460600
      3 C2         -0.4900    0.0730   -1.5690 c3        1 3XC      0.102800
      4 N2         -0.0810   -1.2290   -2.1710 n4        1 3XC     -0.755000
      5 C3         -0.6230   -1.4210   -3.5420 c3        1 3XC      0.030800
      6 C4         -0.0780   -2.7500   -4.2110 c3        1 3XC      0.483900
      7 F5          1.3020   -2.7160   -4.2320 f         1 3XC     -0.222800
      8 F6         -0.3180   -3.8210   -3.3730 f         1 3XC     -0.222800
      9 N1'         3.5260   -1.8110    1.4410 n3        1 3XC     -0.784200
     10 C11        -0.7260   -2.8570   -5.5700 ca        1 3XC     -0.224300
     11 C12        -0.1260   -2.2430   -6.6750 ca        1 3XC     -0.061500
     12 C13        -0.7170   -2.3290   -7.9280 ca        1 3XC     -0.162500
     13 C14        -1.9230   -3.0470   -8.0800 ca        1 3XC      0.192900
     14 F14        -2.5040   -3.1330   -9.2930 f         1 3XC     -0.100900
     15 C15        -2.5180   -3.6780   -6.9680 ca        1 3XC     -0.162500
     16 C16        -1.9130   -3.5820   -5.7210 ca        1 3XC     -0.061500
     17 N1A         5.2900    3.1380    0.9120 nb        1 3XC     -0.669000
     18 C2'         2.1390   -1.3980    1.5820 c3        1 3XC      0.129800
     19 C2A         5.1320    2.1200    0.0410 ca        1 3XC      0.455600
     20 C3'         2.0020    0.0860    1.1530 c3        1 3XC      0.113100
     21 C3A         6.1940    1.6490   -0.7730 ca        1 3XC     -0.203300
     22 C4'         3.4450    0.6300    1.1370 c3        1 3XC     -0.088700
     23 C4A         7.4540    2.2440   -0.6880 ca        1 3XC      0.011700
     24 C5'         4.3490   -0.6200    1.2780 c3        1 3XC      0.147800
     25 C5A         7.6380    3.3090    0.2160 ca        1 3XC     -0.206300
     26 C6A         6.5280    3.7050    0.9820 ca        1 3XC      0.454200
     27 N6A         6.6810    4.8180    1.9480 n4        1 3XC     -0.819300
     28 C7A         3.7780    1.4670   -0.0790 c3        1 3XC     -0.118700
     29 C8A         8.5900    1.7740   -1.5110 c3        1 3XC     -0.085800
     30 H1         -0.3190    1.2390    0.2450 h1        1 3XC      0.079700
     31 H1A        -0.4100   -0.5700    0.5390 h1        1 3XC      0.079700
     32 H2         -1.6160    0.1380   -1.5790 hx        1 3XC      0.118700
     33 H2A        -0.0650    0.8970   -2.2120 hx        1 3XC      0.118700
     34 HN2        -0.4010   -2.0050   -1.5750 hn        1 3XC      0.464800
     35 H3         -0.3170   -0.5530   -4.1910 hx        1 3XC      0.132200
     36 H3A        -1.7460   -1.4830   -3.4940 hx        1 3XC      0.132200
     37 HN1'        3.6430   -2.4400    0.6700 hn        1 3XC      0.365800
     38 H12         0.8300   -1.7070   -6.5580 ha        1 3XC      0.150000
     39 H13        -0.2520   -1.8550   -8.8070 ha        1 3XC      0.178000
     40 H15        -3.4510   -4.2500   -7.1010 ha        1 3XC      0.178000
     41 H16        -2.3620   -4.0970   -4.8560 ha        1 3XC      0.150000
     42 H2'         1.8670   -1.4920    2.6710 h1        1 3XC      0.063700
     43 H2'A        1.4440   -2.0480    0.9880 h1        1 3XC      0.063700
     44 H3'         1.3670    0.6650    1.8730 h1        1 3XC      0.075700
     45 H3AA        6.0210    0.8130   -1.4700 ha        1 3XC      0.176000
     46 H4'         3.5620    1.2640    2.0600 hc        1 3XC      0.084700
     47 H5'         5.0410   -0.7090    0.3980 h1        1 3XC      0.057700
     48 H5'A        4.9810   -0.5240    2.2050 h1        1 3XC      0.057700
     49 H5A         8.6250    3.7920    0.2970 ha        1 3XC      0.177000
     50 HN6A        5.9700    5.5400    1.7720 hn        1 3XC      0.474467
     51 HN6B        7.6170    5.2260    1.8470 hn        1 3XC      0.474467
     52 H7A         3.7670    0.8260   -1.0000 hc        1 3XC      0.074700
     53 H7AA        2.9870    2.2550   -0.2110 hc        1 3XC      0.074700
     54 H8A         8.2390    1.1350   -2.3600 hc        1 3XC      0.081367
     55 H8AA        9.2920    1.1670   -0.8810 hc        1 3XC      0.081367
     56 H8AB        9.1610    2.6400   -1.9320 hc        1 3XC      0.081367
     57 H22         0.9500   -1.2700   -2.2020 hn        1 3XC      0.464800
     58 H6A3        6.5620    4.4640    2.9060 hn        1 3XC      0.474467
@<TRIPOS>BOND
     1    1    2 1   
     2    1    3 1   
     3    1   30 1   
     4    1   31 1   
     5    2   20 1   
     6    3    4 1   
     7    3   32 1   
     8    3   33 1   
     9    4    5 1   
    10    4   34 1   
    11    4   57 1   
    12    5    6 1   
    13    5   35 1   
    14    5   36 1   
    15    6    7 1   
    16    6    8 1   
    17    6   10 1   
    18    9   18 1   
    19    9   24 1   
    20    9   37 1   
    21   10   11 ar  
    22   10   16 ar  
    23   11   12 ar  
    24   11   38 1   
    25   12   13 ar  
    26   12   39 1   
    27   13   14 1   
    28   13   15 ar  
    29   15   16 ar  
    30   15   40 1   
    31   16   41 1   
    32   17   19 ar  
    33   17   26 ar  
    34   18   20 1   
    35   18   42 1   
    36   18   43 1   
    37   19   21 ar  
    38   19   28 1   
    39   20   22 1   
    40   20   44 1   
    41   21   23 ar  
    42   21   45 1   
    43   22   24 1   
    44   22   28 1   
    45   22   46 1   
    46   23   25 ar  
    47   23   29 1   
    48   24   47 1   
    49   24   48 1   
    50   25   26 ar  
    51   25   49 1   
    52   26   27 1   
    53   27   50 1   
    54   27   51 1   
    55   27   58 1   
    56   28   52 1   
    57   28   53 1   
    58   29   54 1   
    59   29   55 1   
    60   29   56 1   
@<TRIPOS>SUBSTRUCTURE
     1 3XC         1 TEMP              0 ****  ****    0 ROOT
