@<TRIPOS>MOLECULE
3XD
   56    53     1     0     0
SMALL
bcc


@<TRIPOS>ATOM
      1 C1         -1.7660   -1.5470    1.2580 c3        1 3XD     -0.023000
      2 O1         -0.3660   -1.8940    1.2300 os        1 3XD     -0.280000
      3 C2         -2.2650   -1.3150   -0.1800 c3        1 3XD     -0.084000
      4 N2         -3.4680   -0.5340   -0.1500 n3        1 3XD     -0.299000
      5 C3         -3.7590   -0.0460   -1.4830 c3        1 3XD     -0.094000
      6 C4         -4.8090    1.0560   -1.4040 c3        1 3XD      0.261000
      7 F5         -6.0240    0.5070   -1.2710 f         1 3XD     -0.170000
      8 F6         -4.5540    1.8400   -0.3480 f         1 3XD     -0.170000
      9 N1'         1.6140   -3.6180    3.5490 n3        1 3XD     -0.267000
     10 C11        -4.7640    1.9020   -2.6960 c2        1 3XD     -0.144000
     11 C12        -3.8020    2.9060   -2.8400 c2        1 3XD     -0.099000
     12 C13        -3.7830    3.6930   -3.9870 c1        1 3XD     -0.132000
     13 C14        -4.7230    3.4800   -4.9920 c1        1 3XD     -0.122000
     14 C15        -5.6820    2.4790   -4.8490 c1        1 3XD     -0.122000
     15 C16        -5.7010    1.6890   -3.6980 c1        1 3XD     -0.100000
     16 N1A         3.2960    0.7000    1.7540 n1        1 3XD     -0.204000
     17 C2'         0.3470   -3.4640    2.6880 c3        1 3XD     -0.120000
     18 C2A         3.4540   -0.4950    1.1230 c1        1 3XD      0.030000
     19 C3'         0.1950   -2.1760    2.5340 c3        1 3XD      0.003000
     20 C3A         4.5030   -0.6750    0.2260 c1        1 3XD     -0.230000
     21 C4'         1.6970   -1.5210    2.6590 c3        1 3XD     -0.120000
     22 C4A         5.3760    0.3480   -0.0190 c1        1 3XD      0.001000
     23 C5'         2.2970   -2.1820    3.5600 c3        1 3XD     -0.097000
     24 C5A         5.2170    1.5450    0.6140 c1        1 3XD     -0.237000
     25 C6A         4.1680    1.7240    1.5090 c1        1 3XD      0.110000
     26 N6A         3.9600    2.9720    2.0980 n3        1 3XD     -0.321000
     27 C7A         2.4690   -1.6600    1.2780 c3        1 3XD     -0.102000
     28 C8A         6.6100    0.2210   -0.9220 c3        1 3XD     -0.186000
     29 H1         -1.8900   -0.7240    1.7860 h1        1 3XD      0.074500
     30 H1A        -2.2790   -2.2820    1.6700 h1        1 3XD      0.074500
     31 H2         -2.4470   -2.1780   -0.6050 h1        1 3XD      0.092000
     32 H2A        -1.5810   -0.8400   -0.6900 h1        1 3XD      0.092000
     33 HN2        -3.3560    0.1750    0.4160 hn        1 3XD      0.171000
     34 H3         -2.9400    0.3110   -1.8860 h1        1 3XD      0.116500
     35 H3A        -4.1000   -0.7860   -2.0360 h1        1 3XD      0.116500
     36 HN1'        2.1810   -4.2230    3.1550 hn        1 3XD      0.143000
     37 H12        -3.1440    3.0550   -2.1350 ha        1 3XD      0.146000
     38 H13        -3.1010    4.4050   -4.0880 ha        1 3XD      0.138000
     39 H14        -4.7100    4.0320   -5.7970 ha        1 3XD      0.137000
     40 H15        -6.3430    2.3300   -5.5560 ha        1 3XD      0.137000
     41 H16        -6.3750    0.9850   -3.5970 ha        1 3XD      0.144000
     42 H2'        -0.4280   -3.8450    3.1530 h1        1 3XD      0.095000
     43 H2'A        0.4700   -3.8980    1.8220 h1        1 3XD      0.095000
     44 H3'        -0.3890   -1.8180    3.2380 h1        1 3XD      0.091000
     45 H3AA        4.6170   -1.5330   -0.2270 ha        1 3XD      0.141000
     46 H4'         1.6340   -0.5770    2.9180 hc        1 3XD      0.117000
     47 H5'         2.1730   -1.7550    4.4320 h1        1 3XD      0.094000
     48 H5'A        3.2490   -2.2570    3.3500 h1        1 3XD      0.094000
     49 H5A         5.8440    2.2800    0.4380 ha        1 3XD      0.141000
     50 HN6A        4.5900    3.6260    2.0130 hn        1 3XD      0.195500
     51 HN6B        3.1770    3.1490    2.5190 hn        1 3XD      0.195500
     52 H7A         1.8270   -1.6430    0.5440 hc        1 3XD      0.106500
     53 H7AA        2.9610   -2.5080    1.2630 hc        1 3XD      0.106500
     54 H8A         6.5960   -0.6500   -1.3750 hc        1 3XD      0.088333
     55 H8AA        6.6010    0.9410   -1.5940 hc        1 3XD      0.088333
     56 H8AB        7.4270    0.2930   -0.3740 hc        1 3XD      0.088333
@<TRIPOS>BOND
     1    1    2 1   
     2    1    3 1   
     3    1   29 1   
     4    1   30 1   
     5    2   19 1   
     6    3    4 1   
     7    3   31 1   
     8    3   32 1   
     9    4    5 1   
    10    4   33 1   
    11    5    6 1   
    12    5   34 1   
    13    5   35 1   
    14    6    7 1   
    15    6    8 1   
    16    6   10 1   
    17    9   17 1   
    18    9   23 1   
    19    9   36 1   
    20   10   11 1   
    21   10   15 1   
    22   11   12 1   
    23   11   37 1   
    24   12   38 1   
    25   13   14 1   
    26   13   39 1   
    27   14   40 1   
    28   15   41 1   
    29   16   25 1   
    30   17   19 1   
    31   17   42 1   
    32   17   43 1   
    33   18   20 1   
    34   18   27 1   
    35   19   21 1   
    36   19   44 1   
    37   20   45 1   
    38   21   23 1   
    39   21   27 1   
    40   21   46 1   
    41   22   24 1   
    42   22   28 1   
    43   23   47 1   
    44   23   48 1   
    45   24   49 1   
    46   25   26 1   
    47   26   50 1   
    48   26   51 1   
    49   27   52 1   
    50   27   53 1   
    51   28   54 1   
    52   28   55 1   
    53   28   56 1   
@<TRIPOS>SUBSTRUCTURE
     1 3XD         1 TEMP              0 ****  ****    0 ROOT
