@<TRIPOS>MOLECULE
3XD
   57    59     1     0     0
SMALL
bcc


@<TRIPOS>ATOM
      1 C1         -0.7860    1.2520   -0.3680 c3        1 3XD      0.112400
      2 O1          0.6030    1.5110   -0.3320 os        1 3XD     -0.431600
      3 C2         -1.0740    0.2150   -1.4740 c3        1 3XD      0.080800
      4 N2         -0.0310   -0.8440   -1.5790 ny        1 3XD     -0.753000
      5 C3         -0.1370   -1.6090   -2.8450 c3        1 3XD      0.038800
      6 C4          0.9220   -2.7800   -2.9290 c3        1 3XD      0.475900
      7 F5          2.1940   -2.2820   -2.7260 f         1 3XD     -0.218300
      8 F6          0.7710   -3.6260   -1.8490 f         1 3XD     -0.218300
      9 N1'         1.8810   -1.1490    0.7340 n7        1 3XD     -0.862200
     10 C11         0.7250   -3.4460   -4.2740 ca        1 3XD     -0.191300
     11 C12        -0.1320   -4.5450   -4.3880 ca        1 3XD     -0.093000
     12 C13        -0.3210   -5.1440   -5.6330 ca        1 3XD     -0.121500
     13 C14         0.3470   -4.6530   -6.7550 ca        1 3XD     -0.085000
     14 C15         1.2100   -3.5620   -6.6350 ca        1 3XD     -0.121500
     15 C16         1.4040   -2.9570   -5.3940 ca        1 3XD     -0.093000
     16 N1A         5.3910    1.0610   -1.1130 nb        1 3XD     -0.754000
     17 C2'         1.0010   -0.2200    1.4360 c3        1 3XD      0.100800
     18 C2A         4.6710    2.1590   -0.7840 ca        1 3XD      0.431600
     19 C3'         1.2970    1.1930    0.8810 c3        1 3XD      0.120100
     20 C3A         5.2380    3.4270   -0.5750 ca        1 3XD     -0.290300
     21 C4'         2.7980    1.1110    0.5040 c3        1 3XD     -0.070700
     22 C4A         6.6270    3.5770   -0.7080 ca        1 3XD      0.006700
     23 C5'         3.0290   -0.3920    0.2230 c3        1 3XD      0.140800
     24 C5A         7.3960    2.4660   -1.0350 ca        1 3XD     -0.295300
     25 C6A         6.7500    1.2030   -1.2220 ca        1 3XD      0.648200
     26 N6A         7.5320    0.0660   -1.4500 nv        1 3XD     -0.933500
     27 C7A         3.1780    2.0100   -0.6510 c3        1 3XD     -0.107700
     28 C8A         7.2570    4.8990   -0.4880 c3        1 3XD     -0.066800
     29 H1         -1.2790    2.2180   -0.6720 h1        1 3XD      0.085200
     30 H1A        -1.2030    0.9240    0.6170 h1        1 3XD      0.085200
     31 H2         -2.0690   -0.2740   -1.2820 hx        1 3XD      0.103700
     32 H2A        -1.1150    0.7500   -2.4660 hx        1 3XD      0.103700
     33 HN2        -0.0990   -1.4940   -0.7830 hn        1 3XD      0.480800
     34 H3          0.0430   -0.9170   -3.7150 hx        1 3XD      0.123700
     35 H3A        -1.1640   -2.0610   -2.9240 hx        1 3XD      0.123700
     36 HN1'        2.1730   -1.8960    1.3350 hn        1 3XD      0.385800
     37 H12        -0.6390   -4.9460   -3.4970 ha        1 3XD      0.146500
     38 H13        -0.9920   -6.0130   -5.7250 ha        1 3XD      0.156000
     39 H14         0.1990   -5.1310   -7.7370 ha        1 3XD      0.156000
     40 H15         1.7460   -3.1820   -7.5190 ha        1 3XD      0.156000
     41 H16         2.1030   -2.1120   -5.2920 ha        1 3XD      0.146500
     42 H2'        -0.0600   -0.5450    1.2730 h1        1 3XD      0.050700
     43 H2'A        1.1740   -0.2010    2.5480 h1        1 3XD      0.050700
     44 H3'         1.0720    1.9920    1.6310 h1        1 3XD      0.082700
     45 H3AA        4.6090    4.2890   -0.3170 ha        1 3XD      0.144000
     46 H4'         3.3870    1.4120    1.4130 hc        1 3XD      0.084700
     47 H5'         4.0000   -0.7240    0.6810 h1        1 3XD      0.071200
     48 H5'A        3.0950   -0.5880   -0.8840 h1        1 3XD      0.071200
     49 H5A         8.4860    2.5540   -1.1380 ha        1 3XD      0.151000
     50 HN6A        8.4140    0.2480   -1.8710 hn        1 3XD      0.412300
     51 HN6B        7.0650   -0.7440   -1.7880 hn        1 3XD      0.412300
     52 H7A         2.7220    3.0230   -0.4860 hc        1 3XD      0.058200
     53 H7AA        2.7500    1.6070   -1.6080 hc        1 3XD      0.058200
     54 H8A         6.6310    5.7130   -0.9330 hc        1 3XD      0.056367
     55 H8AA        7.3560    5.0930    0.6100 hc        1 3XD      0.056367
     56 H8AB        8.2760    4.9440   -0.9460 hc        1 3XD      0.056367
     57 H22         0.9040   -0.3950   -1.5220 hn        1 3XD      0.480800
@<TRIPOS>BOND
     1    1    2 1   
     2    1    3 1   
     3    1   29 1   
     4    1   30 1   
     5    2   19 1   
     6    3    4 1   
     7    3   31 1   
     8    3   32 1   
     9    4    5 1   
    10    4   33 1   
    11    4   57 1   
    12    5    6 1   
    13    5   34 1   
    14    5   35 1   
    15    6    7 1   
    16    6    8 1   
    17    6   10 1   
    18    9   17 1   
    19    9   23 1   
    20    9   36 1   
    21   10   11 ar  
    22   10   15 ar  
    23   11   12 ar  
    24   11   37 1   
    25   12   13 ar  
    26   12   38 1   
    27   13   14 ar  
    28   13   39 1   
    29   14   15 ar  
    30   14   40 1   
    31   15   41 1   
    32   16   18 ar  
    33   16   25 ar  
    34   17   19 1   
    35   17   42 1   
    36   17   43 1   
    37   18   20 ar  
    38   18   27 1   
    39   19   21 1   
    40   19   44 1   
    41   20   22 ar  
    42   20   45 1   
    43   21   23 1   
    44   21   27 1   
    45   21   46 1   
    46   22   24 ar  
    47   22   28 1   
    48   23   47 1   
    49   23   48 1   
    50   24   25 ar  
    51   24   49 1   
    52   25   26 1   
    53   26   50 1   
    54   26   51 1   
    55   27   52 1   
    56   27   53 1   
    57   28   54 1   
    58   28   55 1   
    59   28   56 1   
@<TRIPOS>SUBSTRUCTURE
     1 3XD         1 TEMP              0 ****  ****    0 ROOT
