@<TRIPOS>MOLECULE
3XD
   56    58     1     0     0
SMALL
bcc


@<TRIPOS>ATOM
      1 C1          0.2640    3.0170    1.3260 c3        1 3XD      0.121400
      2 O1         -0.6940    2.0950    0.8090 os        1 3XD     -0.422600
      3 C2          1.5330    2.2100    1.6200 c3        1 3XD      0.167800
      4 N2          2.2090    1.7650    0.4190 n3        1 3XD     -0.820200
      5 C3          3.2370    0.7870    0.6810 c3        1 3XD      0.131800
      6 C4          3.7720    0.0860   -0.6190 c3        1 3XD      0.458900
      7 F5          2.7440   -0.5210   -1.3190 f         1 3XD     -0.234300
      8 F6          4.2350    0.9950   -1.5490 f         1 3XD     -0.234300
      9 N1'        -2.7060    2.9870   -1.9280 n3        1 3XD     -0.786200
     10 C11         4.8460   -0.9050   -0.1850 ca        1 3XD     -0.155300
     11 C12         6.1810   -0.4980   -0.1150 ca        1 3XD     -0.098000
     12 C13         7.1570   -1.3950    0.3180 ca        1 3XD     -0.133000
     13 C14         6.8020   -2.6950    0.6780 ca        1 3XD     -0.114000
     14 C15         5.4690   -3.1010    0.6020 ca        1 3XD     -0.133000
     15 C16         4.4900   -2.2080    0.1700 ca        1 3XD     -0.098000
     16 N1A        -4.7170   -0.6700    1.1680 nb        1 3XD     -0.732000
     17 C2'        -1.6820    3.4360   -0.9940 c3        1 3XD      0.111800
     18 C2A        -3.6430   -0.7440    0.3510 ca        1 3XD      0.449600
     19 C3'        -1.8910    2.7320    0.3740 c3        1 3XD      0.116100
     20 C3A        -3.4910   -1.7360   -0.6380 ca        1 3XD     -0.290300
     21 C4'        -2.9790    1.6640    0.1280 c3        1 3XD     -0.079700
     22 C4A        -4.4960   -2.7000   -0.7920 ca        1 3XD     -0.006300
     23 C5'        -3.3070    1.7750   -1.3800 c3        1 3XD      0.140800
     24 C5A        -5.6170   -2.6440    0.0330 ca        1 3XD     -0.301300
     25 C6A        -5.7090   -1.6010    1.0040 ca        1 3XD      0.628200
     26 N6A        -6.8860   -1.4810    1.7640 nh        1 3XD     -0.922500
     27 C7A        -2.5420    0.2690    0.5210 c3        1 3XD     -0.113700
     28 C8A        -4.3710   -3.7510   -1.8270 c3        1 3XD     -0.060800
     29 H1          0.4550    3.8350    0.5830 h1        1 3XD      0.040200
     30 H1A        -0.1230    3.4610    2.2810 h1        1 3XD      0.040200
     31 H2          2.2440    2.8770    2.1850 h1        1 3XD      0.040700
     32 H2A         1.2510    1.3510    2.2990 h1        1 3XD      0.040700
     33 HN2         1.5470    1.4190   -0.2550 hn        1 3XD      0.383800
     34 H3          4.1100    1.3150    1.1550 h1        1 3XD      0.054200
     35 H3A         2.9020   -0.0420    1.3690 h1        1 3XD      0.054200
     36 HN1'       -3.4060    3.6990   -2.0390 hn        1 3XD      0.345800
     37 H12         6.4560    0.5260   -0.4110 ha        1 3XD      0.146500
     38 H13         8.2070   -1.0750    0.3720 ha        1 3XD      0.137000
     39 H14         7.5730   -3.4010    1.0190 ha        1 3XD      0.135000
     40 H15         5.1890   -4.1280    0.8800 ha        1 3XD      0.137000
     41 H16         3.4380   -2.5260    0.0970 ha        1 3XD      0.146500
     42 H2'        -0.6810    3.1340   -1.4130 h1        1 3XD      0.058200
     43 H2'A       -1.6910    4.5500   -0.8720 h1        1 3XD      0.058200
     44 H3'        -2.2280    3.4660    1.1540 h1        1 3XD      0.041700
     45 H3AA       -2.5990   -1.7520   -1.2760 ha        1 3XD      0.146000
     46 H4'        -3.8860    1.9470    0.7270 hc        1 3XD      0.070700
     47 H5'        -4.4170    1.7580   -1.5430 h1        1 3XD      0.056200
     48 H5'A       -2.8630    0.9000   -1.9310 h1        1 3XD      0.056200
     49 H5A        -6.4210   -3.3830   -0.0700 ha        1 3XD      0.141000
     50 HN6A       -6.8300   -0.8710    2.5500 hn        1 3XD      0.398800
     51 HN6B       -7.3120   -2.3570    1.9700 hn        1 3XD      0.398800
     52 H7A        -2.2040    0.2840    1.5940 hc        1 3XD      0.068200
     53 H7AA       -1.6570   -0.0370   -0.0990 hc        1 3XD      0.068200
     54 H8A        -3.3120   -4.1030   -1.9080 hc        1 3XD      0.049700
     55 H8AA       -5.0210   -4.6290   -1.5930 hc        1 3XD      0.049700
     56 H8AB       -4.6790   -3.3400   -2.8220 hc        1 3XD      0.049700
@<TRIPOS>BOND
     1    1    2 1   
     2    1    3 1   
     3    1   29 1   
     4    1   30 1   
     5    2   19 1   
     6    3    4 1   
     7    3   31 1   
     8    3   32 1   
     9    4    5 1   
    10    4   33 1   
    11    5    6 1   
    12    5   34 1   
    13    5   35 1   
    14    6    7 1   
    15    6    8 1   
    16    6   10 1   
    17    9   17 1   
    18    9   23 1   
    19    9   36 1   
    20   10   11 ar  
    21   10   15 ar  
    22   11   12 ar  
    23   11   37 1   
    24   12   13 ar  
    25   12   38 1   
    26   13   14 ar  
    27   13   39 1   
    28   14   15 ar  
    29   14   40 1   
    30   15   41 1   
    31   16   18 ar  
    32   16   25 ar  
    33   17   19 1   
    34   17   42 1   
    35   17   43 1   
    36   18   20 ar  
    37   18   27 1   
    38   19   21 1   
    39   19   44 1   
    40   20   22 ar  
    41   20   45 1   
    42   21   23 1   
    43   21   27 1   
    44   21   46 1   
    45   22   24 ar  
    46   22   28 1   
    47   23   47 1   
    48   23   48 1   
    49   24   25 ar  
    50   24   49 1   
    51   25   26 1   
    52   26   50 1   
    53   26   51 1   
    54   27   52 1   
    55   27   53 1   
    56   28   54 1   
    57   28   55 1   
    58   28   56 1   
@<TRIPOS>SUBSTRUCTURE
     1 3XD         1 TEMP              0 ****  ****    0 ROOT
