@<TRIPOS>MOLECULE
3XD
   58    60     1     0     0
SMALL
bcc


@<TRIPOS>ATOM
      1 C1         -0.0080    0.2310   -0.1210 c3        1 3XD      0.101400
      2 O1          1.4150    0.1690   -0.1540 os        1 3XD     -0.460600
      3 C2         -0.5040    0.0760   -1.5600 c3        1 3XD      0.102800
      4 N2         -0.0830   -1.2190   -2.1670 n4        1 3XD     -0.755000
      5 C3         -0.6240   -1.4120   -3.5380 c3        1 3XD      0.029800
      6 C4         -0.0560   -2.7250   -4.2180 c3        1 3XD      0.479900
      7 F5          1.3240   -2.6630   -4.2440 f         1 3XD     -0.223800
      8 F6         -0.2690   -3.8060   -3.3860 f         1 3XD     -0.223800
      9 N1'         3.5060   -1.7980    1.4660 n3        1 3XD     -0.784200
     10 C11        -0.7080   -2.8340   -5.5750 ca        1 3XD     -0.200300
     11 C12        -1.8760   -3.5880   -5.7280 ca        1 3XD     -0.091500
     12 C13        -2.4770   -3.6790   -6.9830 ca        1 3XD     -0.117500
     13 C14        -1.9110   -3.0270   -8.0800 ca        1 3XD     -0.075000
     14 C15        -0.7390   -2.2840   -7.9250 ca        1 3XD     -0.117500
     15 C16        -0.1330   -2.1870   -6.6740 ca        1 3XD     -0.091500
     16 N1A         5.2940    3.1330    0.8900 nb        1 3XD     -0.668000
     17 C2'         2.1200   -1.3800    1.6030 c3        1 3XD      0.128800
     18 C2A         5.1270    2.1090    0.0260 ca        1 3XD      0.455600
     19 C3'         1.9880    0.1010    1.1620 c3        1 3XD      0.113100
     20 C3A         6.1840    1.6270   -0.7870 ca        1 3XD     -0.203300
     21 C4'         3.4340    0.6400    1.1410 c3        1 3XD     -0.088700
     22 C4A         7.4470    2.2150   -0.7100 ca        1 3XD      0.011700
     23 C5'         4.3330   -0.6110    1.2940 c3        1 3XD      0.147800
     24 C5A         7.6400    3.2850    0.1850 ca        1 3XD     -0.207300
     25 C6A         6.5350    3.6930    0.9520 ca        1 3XD      0.454200
     26 N6A         6.6980    4.8120    1.9100 n4        1 3XD     -0.819300
     27 C7A         3.7690    1.4640   -0.0840 c3        1 3XD     -0.119700
     28 C8A         8.5770    1.7320   -1.5340 c3        1 3XD     -0.085800
     29 H1         -0.3390    1.2380    0.2570 h1        1 3XD      0.079700
     30 H1A        -0.4200   -0.5730    0.5470 h1        1 3XD      0.079700
     31 H2         -0.0880    0.9070   -2.1990 hx        1 3XD      0.118200
     32 H2A        -1.6310    0.1290   -1.5680 hx        1 3XD      0.118200
     33 HN2        -0.3940   -2.0010   -1.5740 hn        1 3XD      0.464800
     34 H3         -1.7460   -1.4970   -3.4890 hx        1 3XD      0.132700
     35 H3A        -0.3370   -0.5340   -4.1820 hx        1 3XD      0.132700
     36 HN1'        3.6210   -2.4340    0.7000 hn        1 3XD      0.365800
     37 H12        -2.3070   -4.1250   -4.8680 ha        1 3XD      0.144500
     38 H13        -3.3940   -4.2770   -7.1080 ha        1 3XD      0.162000
     39 H14        -2.3860   -3.1070   -9.0720 ha        1 3XD      0.164000
     40 H15        -0.2860   -1.7810   -8.7940 ha        1 3XD      0.162000
     41 H16         0.8060   -1.6250   -6.5560 ha        1 3XD      0.144500
     42 H2'         1.8470   -1.4640    2.6920 h1        1 3XD      0.063700
     43 H2'A        1.4230   -2.0320    1.0140 h1        1 3XD      0.063700
     44 H3'         1.3560    0.6890    1.8790 h1        1 3XD      0.075700
     45 H3AA        6.0020    0.7870   -1.4780 ha        1 3XD      0.176000
     46 H4'         3.5530    1.2830    2.0570 hc        1 3XD      0.084700
     47 H5'         4.9640   -0.5100    2.2200 h1        1 3XD      0.057200
     48 H5'A        5.0260   -0.7100    0.4140 h1        1 3XD      0.057200
     49 H5A         8.6300    3.7630    0.2600 ha        1 3XD      0.176000
     50 HN6A        5.9900    5.5360    1.7320 hn        1 3XD      0.474467
     51 HN6B        6.5820    4.4650    2.8710 hn        1 3XD      0.474467
     52 H7A         3.7510    0.8140   -0.9990 hc        1 3XD      0.074700
     53 H7AA        2.9820    2.2550   -0.2220 hc        1 3XD      0.074700
     54 H8A         9.2730    1.1180   -0.9040 hc        1 3XD      0.081367
     55 H8AA        8.2190    1.0960   -2.3820 hc        1 3XD      0.081367
     56 H8AB        9.1570    2.5910   -1.9570 hc        1 3XD      0.081367
     57 H22         0.9480   -1.2490   -2.2000 hn        1 3XD      0.464800
     58 H6A3        7.6350    5.2150    1.8020 hn        1 3XD      0.474467
@<TRIPOS>BOND
     1    1    2 1   
     2    1    3 1   
     3    1   29 1   
     4    1   30 1   
     5    2   19 1   
     6    3    4 1   
     7    3   31 1   
     8    3   32 1   
     9    4    5 1   
    10    4   33 1   
    11    4   57 1   
    12    5    6 1   
    13    5   34 1   
    14    5   35 1   
    15    6    7 1   
    16    6    8 1   
    17    6   10 1   
    18    9   17 1   
    19    9   23 1   
    20    9   36 1   
    21   10   11 ar  
    22   10   15 ar  
    23   11   12 ar  
    24   11   37 1   
    25   12   13 ar  
    26   12   38 1   
    27   13   14 ar  
    28   13   39 1   
    29   14   15 ar  
    30   14   40 1   
    31   15   41 1   
    32   16   18 ar  
    33   16   25 ar  
    34   17   19 1   
    35   17   42 1   
    36   17   43 1   
    37   18   20 ar  
    38   18   27 1   
    39   19   21 1   
    40   19   44 1   
    41   20   22 ar  
    42   20   45 1   
    43   21   23 1   
    44   21   27 1   
    45   21   46 1   
    46   22   24 ar  
    47   22   28 1   
    48   23   47 1   
    49   23   48 1   
    50   24   25 ar  
    51   24   49 1   
    52   25   26 1   
    53   26   50 1   
    54   26   51 1   
    55   26   58 1   
    56   27   52 1   
    57   27   53 1   
    58   28   54 1   
    59   28   55 1   
    60   28   56 1   
@<TRIPOS>SUBSTRUCTURE
     1 3XD         1 TEMP              0 ****  ****    0 ROOT
