@<TRIPOS>MOLECULE
3XD
   57    59     1     0     0
SMALL
bcc


@<TRIPOS>ATOM
      1 C1          0.3530   -1.3010    0.4310 c3        1 3XD      0.108400
      2 O1          1.7030   -1.3470    0.8480 os        1 3XD     -0.432600
      3 C2          0.2100   -0.5290   -0.8910 c3        1 3XD      0.067800
      4 N2          1.3100   -0.8420   -1.8450 n4        1 3XD     -0.782000
      5 C3          0.9820   -0.5280   -3.2530 c3        1 3XD      0.048800
      6 C4          0.2110   -1.6810   -4.0050 c3        1 3XD      0.466900
      7 F5          0.8710   -2.8840   -3.8330 f         1 3XD     -0.226300
      8 F6         -0.9970   -1.9400   -3.3870 f         1 3XD     -0.226300
      9 N1'         2.7990   -1.1780    3.8810 n3        1 3XD     -0.788200
     10 C11         0.0820   -1.2550   -5.4530 ca        1 3XD     -0.185300
     11 C12        -1.0810   -0.6200   -5.8960 ca        1 3XD     -0.093000
     12 C13        -1.1830   -0.2180   -7.2270 ca        1 3XD     -0.122000
     13 C14        -0.1310   -0.4550   -8.1130 ca        1 3XD     -0.087000
     14 C15         1.0260   -1.0980   -7.6690 ca        1 3XD     -0.122000
     15 C16         1.1350   -1.5020   -6.3400 ca        1 3XD     -0.093000
     16 N1A         3.6250    0.7050   -1.2350 nb        1 3XD     -0.818000
     17 C2'         1.6700   -0.5920    3.1730 c3        1 3XD      0.128800
     18 C2A         4.6460    0.2550   -0.4660 ca        1 3XD      0.455600
     19 C3'         2.0990   -0.2770    1.7170 c3        1 3XD      0.107100
     20 C3A         5.9600    0.7380   -0.5910 ca        1 3XD     -0.264300
     21 C4'         3.6390   -0.2290    1.7750 c3        1 3XD     -0.077700
     22 C4A         6.2440    1.7220   -1.5490 ca        1 3XD      0.024700
     23 C5'         4.0040   -0.9730    3.0840 c3        1 3XD      0.150800
     24 C5A         5.2010    2.2080   -2.3380 ca        1 3XD     -0.282300
     25 C6A         3.8910    1.6820   -2.1570 ca        1 3XD      0.617200
     26 N6A         2.8360    2.1120   -2.9980 nh        1 3XD     -0.931500
     27 C7A         4.3680   -0.7990    0.5750 c3        1 3XD     -0.129700
     28 C8A         7.6230    2.2330   -1.7070 c3        1 3XD     -0.076800
     29 H1          0.0630   -2.3790    0.2890 h1        1 3XD      0.088200
     30 H1A        -0.3180   -0.8260    1.1920 h1        1 3XD      0.088200
     31 H2          0.2350    0.5800   -0.7000 hx        1 3XD      0.102200
     32 H2A        -0.7800   -0.7990   -1.3590 hx        1 3XD      0.102200
     33 HN2         2.1730   -0.2920   -1.5430 hn        1 3XD      0.485800
     34 H3          0.3520    0.4020   -3.2970 hx        1 3XD      0.127200
     35 H3A         1.9460   -0.3510   -3.8120 hx        1 3XD      0.127200
     36 HN1'        2.6470   -2.1550    4.0480 hn        1 3XD      0.366800
     37 H12        -1.9200   -0.4550   -5.2020 ha        1 3XD      0.145500
     38 H13        -2.1010    0.2770   -7.5800 ha        1 3XD      0.154500
     39 H14        -0.2170   -0.1420   -9.1650 ha        1 3XD      0.155000
     40 H15         1.8520   -1.2960   -8.3710 ha        1 3XD      0.154500
     41 H16         2.0370   -2.0290   -5.9920 ha        1 3XD      0.145500
     42 H2'         1.4050    0.3700    3.6920 h1        1 3XD      0.063200
     43 H2'A        0.7710   -1.2640    3.1850 h1        1 3XD      0.063200
     44 H3'         1.6650    0.6870    1.3510 h1        1 3XD      0.051700
     45 H3AA        6.7600    0.3490    0.0560 ha        1 3XD      0.164000
     46 H4'         3.9240    0.8530    1.8970 hc        1 3XD      0.075700
     47 H5'         4.5200   -1.9450    2.8570 h1        1 3XD      0.058700
     48 H5'A        4.7090   -0.3410    3.6920 h1        1 3XD      0.058700
     49 H5A         5.3930    2.9860   -3.0920 ha        1 3XD      0.160000
     50 HN6A        3.0950    2.9030   -3.5510 hn        1 3XD      0.396800
     51 HN6B        1.9700    2.2590   -2.5230 hn        1 3XD      0.396800
     52 H7A         5.3550   -1.2210    0.9110 hc        1 3XD      0.072700
     53 H7AA        3.7880   -1.6480    0.1250 hc        1 3XD      0.072700
     54 H8A         8.0140    2.6010   -0.7250 hc        1 3XD      0.067033
     55 H8AA        7.6690    3.0720   -2.4440 hc        1 3XD      0.067033
     56 H8AB        8.2960    1.4120   -2.0640 hc        1 3XD      0.067033
     57 H22         1.5390   -1.8410   -1.7670 hn        1 3XD      0.485800
@<TRIPOS>BOND
     1    1    2 1   
     2    1    3 1   
     3    1   29 1   
     4    1   30 1   
     5    2   19 1   
     6    3    4 1   
     7    3   31 1   
     8    3   32 1   
     9    4    5 1   
    10    4   33 1   
    11    4   57 1   
    12    5    6 1   
    13    5   34 1   
    14    5   35 1   
    15    6    7 1   
    16    6    8 1   
    17    6   10 1   
    18    9   17 1   
    19    9   23 1   
    20    9   36 1   
    21   10   11 ar  
    22   10   15 ar  
    23   11   12 ar  
    24   11   37 1   
    25   12   13 ar  
    26   12   38 1   
    27   13   14 ar  
    28   13   39 1   
    29   14   15 ar  
    30   14   40 1   
    31   15   41 1   
    32   16   18 ar  
    33   16   25 ar  
    34   17   19 1   
    35   17   42 1   
    36   17   43 1   
    37   18   20 ar  
    38   18   27 1   
    39   19   21 1   
    40   19   44 1   
    41   20   22 ar  
    42   20   45 1   
    43   21   23 1   
    44   21   27 1   
    45   21   46 1   
    46   22   24 ar  
    47   22   28 1   
    48   23   47 1   
    49   23   48 1   
    50   24   25 ar  
    51   24   49 1   
    52   25   26 1   
    53   26   50 1   
    54   26   51 1   
    55   27   52 1   
    56   27   53 1   
    57   28   54 1   
    58   28   55 1   
    59   28   56 1   
@<TRIPOS>SUBSTRUCTURE
     1 3XD         1 TEMP              0 ****  ****    0 ROOT
