@<TRIPOS>MOLECULE
3XE
   60    62     1     0     0
SMALL
bcc


@<TRIPOS>ATOM
      1 C1         -0.1590    2.6480   -1.9070 c3        1 3XE      0.122400
      2 O1          0.7310    1.9350   -1.0510 os        1 3XE     -0.429600
      3 C2         -1.4360    1.8070   -2.0110 c3        1 3XE      0.167800
      4 N2         -2.1980    1.7890   -0.7780 n3        1 3XE     -0.820200
      5 C3         -3.2490    0.8000   -0.7800 c3        1 3XE      0.131800
      6 C4         -3.9110    0.6000    0.6300 c3        1 3XE      0.458900
      7 F5         -2.9670    0.2620    1.5840 f         1 3XE     -0.234300
      8 F6         -4.4080    1.7810    1.1440 f         1 3XE     -0.234300
      9 N1'         2.1450    3.0250    1.7160 n3        1 3XE     -0.795200
     10 C11        -4.9890   -0.4660    0.4720 ca        1 3XE     -0.155300
     11 C12        -4.6690   -1.8150    0.6450 ca        1 3XE     -0.098500
     12 C13        -5.6500   -2.7890    0.4640 ca        1 3XE     -0.133000
     13 C14        -6.9480   -2.4170    0.1120 ca        1 3XE     -0.114000
     14 C15        -7.2680   -1.0700   -0.0560 ca        1 3XE     -0.133000
     15 C16        -6.2900   -0.0920    0.1250 ca        1 3XE     -0.098500
     16 N1A         4.7540   -0.5710    0.6120 n2        1 3XE     -0.672900
     17 C2'         1.5850    3.6160    0.5090 c3        1 3XE      0.119800
     18 C2A         4.0360   -0.5470   -0.6380 c3        1 3XE      0.141500
     19 C3'         1.8880    2.6920   -0.6980 c3        1 3XE      0.110100
     20 C3A         3.6750   -1.9150   -1.2400 c3        1 3XE     -0.105400
     21 C4'         2.9950    1.7330   -0.2050 c3        1 3XE     -0.069700
     22 C4A         4.8270   -2.8910   -1.0790 c3        1 3XE     -0.066700
     23 C5'         3.0930    1.9870    1.3180 c3        1 3XE      0.153800
     24 C5A         5.1700   -3.0410    0.3950 c3        1 3XE     -0.154700
     25 C6A         5.2500   -1.6830    1.0810 c2        1 3XE      0.586200
     26 N6A         5.8520   -1.7150    2.3600 nh        1 3XE     -0.887800
     27 C7A         2.7420    0.2840   -0.5560 c3        1 3XE     -0.051400
     28 C8A         4.4860   -4.2360   -1.6820 c3        1 3XE     -0.090100
     29 H1         -0.3690    3.6690   -1.4930 h1        1 3XE      0.039200
     30 H1A         0.3040    2.7470   -2.9240 h1        1 3XE      0.039200
     31 H2         -2.0870    2.2640   -2.8090 h1        1 3XE      0.039700
     32 H2A        -1.1450    0.7700   -2.3520 h1        1 3XE      0.039700
     33 HN2        -1.5900    1.6640    0.0120 hn        1 3XE      0.382800
     34 H3         -4.0580    1.1490   -1.4800 h1        1 3XE      0.054200
     35 H3A        -2.9020   -0.2220   -1.1120 h1        1 3XE      0.054200
     36 HN1'        1.4130    2.6260    2.2740 hn        1 3XE      0.350800
     37 H12        -3.6460   -2.1000    0.9350 ha        1 3XE      0.146000
     38 H13        -5.3980   -3.8500    0.6020 ha        1 3XE      0.137000
     39 H14        -7.7210   -3.1880   -0.0310 ha        1 3XE      0.135000
     40 H15        -8.2920   -0.7750   -0.3270 ha        1 3XE      0.137000
     41 H16        -6.5390    0.9750    0.0060 ha        1 3XE      0.146000
     42 H2'         0.4800    3.7890    0.6040 h1        1 3XE      0.054200
     43 H2'A        2.0880    4.6080    0.3500 h1        1 3XE      0.054200
     44 H2AA        4.7290   -0.0240   -1.3700 h1        1 3XE      0.052700
     45 H3'         2.2370    3.2860   -1.5830 h1        1 3XE      0.045700
     46 H3AA        2.7620   -2.3240   -0.7360 hc        1 3XE      0.049700
     47 H3AB        3.4350   -1.7850   -2.3260 hc        1 3XE      0.049700
     48 H4'         3.9580    2.0610   -0.6830 hc        1 3XE      0.058700
     49 H4A         5.7260   -2.4740   -1.6150 hc        1 3XE      0.051700
     50 H5'         4.1250    2.3580    1.5670 h1        1 3XE      0.057200
     51 H5'A        2.9240    1.0390    1.8950 h1        1 3XE      0.057200
     52 H5A         4.3790   -3.6460    0.9130 hc        1 3XE      0.061200
     53 H5AA        6.1410   -3.5930    0.4940 hc        1 3XE      0.061200
     54 HN6A        6.6610   -2.2970    2.3900 hn        1 3XE      0.391300
     55 HN6B        6.0050   -0.8230    2.7800 hn        1 3XE      0.391300
     56 H7A         2.2540    0.2300   -1.5660 hc        1 3XE      0.052700
     57 H7AA        2.0320   -0.1730    0.1800 hc        1 3XE      0.052700
     58 H8A         4.2790   -4.1270   -2.7740 hc        1 3XE      0.036367
     59 H8AA        5.3370   -4.9470   -1.5500 hc        1 3XE      0.036367
     60 H8AB        3.5810   -4.6710   -1.1920 hc        1 3XE      0.036367
@<TRIPOS>BOND
     1    1    2 1   
     2    1    3 1   
     3    1   29 1   
     4    1   30 1   
     5    2   19 1   
     6    3    4 1   
     7    3   31 1   
     8    3   32 1   
     9    4    5 1   
    10    4   33 1   
    11    5    6 1   
    12    5   34 1   
    13    5   35 1   
    14    6    7 1   
    15    6    8 1   
    16    6   10 1   
    17    9   17 1   
    18    9   23 1   
    19    9   36 1   
    20   10   11 ar  
    21   10   15 ar  
    22   11   12 ar  
    23   11   37 1   
    24   12   13 ar  
    25   12   38 1   
    26   13   14 ar  
    27   13   39 1   
    28   14   15 ar  
    29   14   40 1   
    30   15   41 1   
    31   16   18 1   
    32   16   25 2   
    33   17   19 1   
    34   17   42 1   
    35   17   43 1   
    36   18   20 1   
    37   18   27 1   
    38   18   44 1   
    39   19   21 1   
    40   19   45 1   
    41   20   22 1   
    42   20   46 1   
    43   20   47 1   
    44   21   23 1   
    45   21   27 1   
    46   21   48 1   
    47   22   24 1   
    48   22   28 1   
    49   22   49 1   
    50   23   50 1   
    51   23   51 1   
    52   24   25 1   
    53   24   52 1   
    54   24   53 1   
    55   25   26 1   
    56   26   54 1   
    57   26   55 1   
    58   27   56 1   
    59   27   57 1   
    60   28   58 1   
    61   28   59 1   
    62   28   60 1   
@<TRIPOS>SUBSTRUCTURE
     1 3XE         1 TEMP              0 ****  ****    0 ROOT
