@<TRIPOS>MOLECULE
3XE
   60    59     1     0     0
SMALL
bcc


@<TRIPOS>ATOM
      1 C1         -1.4130    0.5200    1.7730 c3        1 3XE     -0.025000
      2 O1         -0.1370   -0.0690    1.6930 os        1 3XE     -0.268000
      3 C2         -1.6710    1.3630    0.5040 c3        1 3XE     -0.113000
      4 N2         -3.0490    1.1450    0.0440 n3        1 3XE     -0.298000
      5 C3         -3.5110    2.3230   -0.6900 c3        1 3XE     -0.094000
      6 C4         -4.5710    1.8930   -1.7540 c3        1 3XE      0.261000
      7 F5         -5.6650    1.4400   -1.1320 f         1 3XE     -0.170000
      8 F6         -4.0600    0.9150   -2.5320 f         1 3XE     -0.170000
      9 N1'         0.8980   -2.3720    4.1370 n3        1 3XE     -0.268000
     10 C11        -4.9440    3.1060   -2.6330 c2        1 3XE     -0.144000
     11 C12        -6.0810    3.8630   -2.3340 c2        1 3XE     -0.100000
     12 C13        -6.4660    4.9010   -3.1770 c1        1 3XE     -0.131000
     13 C14        -5.7240    5.1850   -4.3120 c1        1 3XE     -0.122500
     14 C15        -4.5890    4.4310   -4.6110 c1        1 3XE     -0.122500
     15 C16        -4.2010    3.3920   -3.7710 c1        1 3XE     -0.100000
     16 N1A         3.5610   -3.6500    0.9590 n1        1 3XE     -0.259000
     17 C2'        -0.1920   -1.5860    3.3770 c3        1 3XE     -0.118000
     18 C2A         3.6590   -2.3240    1.4840 c2        1 3XE     -0.020000
     19 C3'         0.4000   -0.4820    2.9720 c3        1 3XE      0.000000
     20 C3A         4.8380   -1.4660    0.7720 c3        1 3XE     -0.182000
     21 C4'         2.0070   -0.8500    2.8260 c3        1 3XE     -0.123000
     22 C4A         4.8220   -1.4580   -0.4780 c3        1 3XE     -0.098000
     23 C5'         2.2790   -1.6350    3.7910 c3        1 3XE     -0.096000
     24 C5A         4.8850   -2.9080   -1.1830 c3        1 3XE     -0.160000
     25 C6A         3.9020   -3.8190   -0.6520 c2        1 3XE      0.073000
     26 N6A         3.6650   -5.0660   -1.3010 n3        1 3XE     -0.326000
     27 C7A         2.2830   -1.5780    1.4240 c3        1 3XE     -0.143000
     28 C8A         3.4300   -0.7090   -0.9710 c3        1 3XE     -0.212000
     29 H1         -2.1030   -0.1920    1.8430 h1        1 3XE      0.094500
     30 H1A        -1.4590    1.1110    2.5850 h1        1 3XE      0.094500
     31 H2         -1.0320    1.0880   -0.2120 h1        1 3XE      0.085500
     32 H2A        -1.5420    2.3120    0.7090 h1        1 3XE      0.085500
     33 HN2        -3.0760    0.4250   -0.4930 hn        1 3XE      0.172000
     34 H3         -3.9170    2.9610   -0.0630 h1        1 3XE      0.115500
     35 H3A        -2.7670    2.7370   -1.1300 h1        1 3XE      0.115500
     36 HN1'        0.9250   -3.2410    3.8280 hn        1 3XE      0.148000
     37 H12        -6.5820    3.6720   -1.5710 ha        1 3XE      0.144000
     38 H13        -7.2680    5.4350   -2.9680 ha        1 3XE      0.138000
     39 H14        -5.9870    5.8920   -4.8850 ha        1 3XE      0.136500
     40 H15        -4.0720    4.6310   -5.4040 ha        1 3XE      0.136500
     41 H16        -3.4160    2.8700   -3.9790 ha        1 3XE      0.145000
     42 H2'        -0.9340   -1.3720    3.9760 h1        1 3XE      0.093500
     43 H2'A       -0.5150   -2.1080    2.5990 h1        1 3XE      0.093500
     44 H2AA        3.8040   -2.3550    2.4330 ha        1 3XE      0.097000
     45 H3'         0.2780    0.2220    3.6280 h1        1 3XE      0.087000
     46 H3AA        5.7020   -1.8300    1.0660 hc        1 3XE      0.083500
     47 H3AB        4.7740   -0.5600    1.0770 hc        1 3XE      0.083500
     48 H4'         2.5350   -0.0530    2.8920 hc        1 3XE      0.092000
     49 H4A         5.5880   -0.9290   -0.7930 hc        1 3XE      0.084000
     50 H5'         2.9300   -2.2660    3.5260 h1        1 3XE      0.093500
     51 H5'A        2.6010   -1.1170    4.5790 h1        1 3XE      0.093500
     52 H5A         5.8010   -3.1740   -1.1020 hc        1 3XE      0.098500
     53 H5AA        4.7810   -2.8900   -2.1410 hc        1 3XE      0.098500
     54 HN6A        2.9810   -5.6110   -1.0130 hn        1 3XE      0.185500
     55 HN6B        4.2470   -5.3630   -1.9690 hn        1 3XE      0.185500
     56 H7A         2.3050   -0.9160    0.7150 hc        1 3XE      0.104000
     57 H7AA        1.5840   -2.2110    1.2490 hc        1 3XE      0.104000
     58 H8A         3.2190    0.0240   -0.3570 hc        1 3XE      0.080000
     59 H8AA        2.7060   -1.3460   -0.9720 hc        1 3XE      0.080000
     60 H8AB        3.5530   -0.3520   -1.8770 hc        1 3XE      0.080000
@<TRIPOS>BOND
     1    1    2 1   
     2    1    3 1   
     3    1   29 1   
     4    1   30 1   
     5    2   19 1   
     6    3    4 1   
     7    3   31 1   
     8    3   32 1   
     9    4    5 1   
    10    4   33 1   
    11    5    6 1   
    12    5   34 1   
    13    5   35 1   
    14    6    7 1   
    15    6    8 1   
    16    6   10 1   
    17    9   17 1   
    18    9   23 1   
    19    9   36 1   
    20   10   11 1   
    21   10   15 1   
    22   11   12 1   
    23   11   37 1   
    24   12   38 1   
    25   13   14 1   
    26   13   39 1   
    27   14   40 1   
    28   15   41 1   
    29   16   25 1   
    30   17   19 1   
    31   17   42 1   
    32   17   43 1   
    33   18   20 1   
    34   18   27 1   
    35   18   44 1   
    36   19   21 1   
    37   19   45 1   
    38   20   22 1   
    39   20   46 1   
    40   20   47 1   
    41   21   23 1   
    42   21   27 1   
    43   21   48 1   
    44   22   24 1   
    45   22   28 1   
    46   22   49 1   
    47   23   50 1   
    48   23   51 1   
    49   24   25 1   
    50   24   52 1   
    51   24   53 1   
    52   25   26 1   
    53   26   54 1   
    54   26   55 1   
    55   27   56 1   
    56   27   57 1   
    57   28   58 1   
    58   28   59 1   
    59   28   60 1   
@<TRIPOS>SUBSTRUCTURE
     1 3XE         1 TEMP              0 ****  ****    0 ROOT
