@<TRIPOS>MOLECULE
3XE
   62    64     1     0     0
SMALL
bcc


@<TRIPOS>ATOM
      1 C1          0.1500    0.3800   -0.3530 c3        1 3XE      0.101400
      2 O1          1.5380    0.0540   -0.3560 os        1 3XE     -0.459600
      3 C2         -0.3630    0.1960   -1.7830 c3        1 3XE      0.102800
      4 N2         -0.1770   -1.1990   -2.2760 n4        1 3XE     -0.755000
      5 C3         -0.7530   -1.4080   -3.6310 c3        1 3XE      0.029800
      6 C4         -0.4290   -2.8540   -4.1930 c3        1 3XE      0.479900
      7 F5          0.9400   -3.0370   -4.2140 f         1 3XE     -0.223800
      8 F6         -0.8220   -3.8060   -3.2740 f         1 3XE     -0.223800
      9 N1'         3.2230   -2.1100    1.4550 n3        1 3XE     -0.788200
     10 C11        -1.1020   -2.9610   -5.5410 ca        1 3XE     -0.200300
     11 C12        -0.4310   -2.5180   -6.6860 ca        1 3XE     -0.091500
     12 C13        -1.0560   -2.6100   -7.9280 ca        1 3XE     -0.117500
     13 C14        -2.3410   -3.1480   -8.0280 ca        1 3XE     -0.075000
     14 C15        -3.0030   -3.5980   -6.8840 ca        1 3XE     -0.117500
     15 C16        -2.3850   -3.5090   -5.6380 ca        1 3XE     -0.091500
     16 N1A         6.4480    1.0790    0.5240 n2        1 3XE     -0.537900
     17 C2'         1.9420   -1.4270    1.5480 c3        1 3XE      0.128800
     18 C2A         5.3480    1.8280   -0.0540 c3        1 3XE      0.124500
     19 C3'         2.0870    0.0050    0.9710 c3        1 3XE      0.112100
     20 C3A         5.7050    2.5940   -1.3370 c3        1 3XE     -0.115400
     21 C4'         3.6080    0.2640    0.9320 c3        1 3XE     -0.086700
     22 C4A         7.0440    3.3000   -1.2070 c3        1 3XE     -0.062700
     23 C5'         4.2560   -1.1230    1.1680 c3        1 3XE      0.157800
     24 C5A         8.1530    2.3030   -0.8780 c3        1 3XE     -0.158700
     25 C6A         7.6610    1.3300    0.1670 c2        1 3XE      0.479200
     26 N6A         8.7520    0.5710    0.8540 n4        1 3XE     -0.811600
     27 C7A         4.1100    0.9520   -0.3150 c3        1 3XE     -0.051400
     28 C8A         7.3860    4.0440   -2.4800 c3        1 3XE     -0.101100
     29 H1         -0.4050   -0.2750    0.3710 h1        1 3XE      0.079700
     30 H1A         0.0100    1.4580   -0.0660 h1        1 3XE      0.079700
     31 H2         -1.4620    0.4470   -1.8140 hx        1 3XE      0.117700
     32 H2A         0.1950    0.8840   -2.4810 hx        1 3XE      0.117700
     33 HN2        -0.6160   -1.8610   -1.6220 hn        1 3XE      0.464800
     34 H3         -1.8720   -1.2900   -3.5840 hx        1 3XE      0.132700
     35 H3A        -0.3210   -0.6520   -4.3440 hx        1 3XE      0.132700
     36 HN1'        3.2020   -2.8250    0.7530 hn        1 3XE      0.363800
     37 H12         0.5920   -2.1200   -6.6090 ha        1 3XE      0.144500
     38 H13        -0.5290   -2.2680   -8.8340 ha        1 3XE      0.162000
     39 H14        -2.8300   -3.2260   -9.0130 ha        1 3XE      0.164000
     40 H15        -4.0110   -4.0350   -6.9650 ha        1 3XE      0.162000
     41 H16        -2.8960   -3.8890   -4.7390 ha        1 3XE      0.144500
     42 H2'         1.6740   -1.3570    2.6390 h1        1 3XE      0.063700
     43 H2'A        1.1270   -1.9870    1.0200 h1        1 3XE      0.063700
     44 H2AA        5.0750    2.5820    0.7530 h1        1 3XE      0.105700
     45 H3'         1.5720    0.7620    1.6190 h1        1 3XE      0.074700
     46 H3AA        4.9030    3.3520   -1.5340 hc        1 3XE      0.076200
     47 H3AB        5.7280    1.8900   -2.2090 hc        1 3XE      0.076200
     48 H4'         3.8360    0.9130    1.8250 hc        1 3XE      0.078700
     49 H4A         6.9760    4.0450   -0.3630 hc        1 3XE      0.073700
     50 H5'         4.9280   -1.0720    2.0680 h1        1 3XE      0.051700
     51 H5'A        4.8830   -1.4270    0.2870 h1        1 3XE      0.051700
     52 H5A         8.4380    1.7280   -1.8020 hc        1 3XE      0.090700
     53 H5AA        9.0580    2.8640   -0.5250 hc        1 3XE      0.090700
     54 HN6A        9.3270    0.1110    0.1400 hn        1 3XE      0.472800
     55 HN6B        9.3310    1.2380    1.3770 hn        1 3XE      0.472800
     56 H7A         3.3140    1.6420   -0.7090 hc        1 3XE      0.065200
     57 H7AA        4.3290    0.2030   -1.1190 hc        1 3XE      0.065200
     58 H8A         7.4280    3.3470   -3.3520 hc        1 3XE      0.059367
     59 H8AA        8.3760    4.5510   -2.3810 hc        1 3XE      0.059367
     60 H8AB        6.6110    4.8220   -2.6860 hc        1 3XE      0.059367
     61 H22         0.8320   -1.4100   -2.2980 hn        1 3XE      0.464800
     62 H6A3        8.3840   -0.1370    1.5030 hn        1 3XE      0.472800
@<TRIPOS>BOND
     1    1    2 1   
     2    1    3 1   
     3    1   29 1   
     4    1   30 1   
     5    2   19 1   
     6    3    4 1   
     7    3   31 1   
     8    3   32 1   
     9    4    5 1   
    10    4   33 1   
    11    4   61 1   
    12    5    6 1   
    13    5   34 1   
    14    5   35 1   
    15    6    7 1   
    16    6    8 1   
    17    6   10 1   
    18    9   17 1   
    19    9   23 1   
    20    9   36 1   
    21   10   11 ar  
    22   10   15 ar  
    23   11   12 ar  
    24   11   37 1   
    25   12   13 ar  
    26   12   38 1   
    27   13   14 ar  
    28   13   39 1   
    29   14   15 ar  
    30   14   40 1   
    31   15   41 1   
    32   16   18 1   
    33   16   25 2   
    34   17   19 1   
    35   17   42 1   
    36   17   43 1   
    37   18   20 1   
    38   18   27 1   
    39   18   44 1   
    40   19   21 1   
    41   19   45 1   
    42   20   22 1   
    43   20   46 1   
    44   20   47 1   
    45   21   23 1   
    46   21   27 1   
    47   21   48 1   
    48   22   24 1   
    49   22   28 1   
    50   22   49 1   
    51   23   50 1   
    52   23   51 1   
    53   24   25 1   
    54   24   52 1   
    55   24   53 1   
    56   25   26 1   
    57   26   54 1   
    58   26   55 1   
    59   26   62 1   
    60   27   56 1   
    61   27   57 1   
    62   28   58 1   
    63   28   59 1   
    64   28   60 1   
@<TRIPOS>SUBSTRUCTURE
     1 3XE         1 TEMP              0 ****  ****    0 ROOT
