@<TRIPOS>MOLECULE
3XE
   62    64     1     0     0
SMALL
bcc


@<TRIPOS>ATOM
      1 C1          0.5750    1.1910   -0.5360 c3        1 3XE      0.108400
      2 O1          1.9270    0.7820   -0.6700 os        1 3XE     -0.440600
      3 C2         -0.2280    0.6620   -1.7370 c3        1 3XE      0.083800
      4 N2          0.0510   -0.7650   -2.0590 n4        1 3XE     -0.751000
      5 C3         -0.6390   -1.2090   -3.2970 c3        1 3XE      0.033800
      6 C4         -0.2450   -2.6880   -3.7000 c3        1 3XE      0.479900
      7 F5          1.1260   -2.7760   -3.8440 f         1 3XE     -0.223300
      8 F6         -0.4720   -3.5390   -2.6370 f         1 3XE     -0.223300
      9 N1'         2.0440   -2.2370   -0.2270 n3        1 3XE     -0.850200
     10 C11        -1.0280   -3.0220   -4.9490 ca        1 3XE     -0.198300
     11 C12        -0.5100   -2.6810   -6.2030 ca        1 3XE     -0.092500
     12 C13        -1.2370   -2.9800   -7.3540 ca        1 3XE     -0.118000
     13 C14        -2.4740   -3.6210   -7.2540 ca        1 3XE     -0.077000
     14 C15        -2.9830   -3.9690   -6.0020 ca        1 3XE     -0.118000
     15 C16        -2.2620   -3.6730   -4.8460 ca        1 3XE     -0.092500
     16 N1A         6.5100    0.9160    0.4570 n2        1 3XE     -0.546900
     17 C2'         1.6580   -1.2330    0.7610 c3        1 3XE      0.103800
     18 C2A         5.3940    1.4220   -0.3220 c3        1 3XE      0.128500
     19 C3'         2.4740    0.0410    0.4260 c3        1 3XE      0.126100
     20 C3A         5.7730    2.4850   -1.3650 c3        1 3XE     -0.115400
     21 C4'         3.8170   -0.5570   -0.0630 c3        1 3XE     -0.083700
     22 C4A         6.7840    3.4780   -0.8170 c3        1 3XE     -0.062700
     23 C5'         3.3900   -1.9040   -0.7020 c3        1 3XE      0.144800
     24 C5A         8.0430    2.7550   -0.3410 c3        1 3XE     -0.159700
     25 C6A         7.6450    1.5250    0.4410 c2        1 3XE      0.485200
     26 N6A         8.7410    0.9660    1.2920 n4        1 3XE     -0.812600
     27 C7A         4.6170    0.2920   -1.0200 c3        1 3XE     -0.055400
     28 C8A         7.1500    4.5060   -1.8650 c3        1 3XE     -0.101100
     29 H1          0.5710    2.3160   -0.5960 h1        1 3XE      0.087700
     30 H1A         0.1150    0.8760    0.4350 h1        1 3XE      0.087700
     31 H2         -1.3290    0.7780   -1.5260 hx        1 3XE      0.112200
     32 H2A         0.0340    1.2720   -2.6500 hx        1 3XE      0.112200
     33 HN2         1.0730   -0.8880   -2.1710 hn        1 3XE      0.472800
     34 H3         -0.3560   -0.5320   -4.1500 hx        1 3XE      0.128200
     35 H3A        -1.7530   -1.1720   -3.1380 hx        1 3XE      0.128200
     36 HN1'        2.0030   -3.1630    0.1530 hn        1 3XE      0.395800
     37 H12         0.4760   -2.1990   -6.2810 ha        1 3XE      0.144000
     38 H13        -0.8300   -2.7180   -8.3430 ha        1 3XE      0.160500
     39 H14        -3.0450   -3.8610   -8.1660 ha        1 3XE      0.163000
     40 H15        -3.9530   -4.4870   -5.9240 ha        1 3XE      0.160500
     41 H16        -2.6510   -3.9700   -3.8600 ha        1 3XE      0.144000
     42 H2'         0.5500   -1.0730    0.7040 h1        1 3XE      0.057700
     43 H2'A        1.8930   -1.5360    1.8200 h1        1 3XE      0.057700
     44 H2AA        4.7040    1.8950    0.4480 h1        1 3XE      0.100700
     45 H3'         2.5790    0.7200    1.3090 h1        1 3XE      0.077700
     46 H3AA        4.8430    3.0320   -1.6700 hc        1 3XE      0.078700
     47 H3AB        6.1880    1.9870   -2.2810 hc        1 3XE      0.078700
     48 H4'         4.4260   -0.7720    0.8570 hc        1 3XE      0.079700
     49 H4A         6.3250    4.0090    0.0660 hc        1 3XE      0.069700
     50 H5'         4.1410   -2.7030   -0.4600 h1        1 3XE      0.062200
     51 H5'A        3.3360   -1.8080   -1.8210 h1        1 3XE      0.062200
     52 H5A         8.6610    2.4390   -1.2250 hc        1 3XE      0.091700
     53 H5AA        8.6580    3.4580    0.2810 hc        1 3XE      0.091700
     54 HN6A        8.4640    0.0940    1.7610 hn        1 3XE      0.472800
     55 HN6B        9.5540    0.7840    0.6920 hn        1 3XE      0.472800
     56 H7A         3.9330    0.7750   -1.7680 hc        1 3XE      0.075200
     57 H7AA        5.3260   -0.3660   -1.5910 hc        1 3XE      0.075200
     58 H8A         7.5780    4.0170   -2.7730 hc        1 3XE      0.060033
     59 H8AA        7.9020    5.2250   -1.4580 hc        1 3XE      0.060033
     60 H8AB        6.2410    5.0820   -2.1670 hc        1 3XE      0.060033
     61 H22        -0.2390   -1.3710   -1.2790 hn        1 3XE      0.472800
     62 H6A3        8.9920    1.6640    2.0010 hn        1 3XE      0.472800
@<TRIPOS>BOND
     1    1    2 1   
     2    1    3 1   
     3    1   29 1   
     4    1   30 1   
     5    2   19 1   
     6    3    4 1   
     7    3   31 1   
     8    3   32 1   
     9    4    5 1   
    10    4   33 1   
    11    4   61 1   
    12    5    6 1   
    13    5   34 1   
    14    5   35 1   
    15    6    7 1   
    16    6    8 1   
    17    6   10 1   
    18    9   17 1   
    19    9   23 1   
    20    9   36 1   
    21   10   11 ar  
    22   10   15 ar  
    23   11   12 ar  
    24   11   37 1   
    25   12   13 ar  
    26   12   38 1   
    27   13   14 ar  
    28   13   39 1   
    29   14   15 ar  
    30   14   40 1   
    31   15   41 1   
    32   16   18 1   
    33   16   25 2   
    34   17   19 1   
    35   17   42 1   
    36   17   43 1   
    37   18   20 1   
    38   18   27 1   
    39   18   44 1   
    40   19   21 1   
    41   19   45 1   
    42   20   22 1   
    43   20   46 1   
    44   20   47 1   
    45   21   23 1   
    46   21   27 1   
    47   21   48 1   
    48   22   24 1   
    49   22   28 1   
    50   22   49 1   
    51   23   50 1   
    52   23   51 1   
    53   24   25 1   
    54   24   52 1   
    55   24   53 1   
    56   25   26 1   
    57   26   54 1   
    58   26   55 1   
    59   26   62 1   
    60   27   56 1   
    61   27   57 1   
    62   28   58 1   
    63   28   59 1   
    64   28   60 1   
@<TRIPOS>SUBSTRUCTURE
     1 3XE         1 TEMP              0 ****  ****    0 ROOT
