@<TRIPOS>MOLECULE
3XE
   62    64     1     0     0
SMALL
bcc


@<TRIPOS>ATOM
      1 C1          0.5780    1.1290   -0.4780 c3        1 3XE      0.108400
      2 O1          1.9320    0.7390   -0.6370 os        1 3XE     -0.440600
      3 C2         -0.2320    0.6270   -1.6860 c3        1 3XE      0.083800
      4 N2          0.0570   -0.7870   -2.0510 ny        1 3XE     -0.751000
      5 C3         -0.6430   -1.2030   -3.2940 c3        1 3XE      0.033800
      6 C4         -0.2410   -2.6670   -3.7430 c3        1 3XE      0.479900
      7 F5          1.1290   -2.7380   -3.9040 f         1 3XE     -0.223300
      8 F6         -0.4480   -3.5480   -2.7010 f         1 3XE     -0.223300
      9 N1'         2.0850   -2.2900   -0.2840 n7        1 3XE     -0.850200
     10 C11        -1.0350   -2.9730   -4.9920 ca        1 3XE     -0.198300
     11 C12        -0.5340   -2.5920   -6.2410 ca        1 3XE     -0.092500
     12 C13        -1.2710   -2.8660   -7.3920 ca        1 3XE     -0.118000
     13 C14        -2.5010   -3.5200   -7.2960 ca        1 3XE     -0.077000
     14 C15        -2.9940   -3.9070   -6.0480 ca        1 3XE     -0.118000
     15 C16        -2.2610   -3.6370   -4.8930 ca        1 3XE     -0.092500
     16 N1A         6.5240    0.8900    0.4470 n2        1 3XE     -0.546900
     17 C2'         1.6980   -1.3190    0.7370 c3        1 3XE      0.103800
     18 C2A         5.3950    1.4060   -0.3050 c3        1 3XE      0.128500
     19 C3'         2.4980   -0.0270    0.4310 c3        1 3XE      0.126100
     20 C3A         5.7510    2.5030   -1.3200 c3        1 3XE     -0.115400
     21 C4'         3.8420   -0.5970   -0.0880 c3        1 3XE     -0.083700
     22 C4A         6.7570    3.4910   -0.7530 c3        1 3XE     -0.062700
     23 C5'         3.4220   -1.9300   -0.7610 c3        1 3XE      0.144800
     24 C5A         8.0280    2.7690   -0.3110 c3        1 3XE     -0.159700
     25 C6A         7.6530    1.5120    0.4370 c2        1 3XE      0.485200
     26 N6A         8.7640    0.9410    1.2600 nz        1 3XE     -0.812600
     27 C7A         4.6230    0.2880   -1.0280 c3        1 3XE     -0.055400
     28 C8A         7.1000    4.5550   -1.7730 c3        1 3XE     -0.101100
     29 H1          0.5610    2.2560   -0.5060 h1        1 3XE      0.087700
     30 H1A         0.1310    0.7820    0.4880 h1        1 3XE      0.087700
     31 H2          0.0150    1.2650   -2.5830 hx        1 3XE      0.112200
     32 H2A        -1.3320    0.7270   -1.4610 hx        1 3XE      0.112200
     33 HN2         1.0790   -0.8970   -2.1780 hn        1 3XE      0.472800
     34 H3         -0.3740   -0.4990   -4.1310 hx        1 3XE      0.128200
     35 H3A        -1.7550   -1.1800   -3.1220 hx        1 3XE      0.128200
     36 HN1'        2.0570   -3.2280    0.0700 hn        1 3XE      0.395800
     37 H12         0.4480   -2.1000   -6.3170 ha        1 3XE      0.144000
     38 H13        -0.8770   -2.5730   -8.3780 ha        1 3XE      0.160500
     39 H14        -3.0800   -3.7400   -8.2080 ha        1 3XE      0.163000
     40 H15        -3.9580   -4.4340   -5.9740 ha        1 3XE      0.160500
     41 H16        -2.6380   -3.9640   -3.9110 ha        1 3XE      0.144000
     42 H2'         0.5890   -1.1690    0.6960 h1        1 3XE      0.057200
     43 H2'A        1.9480   -1.6500    1.7840 h1        1 3XE      0.057200
     44 H2AA        4.7080    1.8480    0.4850 h1        1 3XE      0.100700
     45 H3'         2.6050    0.6260    1.3320 h1        1 3XE      0.077700
     46 H3AA        6.1620    2.0370   -2.2540 hc        1 3XE      0.078700
     47 H3AB        4.8120    3.0490   -1.6000 hc        1 3XE      0.078700
     48 H4'         4.4630   -0.8320    0.8190 hc        1 3XE      0.079700
     49 H4A         6.3010    3.9910    0.1490 hc        1 3XE      0.069700
     50 H5'         3.3560   -1.8010   -1.8770 h1        1 3XE      0.062200
     51 H5'A        4.1840   -2.7260   -0.5500 h1        1 3XE      0.062200
     52 H5A         8.6420    3.4610    0.3250 hc        1 3XE      0.091700
     53 H5AA        8.6410    2.4870   -1.2110 hc        1 3XE      0.091700
     54 HN6A        9.0150    1.6210    1.9870 hn        1 3XE      0.472800
     55 HN6B        8.5020    0.0520    1.7060 hn        1 3XE      0.472800
     56 H7A         5.3340   -0.3450   -1.6240 hc        1 3XE      0.075200
     57 H7AA        3.9260    0.7850   -1.7560 hc        1 3XE      0.075200
     58 H8A         6.1820    5.1280   -2.0500 hc        1 3XE      0.060033
     59 H8AA        7.8480    5.2700   -1.3530 hc        1 3XE      0.060033
     60 H8AB        7.5240    4.0980   -2.7000 hc        1 3XE      0.060033
     61 H22        -0.2180   -1.4180   -1.2860 hn        1 3XE      0.472800
     62 H6A3        9.5730    0.7870    0.6470 hn        1 3XE      0.472800
@<TRIPOS>BOND
     1    1    2 1   
     2    1    3 1   
     3    1   29 1   
     4    1   30 1   
     5    2   19 1   
     6    3    4 1   
     7    3   31 1   
     8    3   32 1   
     9    4    5 1   
    10    4   33 1   
    11    4   61 1   
    12    5    6 1   
    13    5   34 1   
    14    5   35 1   
    15    6    7 1   
    16    6    8 1   
    17    6   10 1   
    18    9   17 1   
    19    9   23 1   
    20    9   36 1   
    21   10   11 ar  
    22   10   15 ar  
    23   11   12 ar  
    24   11   37 1   
    25   12   13 ar  
    26   12   38 1   
    27   13   14 ar  
    28   13   39 1   
    29   14   15 ar  
    30   14   40 1   
    31   15   41 1   
    32   16   18 1   
    33   16   25 2   
    34   17   19 1   
    35   17   42 1   
    36   17   43 1   
    37   18   20 1   
    38   18   27 1   
    39   18   44 1   
    40   19   21 1   
    41   19   45 1   
    42   20   22 1   
    43   20   46 1   
    44   20   47 1   
    45   21   23 1   
    46   21   27 1   
    47   21   48 1   
    48   22   24 1   
    49   22   28 1   
    50   22   49 1   
    51   23   50 1   
    52   23   51 1   
    53   24   25 1   
    54   24   52 1   
    55   24   53 1   
    56   25   26 1   
    57   26   54 1   
    58   26   55 1   
    59   26   62 1   
    60   27   56 1   
    61   27   57 1   
    62   28   58 1   
    63   28   59 1   
    64   28   60 1   
@<TRIPOS>SUBSTRUCTURE
     1 3XE         1 TEMP              0 ****  ****    0 ROOT
