@<TRIPOS>MOLECULE
3XF
   61    63     1     0     0
SMALL
bcc


@<TRIPOS>ATOM
      1 O1         -1.1590   -2.9220    0.0320 os        1 3XF     -0.433600
      2 C2         -0.2910   -3.8520    0.6760 c3        1 3XF      0.122400
      3 C3          1.1380   -3.4360    0.3070 c3        1 3XF      0.164800
      4 N4          1.5150   -2.1540    0.8700 n3        1 3XF     -0.818200
      5 C5          2.6540   -1.5560    0.2110 c3        1 3XF      0.133800
      6 C6          2.8390   -0.0430    0.5630 c3        1 3XF      0.400600
      7 F7          1.6810    0.6780    0.3300 f         1 3XF     -0.241800
      8 F8          3.0350    0.1640    1.9120 f         1 3XF     -0.241800
      9 N1'        -4.1160   -3.2980   -1.3390 n3        1 3XF     -0.792200
     10 N11         5.2770   -0.1400    0.0290 n3        1 3XF     -0.798200
     11 C12         4.0290    0.5400   -0.2940 c3        1 3XF      0.127500
     12 C13         4.0730    2.0660   -0.1290 c3        1 3XF     -0.115400
     13 C14         5.2500    2.6540   -0.8770 c3        1 3XF     -0.075400
     14 C15         6.5470    1.9710   -0.4950 c3        1 3XF     -0.116400
     15 C16         6.4170    0.4540   -0.6420 c3        1 3XF      0.154800
     16 N1A        -4.0560    1.1090   -0.1530 nb        1 3XF     -0.732000
     17 C2'        -3.3070   -4.0120   -0.3600 c3        1 3XF      0.120800
     18 C2A        -2.7350    0.8730   -0.0220 ca        1 3XF      0.450600
     19 C3'        -2.5090   -2.9860    0.4850 c3        1 3XF      0.110100
     20 C3A        -1.7830    1.8960    0.1840 ca        1 3XF     -0.293300
     21 C4'        -3.1930   -1.6240    0.2190 c3        1 3XF     -0.072700
     22 C4A        -2.2200    3.2210    0.2620 ca        1 3XF     -0.005300
     23 C5'        -4.2130   -1.9040   -0.9100 c3        1 3XF      0.151800
     24 C5A        -3.5820    3.4920    0.1380 ca        1 3XF     -0.304300
     25 C6A        -4.4870    2.4070   -0.0560 ca        1 3XF      0.629200
     26 N6A        -5.8690    2.6670   -0.0770 nh        1 3XF     -0.922500
     27 C7A        -2.2060   -0.5310   -0.1280 c3        1 3XF     -0.116700
     28 C8A        -1.2530    4.3190    0.4900 c3        1 3XF     -0.059800
     29 H2         -0.4480   -3.8370    1.7860 h1        1 3XF      0.039700
     30 H2A        -0.4950   -4.8830    0.2840 h1        1 3XF      0.039700
     31 H3          1.8430   -4.2100    0.7210 h1        1 3XF      0.042200
     32 H3A         1.2250   -3.4540   -0.8190 h1        1 3XF      0.042200
     33 HN4         0.7300   -1.5250    0.8600 hn        1 3XF      0.375800
     34 H5          3.5740   -2.1050    0.5550 h1        1 3XF      0.061700
     35 H5A         2.5990   -1.6180   -0.9140 h1        1 3XF      0.061700
     36 HN1'       -3.6800   -3.3480   -2.2420 hn        1 3XF      0.347800
     37 HN11        5.4140   -0.1220    1.0260 hn        1 3XF      0.362800
     38 H12         3.7920    0.3050   -1.3730 h1        1 3XF      0.077700
     39 H13         3.1160    2.5010   -0.5160 hc        1 3XF      0.059200
     40 H13A        4.1420    2.3180    0.9620 hc        1 3XF      0.059200
     41 H14         5.0820    2.5430   -1.9810 hc        1 3XF      0.044700
     42 H14A        5.3210    3.7510   -0.6560 hc        1 3XF      0.044700
     43 H15         7.3780    2.3320   -1.1530 hc        1 3XF      0.048200
     44 H15A        6.8140    2.2300    0.5620 hc        1 3XF      0.048200
     45 H16         7.3460   -0.0410   -0.2430 h1        1 3XF      0.054700
     46 H16A        6.3320    0.2020   -1.7370 h1        1 3XF      0.054700
     47 H2'        -4.0080   -4.5780    0.3120 h1        1 3XF      0.053200
     48 H2'A       -2.6110   -4.7440   -0.8480 h1        1 3XF      0.053200
     49 H3'        -2.5450   -3.2460    1.5750 h1        1 3XF      0.052700
     50 H3AA       -0.7160    1.6470    0.2810 ha        1 3XF      0.152000
     51 H4'        -3.7510   -1.3340    1.1490 hc        1 3XF      0.072700
     52 H5'        -4.0610   -1.2010   -1.7710 h1        1 3XF      0.056700
     53 H5'A       -5.2540   -1.7440   -0.5170 h1        1 3XF      0.056700
     54 H5AA       -3.9520    4.5240    0.2020 ha        1 3XF      0.140000
     55 HN6A       -6.4440    1.9190   -0.3980 hn        1 3XF      0.398300
     56 HN6B       -6.0980    3.5470   -0.4820 hn        1 3XF      0.398300
     57 H7A        -1.8250   -0.6840   -1.1740 hc        1 3XF      0.064200
     58 H7AA       -1.3200   -0.6150    0.5610 hc        1 3XF      0.064200
     59 H8A        -0.2670    4.0850    0.0180 hc        1 3XF      0.049033
     60 H8AA       -1.6310    5.2830    0.0690 hc        1 3XF      0.049033
     61 H8AB       -1.0900    4.4560    1.5890 hc        1 3XF      0.049033
@<TRIPOS>BOND
     1    1    2 1   
     2    1   19 1   
     3    2    3 1   
     4    2   29 1   
     5    2   30 1   
     6    3    4 1   
     7    3   31 1   
     8    3   32 1   
     9    4    5 1   
    10    4   33 1   
    11    5    6 1   
    12    5   34 1   
    13    5   35 1   
    14    6    7 1   
    15    6    8 1   
    16    6   11 1   
    17    9   17 1   
    18    9   23 1   
    19    9   36 1   
    20   10   11 1   
    21   10   15 1   
    22   10   37 1   
    23   11   12 1   
    24   11   38 1   
    25   12   13 1   
    26   12   39 1   
    27   12   40 1   
    28   13   14 1   
    29   13   41 1   
    30   13   42 1   
    31   14   15 1   
    32   14   43 1   
    33   14   44 1   
    34   15   45 1   
    35   15   46 1   
    36   16   18 ar  
    37   16   25 ar  
    38   17   19 1   
    39   17   47 1   
    40   17   48 1   
    41   18   20 ar  
    42   18   27 1   
    43   19   21 1   
    44   19   49 1   
    45   20   22 ar  
    46   20   50 1   
    47   21   23 1   
    48   21   27 1   
    49   21   51 1   
    50   22   24 ar  
    51   22   28 1   
    52   23   52 1   
    53   23   53 1   
    54   24   25 ar  
    55   24   54 1   
    56   25   26 1   
    57   26   55 1   
    58   26   56 1   
    59   27   57 1   
    60   27   58 1   
    61   28   59 1   
    62   28   60 1   
    63   28   61 1   
@<TRIPOS>SUBSTRUCTURE
     1 3XF         1 TEMP              0 ****  ****    0 ROOT
