@<TRIPOS>MOLECULE
3XF
   63    65     1     0     0
SMALL
bcc


@<TRIPOS>ATOM
      1 O1         -0.2360    1.0330    1.3970 os        1 3XF     -0.440600
      2 C2         -0.3360    1.6580    0.1310 c3        1 3XF      0.105400
      3 C3         -1.7470    1.4830   -0.4500 c3        1 3XF      0.068800
      4 N4         -2.8000    1.9890    0.4770 n4        1 3XF     -0.755000
      5 C5         -4.1740    1.7780   -0.0540 c3        1 3XF      0.039800
      6 C6         -5.2720    2.3040    0.9440 c3        1 3XF      0.396600
      7 F7         -5.1170    1.6960    2.1720 f         1 3XF     -0.226800
      8 F8         -5.0470    3.6310    1.2440 f         1 3XF     -0.226800
      9 N1'        -0.7540   -1.7320    3.1320 n3        1 3XF     -0.782200
     10 N11        -6.8100    2.7390   -0.9580 n3        1 3XF     -0.813200
     11 C12        -6.6840    2.0310    0.3120 c3        1 3XF      0.141500
     12 C13        -7.7820    2.3540    1.3320 c3        1 3XF     -0.111400
     13 C14        -9.1420    2.1030    0.7100 c3        1 3XF     -0.080400
     14 C15        -9.2980    2.8170   -0.6170 c3        1 3XF     -0.118400
     15 C16        -8.1240    2.5180   -1.5490 c3        1 3XF      0.145800
     16 N1A         4.1240    0.1130    3.6200 nb        1 3XF     -0.670000
     17 C2'        -0.9490   -1.2570    1.7730 c3        1 3XF      0.138800
     18 C2A         2.9180    0.5150    4.0750 ca        1 3XF      0.456600
     19 C3'         0.2280   -0.3240    1.3800 c3        1 3XF      0.103100
     20 C3A         2.6680    0.7430    5.4530 ca        1 3XF     -0.202300
     21 C4'         1.2990   -0.5410    2.4740 c3        1 3XF     -0.093700
     22 C4A         3.6880    0.5570    6.3870 ca        1 3XF      0.011700
     23 C5'         0.6280   -1.4740    3.5130 c3        1 3XF      0.146800
     24 C5A         4.9540    0.1380    5.9310 ca        1 3XF     -0.206300
     25 C6A         5.1060   -0.0650    4.5480 ca        1 3XF      0.453200
     26 N6A         6.4220   -0.5050    4.0280 n4        1 3XF     -0.818300
     27 C7A         1.8050    0.7480    3.0880 c3        1 3XF     -0.121700
     28 C8A         3.4700    0.7970    7.8300 c3        1 3XF     -0.085800
     29 H2         -0.1100    2.7430    0.3270 h1        1 3XF      0.094200
     30 H2A         0.3970    1.2540   -0.6160 h1        1 3XF      0.094200
     31 H3         -1.9510    0.3900   -0.6360 hx        1 3XF      0.115700
     32 H3A        -1.8250    2.0440   -1.4240 hx        1 3XF      0.115700
     33 HN4        -2.7020    1.5060    1.3830 hn        1 3XF      0.463800
     34 H5         -4.3430    0.6780   -0.2220 hx        1 3XF      0.140200
     35 H5A        -4.2770    2.3280   -1.0340 hx        1 3XF      0.140200
     36 HN1'       -1.3930   -1.2900    3.7660 hn        1 3XF      0.366800
     37 HN11       -6.6830    3.7250   -0.7950 hn        1 3XF      0.362800
     38 H12        -6.7190    0.9230    0.0880 h1        1 3XF      0.088700
     39 H13        -7.6940    3.4240    1.6560 hc        1 3XF      0.067700
     40 H13A       -7.6490    1.7100    2.2390 hc        1 3XF      0.067700
     41 H14        -9.9390    2.4500    1.4190 hc        1 3XF      0.063200
     42 H14A       -9.2840    1.0000    0.5600 hc        1 3XF      0.063200
     43 H15        -9.3740    3.9230   -0.4460 hc        1 3XF      0.067200
     44 H15A      -10.2470    2.4890   -1.1140 hc        1 3XF      0.067200
     45 H16        -8.1940    3.1660   -2.4670 h1        1 3XF      0.070700
     46 H16A       -8.1750    1.4420   -1.8770 h1        1 3XF      0.070700
     47 H2'        -1.9290   -0.7230    1.6520 h1        1 3XF      0.054700
     48 H2'A       -0.9470   -2.1560    1.0950 h1        1 3XF      0.054700
     49 H3'         0.6370   -0.5930    0.3720 h1        1 3XF      0.072700
     50 H3AA        1.6680    1.0690    5.7800 ha        1 3XF      0.178000
     51 H4'         2.1610   -1.0850    2.0000 hc        1 3XF      0.082700
     52 H5'         0.6950   -1.0340    4.5440 h1        1 3XF      0.061200
     53 H5'A        1.1590   -2.4660    3.5230 h1        1 3XF      0.061200
     54 H5AA        5.7710   -0.0150    6.6520 ha        1 3XF      0.176000
     55 HN6A        6.7670    0.1680    3.3300 hn        1 3XF      0.474133
     56 HN6B        6.3310   -1.4270    3.5830 hn        1 3XF      0.474133
     57 H7A         2.1650    1.4290    2.2690 hc        1 3XF      0.077700
     58 H7AA        0.9630    1.2760    3.6110 hc        1 3XF      0.077700
     59 H8A         3.9410   -0.0110    8.4450 hc        1 3XF      0.081367
     60 H8AA        3.9300    1.7760    8.1270 hc        1 3XF      0.081367
     61 H8AB        2.3790    0.8360    8.0750 hc        1 3XF      0.081367
     62 H42        -2.6590    2.9940    0.6460 hn        1 3XF      0.463800
     63 H6A3        7.0900   -0.5640    4.8050 hn        1 3XF      0.474133
@<TRIPOS>BOND
     1    1    2 1   
     2    1   19 1   
     3    2    3 1   
     4    2   29 1   
     5    2   30 1   
     6    3    4 1   
     7    3   31 1   
     8    3   32 1   
     9    4    5 1   
    10    4   33 1   
    11    4   62 1   
    12    5    6 1   
    13    5   34 1   
    14    5   35 1   
    15    6    7 1   
    16    6    8 1   
    17    6   11 1   
    18    9   17 1   
    19    9   23 1   
    20    9   36 1   
    21   10   11 1   
    22   10   15 1   
    23   10   37 1   
    24   11   12 1   
    25   11   38 1   
    26   12   13 1   
    27   12   39 1   
    28   12   40 1   
    29   13   14 1   
    30   13   41 1   
    31   13   42 1   
    32   14   15 1   
    33   14   43 1   
    34   14   44 1   
    35   15   45 1   
    36   15   46 1   
    37   16   18 ar  
    38   16   25 ar  
    39   17   19 1   
    40   17   47 1   
    41   17   48 1   
    42   18   20 ar  
    43   18   27 1   
    44   19   21 1   
    45   19   49 1   
    46   20   22 ar  
    47   20   50 1   
    48   21   23 1   
    49   21   27 1   
    50   21   51 1   
    51   22   24 ar  
    52   22   28 1   
    53   23   52 1   
    54   23   53 1   
    55   24   25 ar  
    56   24   54 1   
    57   25   26 1   
    58   26   55 1   
    59   26   56 1   
    60   26   63 1   
    61   27   57 1   
    62   27   58 1   
    63   28   59 1   
    64   28   60 1   
    65   28   61 1   
@<TRIPOS>SUBSTRUCTURE
     1 3XF         1 TEMP              0 ****  ****    0 ROOT
