@<TRIPOS>MOLECULE
3XF
   62    64     1     0     0
SMALL
bcc


@<TRIPOS>ATOM
      1 O1          0.1410    0.5280   -0.0920 os        1 3XF     -0.464600
      2 C2         -0.3210    1.1300   -1.2920 c3        1 3XF      0.107400
      3 C3         -1.8520    1.0410   -1.2430 c3        1 3XF      0.105800
      4 N4         -2.4020    1.6040    0.0260 n4        1 3XF     -0.756000
      5 C5         -3.8600    1.3510    0.1720 c3        1 3XF      0.038800
      6 C6         -4.4630    2.1120    1.4110 c3        1 3XF      0.389600
      7 F7         -3.7060    1.8560    2.5370 f         1 3XF     -0.223300
      8 F8         -4.2900    3.4670    1.2450 f         1 3XF     -0.223300
      9 N1'         2.3620   -1.8920    0.2410 n3        1 3XF     -0.783200
     10 N11        -6.7070    1.8020    0.4000 n3        1 3XF     -0.833200
     11 C12        -5.9730    1.6750    1.6390 c3        1 3XF      0.177500
     12 C13        -6.5010    2.5080    2.8160 c3        1 3XF     -0.085400
     13 C14        -8.0060    2.4290    2.9270 c3        1 3XF     -0.081400
     14 C15        -8.6330    2.8670    1.6230 c3        1 3XF     -0.087400
     15 C16        -8.1460    1.9840    0.4810 c3        1 3XF      0.170800
     16 N1A         0.8000   -0.6460    4.6250 nb        1 3XF     -0.742000
     17 C2'         2.0510   -0.8660   -0.7420 c3        1 3XF      0.125800
     18 C2A         1.2080    0.3920    3.8630 ca        1 3XF      0.435600
     19 C3'         1.5690    0.4110   -0.0070 c3        1 3XF      0.114100
     20 C3A         1.9940    1.4530    4.3470 ca        1 3XF     -0.300300
     21 C4'         1.9460    0.1990    1.4760 c3        1 3XF     -0.085700
     22 C4A         2.3840    1.4450    5.6940 ca        1 3XF      0.007700
     23 C5'         2.5060   -1.2430    1.5400 c3        1 3XF      0.141800
     24 C5A         1.9740    0.3930    6.5060 ca        1 3XF     -0.297300
     25 C6A         1.1640   -0.6450    5.9480 ca        1 3XF      0.651200
     26 N6A         0.6660   -1.6470    6.7860 nh        1 3XF     -0.932500
     27 C7A         0.7810    0.4200    2.4200 c3        1 3XF     -0.109700
     28 C8A         3.2070    2.5470    6.2430 c3        1 3XF     -0.066800
     29 H2          0.0410    0.5660   -2.1930 h1        1 3XF      0.073700
     30 H2A         0.0290    2.1950   -1.3500 h1        1 3XF      0.073700
     31 H3         -2.1650   -0.0400   -1.3010 hx        1 3XF      0.111700
     32 H3A        -2.2910    1.6070   -2.1120 hx        1 3XF      0.111700
     33 HN4        -1.8920    1.1810    0.8230 hn        1 3XF      0.471300
     34 H5         -4.3770    1.7170   -0.7610 hx        1 3XF      0.128200
     35 H5A        -4.0310    0.2480    0.3060 hx        1 3XF      0.128200
     36 HN1'        1.6350   -2.5830    0.2710 hn        1 3XF      0.357800
     37 HN11       -6.5180    1.0020   -0.1790 hn        1 3XF      0.355800
     38 H12        -5.9010    0.5960    1.9800 h1        1 3XF      0.048700
     39 H13        -6.0160    2.1300    3.7540 hc        1 3XF      0.070700
     40 H13A       -6.1970    3.5800    2.6820 hc        1 3XF      0.070700
     41 H14        -8.3510    3.0930    3.7620 hc        1 3XF      0.060700
     42 H14A       -8.3230    1.3830    3.1760 hc        1 3XF      0.060700
     43 H15        -9.7490    2.7870    1.6800 hc        1 3XF      0.065700
     44 H15A       -8.3770    3.9390    1.4170 hc        1 3XF      0.065700
     45 H16        -8.4510    2.4490   -0.5010 h1        1 3XF      0.048200
     46 H16A       -8.6690    0.9860    0.5660 h1        1 3XF      0.048200
     47 H2'         3.0000   -0.6290   -1.2980 h1        1 3XF      0.061200
     48 H2'A        1.2830   -1.2140   -1.4820 h1        1 3XF      0.061200
     49 H3'         2.0440    1.3350   -0.4270 h1        1 3XF      0.062700
     50 H3AA        2.3000    2.2700    3.6820 ha        1 3XF      0.137000
     51 H4'         2.7670    0.9210    1.7340 hc        1 3XF      0.078700
     52 H5'         2.0020   -1.8330    2.3520 h1        1 3XF      0.072700
     53 H5'A        3.6070   -1.2030    1.7730 h1        1 3XF      0.072700
     54 H5AA        2.2630    0.3640    7.5660 ha        1 3XF      0.151000
     55 HN6A        1.2200   -1.8270    7.5920 hn        1 3XF      0.414300
     56 HN6B        0.2870   -2.4550    6.3480 hn        1 3XF      0.414300
     57 H7A         0.3320    1.4300    2.2150 hc        1 3XF      0.044200
     58 H7AA       -0.0120   -0.3480    2.2160 hc        1 3XF      0.044200
     59 H8A         2.5420    3.3750    6.5960 hc        1 3XF      0.055367
     60 H8AA        3.8950    2.9580    5.4630 hc        1 3XF      0.055367
     61 H8AB        3.8210    2.1970    7.1090 hc        1 3XF      0.055367
     62 H42        -2.2350    2.6190    0.0570 hn        1 3XF      0.471300
@<TRIPOS>BOND
     1    1    2 1   
     2    1   19 1   
     3    2    3 1   
     4    2   29 1   
     5    2   30 1   
     6    3    4 1   
     7    3   31 1   
     8    3   32 1   
     9    4    5 1   
    10    4   33 1   
    11    4   62 1   
    12    5    6 1   
    13    5   34 1   
    14    5   35 1   
    15    6    7 1   
    16    6    8 1   
    17    6   11 1   
    18    9   17 1   
    19    9   23 1   
    20    9   36 1   
    21   10   11 1   
    22   10   15 1   
    23   10   37 1   
    24   11   12 1   
    25   11   38 1   
    26   12   13 1   
    27   12   39 1   
    28   12   40 1   
    29   13   14 1   
    30   13   41 1   
    31   13   42 1   
    32   14   15 1   
    33   14   43 1   
    34   14   44 1   
    35   15   45 1   
    36   15   46 1   
    37   16   18 ar  
    38   16   25 ar  
    39   17   19 1   
    40   17   47 1   
    41   17   48 1   
    42   18   20 ar  
    43   18   27 1   
    44   19   21 1   
    45   19   49 1   
    46   20   22 ar  
    47   20   50 1   
    48   21   23 1   
    49   21   27 1   
    50   21   51 1   
    51   22   24 ar  
    52   22   28 1   
    53   23   52 1   
    54   23   53 1   
    55   24   25 ar  
    56   24   54 1   
    57   25   26 1   
    58   26   55 1   
    59   26   56 1   
    60   27   57 1   
    61   27   58 1   
    62   28   59 1   
    63   28   60 1   
    64   28   61 1   
@<TRIPOS>SUBSTRUCTURE
     1 3XF         1 TEMP              0 ****  ****    0 ROOT
