@<TRIPOS>MOLECULE
3XF
   61    60     1     0     0
SMALL
bcc


@<TRIPOS>ATOM
      1 O1         -0.5450    1.5040    1.0350 os        1 3XF     -0.430600
      2 C2         -1.1140    2.0430   -0.2250 c3        1 3XF      0.124400
      3 C3         -2.1300    0.9460   -0.8870 c3        1 3XF      0.166800
      4 N4         -2.6180    1.4390   -2.1210 n3        1 3XF     -0.819200
      5 C5         -2.3960    0.3910   -3.1980 c3        1 3XF      0.130800
      6 C6         -1.8320    1.1260   -4.5920 c3        1 3XF      0.399600
      7 F7         -2.8380    1.7820   -5.1830 f         1 3XF     -0.243300
      8 F8         -0.8410    2.0040   -4.2720 f         1 3XF     -0.243300
      9 N1'         2.2900   -0.0970    0.4350 n3        1 3XF     -0.794200
     10 N11        -0.2170   -1.2950   -4.9680 n3        1 3XF     -0.801200
     11 C12        -1.1320   -0.2150   -5.8150 c3        1 3XF      0.128500
     12 C13        -1.0230   -0.1230   -5.9570 c3        1 3XF     -0.113400
     13 C14        -0.2550   -1.1710   -6.8860 c3        1 3XF     -0.077400
     14 C15         0.6390   -2.3530   -5.9560 c3        1 3XF     -0.108400
     15 C16         0.6400   -2.3520   -5.9550 c3        1 3XF      0.153800
     16 N1A         0.4830   -1.2390    5.0350 n1        1 3XF     -0.529800
     17 C2'         1.3970    0.7190   -0.0960 c3        1 3XF      0.117800
     18 C2A         0.6640    0.1030    4.7260 c1        1 3XF      0.056900
     19 C3'         0.8360    1.5060    1.0720 c3        1 3XF      0.113100
     20 C3A         0.8940    1.0290    5.7430 c1        1 3XF     -0.172500
     21 C4'         1.3470    0.7650    2.3670 c3        1 3XF     -0.079700
     22 C4A         0.9390    0.6090    7.0620 c1        1 3XF      0.028900
     23 C5'         1.8170   -0.3480    1.9480 c3        1 3XF      0.142800
     24 C5A         0.7570   -0.7350    7.3670 c1        1 3XF     -0.180500
     25 C6A         0.5290   -1.6590    6.3440 c1        1 3XF      0.491600
     26 N6A         0.4250   -3.0750    6.6520 n3        1 3XF     -0.786400
     27 C7A         0.1260    0.5100    3.3760 c3        1 3XF     -0.053300
     28 C8A         1.1790    1.5710    8.3200 c3        1 3XF     -0.095000
     29 H2         -0.4200    2.2260   -0.8260 h1        1 3XF      0.038700
     30 H2A        -1.6150    2.8850   -0.0300 h1        1 3XF      0.038700
     31 H3         -2.8620    0.7910   -0.2960 h1        1 3XF      0.042200
     32 H3A        -1.6320    0.0730   -1.0480 h1        1 3XF      0.042200
     33 HN4        -3.5510    1.6190   -2.0420 hn        1 3XF      0.370800
     34 H5         -1.7160   -0.2850   -2.8720 h1        1 3XF      0.070700
     35 H5A        -3.2710   -0.0780   -3.3950 h1        1 3XF      0.070700
     36 HN1'        2.2900   -0.8790   -0.0160 hn        1 3XF      0.364800
     37 HN11        0.4260   -0.7980   -4.3780 hn        1 3XF      0.362800
     38 H12        -1.9070   -0.6950   -6.2550 h1        1 3XF      0.080700
     39 H13        -0.2960    0.5150   -5.4750 hc        1 3XF      0.058200
     40 H13A       -1.6490    0.4640   -6.5450 hc        1 3XF      0.058200
     41 H14         0.3960   -0.6650   -7.4770 hc        1 3XF      0.045200
     42 H14A       -0.9400   -1.6620   -7.4830 hc        1 3XF      0.045200
     43 H15        -0.0600   -3.0210   -5.4530 hc        1 3XF      0.048200
     44 H15A        1.3000   -2.9640   -6.6780 hc        1 3XF      0.048200
     45 H16         1.4220   -1.8180   -6.4550 h1        1 3XF      0.051700
     46 H16A        1.1120   -3.1820   -5.2840 h1        1 3XF      0.051700
     47 H2'         0.7000    0.2160   -0.5220 h1        1 3XF      0.057200
     48 H2'A        1.8370    1.3390   -0.7580 h1        1 3XF      0.057200
     49 H3'         1.1980    2.4850    1.0520 h1        1 3XF      0.046700
     50 H3AA        1.0280    2.0210    5.5120 ha        1 3XF      0.083500
     51 H4'         2.0520    1.2900    2.8050 hc        1 3XF      0.058700
     52 H5'         2.5790   -0.6190    2.4990 h1        1 3XF      0.055700
     53 H5'A        1.1390   -1.0200    1.9720 h1        1 3XF      0.055700
     54 H5AA        0.7890   -1.0330    8.2890 ha        1 3XF      0.083500
     55 HN6A        0.6960   -3.4030    7.5210 hn        1 3XF      0.399800
     56 HN6B        0.1000   -3.6580    6.0230 hn        1 3XF      0.399800
     57 H7A        -0.4230   -0.1780    3.0360 hc        1 3XF      0.069700
     58 H7AA       -0.4110    1.3490    3.4710 hc        1 3XF      0.069700
     59 H8A         1.8960    1.2040    8.8800 hc        1 3XF      0.049033
     60 H8AA        1.4340    2.4620    8.0050 hc        1 3XF      0.049033
     61 H8AB        0.3370    1.6360    8.8550 hc        1 3XF      0.049033
@<TRIPOS>BOND
     1    1    2 1   
     2    1   19 1   
     3    2    3 1   
     4    2   29 1   
     5    2   30 1   
     6    3    4 1   
     7    3   31 1   
     8    3   32 1   
     9    4    5 1   
    10    4   33 1   
    11    5    6 1   
    12    5   34 1   
    13    5   35 1   
    14    6    7 1   
    15    6    8 1   
    16    6   11 1   
    17    9   17 1   
    18    9   23 1   
    19    9   36 1   
    20   10   11 1   
    21   10   15 1   
    22   10   37 1   
    23   11   12 1   
    24   11   38 1   
    25   12   13 1   
    26   12   39 1   
    27   12   40 1   
    28   13   14 1   
    29   13   41 1   
    30   13   42 1   
    31   14   15 1   
    32   14   43 1   
    33   14   44 1   
    34   15   45 1   
    35   15   46 1   
    36   16   25 3   
    37   17   19 1   
    38   17   47 1   
    39   17   48 1   
    40   18   20 3   
    41   18   27 1   
    42   19   21 1   
    43   19   49 1   
    44   20   50 1   
    45   21   23 1   
    46   21   27 1   
    47   21   51 1   
    48   22   24 3   
    49   22   28 1   
    50   23   52 1   
    51   23   53 1   
    52   24   54 1   
    53   25   26 1   
    54   26   55 1   
    55   26   56 1   
    56   27   57 1   
    57   27   58 1   
    58   28   59 1   
    59   28   60 1   
    60   28   61 1   
@<TRIPOS>SUBSTRUCTURE
     1 3XF         1 TEMP              0 ****  ****    0 ROOT
