@<TRIPOS>MOLECULE
3XF
   62    64     1     0     0
SMALL
bcc


@<TRIPOS>ATOM
      1 O1          0.1160    0.5440   -0.0720 os        1 3XF     -0.464600
      2 C2         -0.3500    1.1330   -1.2770 c3        1 3XF      0.107400
      3 C3         -1.8810    1.0610   -1.2160 c3        1 3XF      0.105800
      4 N4         -2.4170    1.6370    0.0540 ny        1 3XF     -0.757000
      5 C5         -3.8800    1.4200    0.1950 c3        1 3XF      0.043800
      6 C6         -4.4650    2.1590    1.4550 c3        1 3XF      0.395600
      7 F7         -3.7810    1.7800    2.5900 f         1 3XF     -0.223300
      8 F8         -4.1940    3.5090    1.3840 f         1 3XF     -0.223300
      9 N1'         2.2590   -1.9450    0.2690 n7        1 3XF     -0.783200
     10 N11        -6.6900    2.3140    0.3550 n7        1 3XF     -0.811200
     11 C12        -5.9990    1.8330    1.5470 c3        1 3XF      0.138500
     12 C13        -6.5630    2.3700    2.8680 c3        1 3XF     -0.112400
     13 C14        -8.0480    2.0750    2.9470 c3        1 3XF     -0.079400
     14 C15        -8.7870    2.5610    1.7170 c3        1 3XF     -0.118400
     15 C16        -8.1200    2.0550    0.4380 c3        1 3XF      0.147800
     16 N1A         0.8370   -0.5420    4.6570 nb        1 3XF     -0.742000
     17 C2'         1.9630   -0.9300   -0.7300 c3        1 3XF      0.125800
     18 C2A         1.2680    0.4610    3.8610 ca        1 3XF      0.435600
     19 C3'         1.5420    0.3790   -0.0150 c3        1 3XF      0.114100
     20 C3A         2.1040    1.5020    4.3030 ca        1 3XF     -0.301300
     21 C4'         1.9440    0.1860    1.4640 c3        1 3XF     -0.085700
     22 C4A         2.5230    1.5100    5.6410 ca        1 3XF      0.007700
     23 C5'         2.4520   -1.2740    1.5510 c3        1 3XF      0.141800
     24 C5A         2.0900    0.4950    6.4880 ca        1 3XF     -0.297300
     25 C6A         1.2290   -0.5240    5.9720 ca        1 3XF      0.651200
     26 N6A         0.7110   -1.4850    6.8440 nv        1 3XF     -0.932500
     27 C7A         0.8090    0.4730    2.4280 c3        1 3XF     -0.109700
     28 C8A         3.4240    2.5760    6.1380 c3        1 3XF     -0.066800
     29 H2         -0.0010    0.5530   -2.1740 h1        1 3XF      0.073700
     30 H2A         0.0110    2.1930   -1.3510 h1        1 3XF      0.073700
     31 H3         -2.2080   -0.0170   -1.2660 hx        1 3XF      0.112700
     32 H3A        -2.3200    1.6270   -2.0850 hx        1 3XF      0.112700
     33 HN4        -1.9190    1.1970    0.8490 hn        1 3XF      0.469300
     34 H5         -4.0800    0.3180    0.3040 hx        1 3XF      0.136200
     35 H5A        -4.3990    1.8080   -0.7270 hx        1 3XF      0.136200
     36 HN1'        1.5090   -2.6100    0.3300 hn        1 3XF      0.357800
     37 HN11       -6.5350    3.3060    0.2670 hn        1 3XF      0.361800
     38 H12        -6.0820    0.7060    1.5560 h1        1 3XF      0.088700
     39 H13        -6.3810    3.4750    2.9340 hc        1 3XF      0.068700
     40 H13A       -6.0280    1.8840    3.7250 hc        1 3XF      0.068700
     41 H14        -8.4720    2.5690    3.8610 hc        1 3XF      0.060200
     42 H14A       -8.2010    0.9700    3.0630 hc        1 3XF      0.060200
     43 H15        -9.8460    2.1960    1.7420 hc        1 3XF      0.062700
     44 H15A       -8.8170    3.6820    1.7120 hc        1 3XF      0.062700
     45 H16        -8.2710    0.9420    0.3570 h1        1 3XF      0.068200
     46 H16A       -8.6040    2.5380   -0.4570 h1        1 3XF      0.068200
     47 H2'         2.9070   -0.7390   -1.3110 h1        1 3XF      0.061200
     48 H2'A        1.1680   -1.2680   -1.4460 h1        1 3XF      0.061200
     49 H3'         2.0380    1.2760   -0.4660 h1        1 3XF      0.062700
     50 H3AA        2.4240    2.2920    3.6130 ha        1 3XF      0.137000
     51 H4'         2.7960    0.8840    1.6870 hc        1 3XF      0.078700
     52 H5'         1.9420   -1.8260    2.3850 h1        1 3XF      0.072700
     53 H5'A        3.5570   -1.2690    1.7620 h1        1 3XF      0.072700
     54 H5AA        2.3970    0.4830    7.5430 ha        1 3XF      0.151000
     55 HN6A        0.2910   -2.2880    6.4340 hn        1 3XF      0.414300
     56 HN6B        1.2750   -1.6670    7.6430 hn        1 3XF      0.414300
     57 H7A         0.3940    1.4940    2.2090 hc        1 3XF      0.044700
     58 H7AA       -0.0170   -0.2690    2.2600 hc        1 3XF      0.044700
     59 H8A         4.4900    2.2790    5.9670 hc        1 3XF      0.055700
     60 H8AA        3.2380    3.5380    5.6020 hc        1 3XF      0.055700
     61 H8AB        3.2790    2.7460    7.2340 hc        1 3XF      0.055700
     62 H42        -2.2190    2.6450    0.0870 hn        1 3XF      0.469300
@<TRIPOS>BOND
     1    1    2 1   
     2    1   19 1   
     3    2    3 1   
     4    2   29 1   
     5    2   30 1   
     6    3    4 1   
     7    3   31 1   
     8    3   32 1   
     9    4    5 1   
    10    4   33 1   
    11    4   62 1   
    12    5    6 1   
    13    5   34 1   
    14    5   35 1   
    15    6    7 1   
    16    6    8 1   
    17    6   11 1   
    18    9   17 1   
    19    9   23 1   
    20    9   36 1   
    21   10   11 1   
    22   10   15 1   
    23   10   37 1   
    24   11   12 1   
    25   11   38 1   
    26   12   13 1   
    27   12   39 1   
    28   12   40 1   
    29   13   14 1   
    30   13   41 1   
    31   13   42 1   
    32   14   15 1   
    33   14   43 1   
    34   14   44 1   
    35   15   45 1   
    36   15   46 1   
    37   16   18 ar  
    38   16   25 ar  
    39   17   19 1   
    40   17   47 1   
    41   17   48 1   
    42   18   20 ar  
    43   18   27 1   
    44   19   21 1   
    45   19   49 1   
    46   20   22 ar  
    47   20   50 1   
    48   21   23 1   
    49   21   27 1   
    50   21   51 1   
    51   22   24 ar  
    52   22   28 1   
    53   23   52 1   
    54   23   53 1   
    55   24   25 ar  
    56   24   54 1   
    57   25   26 1   
    58   26   55 1   
    59   26   56 1   
    60   27   57 1   
    61   27   58 1   
    62   28   59 1   
    63   28   60 1   
    64   28   61 1   
@<TRIPOS>SUBSTRUCTURE
     1 3XF         1 TEMP              0 ****  ****    0 ROOT
