@<TRIPOS>MOLECULE
3XG
   54    55     1     0     0
SMALL
bcc


@<TRIPOS>ATOM
      1 C4          0.5070   -0.2290   -0.1520 c2        1 3XG     -0.106000
      2 C5          1.5310   -1.0540   -0.4350 c2        1 3XG     -0.080000
      3 C6          2.2370   -1.8740    0.5200 c2        1 3XG     -0.433000
      4 C8         -1.7360    0.2530    2.7820 c2        1 3XG     -0.526000
      5 C13        -3.1110    0.3460    3.2450 c2        1 3XG      0.388000
      6 C17        -7.6040    1.6210    2.7970 c3        1 3XG     -0.094000
      7 C1          2.2500   -1.7650    1.8360 c1        1 3XG      0.174000
      8 C2          0.6450    0.1480    2.3480 c2        1 3XG     -0.442000
      9 C3         -0.0510   -0.0110    1.1570 c2        1 3XG     -0.060000
     10 C16        -6.1430    1.6770    2.3450 c3        1 3XG     -0.177000
     11 C11        -3.7250    0.0520    0.8960 c2        1 3XG     -0.029000
     12 C9         -1.4720    0.0620    1.4030 c2        1 3XG      0.042000
     13 O29        -6.0910   -1.4550   -3.0290 o         1 3XG     -0.333000
     14 C25        -5.3040   -0.5280   -2.8300 c2        1 3XG      0.313000
     15 O26        -5.3220    0.5420   -3.6780 os        1 3XG     -0.272000
     16 C27        -6.2910    0.4990   -4.7440 c3        1 3XG     -0.012000
     17 C28        -6.1110    1.7770   -5.5250 c3        1 3XG     -0.219000
     18 C24        -4.2470   -0.4090   -1.7810 c3        1 3XG     -0.305000
     19 S23        -5.0400   -0.0630   -0.2350 ss        1 3XG      0.305000
     20 N10        -2.4740   -0.0350    0.4560 n2        1 3XG     -0.197000
     21 N12        -4.1040    0.2230    2.2350 n         1 3XG     -0.259000
     22 O14        -3.4570    0.5080    4.4290 o         1 3XG     -0.346000
     23 S7         -0.3350    0.3440    3.6680 ss        1 3XG      0.738000
     24 N18        -8.2840    2.8810    2.6430 n2        1 3XG     -0.189000
     25 C22       -12.1820    3.5280    2.8090 c3        1 3XG     -0.212000
     26 C21       -11.5480    4.0240    1.5350 c3        1 3XG     -0.158000
     27 C20       -10.0600    4.2640    1.6900 c3        1 3XG     -0.139000
     28 C19        -9.3140    2.9770    1.8820 c2        1 3XG     -0.063000
     29 H1          0.0020    0.3150   -0.9710 ha        1 3XG      0.147000
     30 H2          1.8760   -1.1500   -1.4800 ha        1 3XG      0.131000
     31 H3          2.8380   -2.7000    0.0810 ha        1 3XG      0.188000
     32 H4         -5.5980    0.0530    3.6860 h1        1 3XG      0.119000
     33 H5         -6.0690   -0.4770    1.9980 h1        1 3XG      0.119000
     34 H6         -7.6300    1.3850    3.9010 h1        1 3XG      0.081500
     35 H7         -8.1110    0.7670    2.2570 h1        1 3XG      0.081500
     36 H8          1.7360    0.2220    2.4360 h4        1 3XG      0.198000
     37 H9         -5.5940    2.4670    2.9200 hc        1 3XG      0.106000
     38 H10        -6.0840    1.9400    1.2560 hc        1 3XG      0.106000
     39 H11        -7.3150    0.4200   -4.2940 h1        1 3XG      0.093500
     40 H12        -6.0930   -0.4100   -5.3710 h1        1 3XG      0.093500
     41 H13        -6.2830    2.6650   -4.8710 hc        1 3XG      0.089667
     42 H14        -6.8440    1.7940   -6.3670 hc        1 3XG      0.089667
     43 H15        -5.0760    1.8420   -5.9400 hc        1 3XG      0.089667
     44 H16        -3.6810   -1.3750   -1.7340 h1        1 3XG      0.158500
     45 H17        -3.5260    0.4050   -2.0520 h1        1 3XG      0.158500
     46 H19       -11.7120    2.5680    3.1330 hc        1 3XG      0.075333
     47 H20       -12.0550    4.2740    3.6300 hc        1 3XG      0.075333
     48 H21       -13.2750    3.3540    2.6570 hc        1 3XG      0.075333
     49 H22       -12.0340    4.9880    1.2270 hc        1 3XG      0.080500
     50 H23       -11.7290    3.2840    0.7110 hc        1 3XG      0.080500
     51 H24        -9.8800    4.9730    2.5410 hc        1 3XG      0.103000
     52 H25        -9.6610    4.7500    0.7580 hc        1 3XG      0.103000
     53 H26        -9.7360    2.1270    1.2980 h4        1 3XG      0.094000
     54 C15        -5.5070    0.3080    2.5890 c3        1 3XG     -0.045000
@<TRIPOS>BOND
     1    1    2 1   
     2    1    9 1   
     3    1   29 1   
     4    2    3 1   
     5    2   30 1   
     6    3    7 1   
     7    3   31 1   
     8    4    5 1   
     9    4   12 1   
    10    4   23 1   
    11    5   21 1   
    12    5   22 1   
    13    6   10 1   
    14    6   24 1   
    15    6   34 1   
    16    6   35 1   
    17    8    9 1   
    18    8   23 1   
    19    8   36 1   
    20    9   12 1   
    21   10   37 1   
    22   10   38 1   
    23   10   54 1   
    24   11   19 1   
    25   11   20 1   
    26   11   21 1   
    27   12   20 1   
    28   13   14 1   
    29   14   15 1   
    30   14   18 1   
    31   15   16 1   
    32   16   17 1   
    33   16   39 1   
    34   16   40 1   
    35   17   41 1   
    36   17   42 1   
    37   17   43 1   
    38   18   19 1   
    39   18   44 1   
    40   18   45 1   
    41   21   54 1   
    42   24   28 1   
    43   25   26 1   
    44   25   46 1   
    45   25   47 1   
    46   25   48 1   
    47   26   27 1   
    48   26   49 1   
    49   26   50 1   
    50   27   28 1   
    51   27   51 1   
    52   27   52 1   
    53   28   53 1   
    54   32   54 1   
    55   33   54 1   
@<TRIPOS>SUBSTRUCTURE
     1 3XG         1 TEMP              0 ****  ****    0 ROOT
