@<TRIPOS>MOLECULE
3XG
   54    53     1     0     0
SMALL
bcc


@<TRIPOS>ATOM
      1 C4          0.8730    0.1860    0.3340 c3        1 3XG     -0.114000
      2 C5          2.1200   -0.5460    0.6470 c2        1 3XG      0.191000
      3 C6          2.5290   -0.9910    1.8210 c1        1 3XG     -0.578000
      4 C8         -2.2850    0.5760    2.3240 c2        1 3XG     -0.529000
      5 C13        -3.7350    0.6670    2.2550 c2        1 3XG      0.379000
      6 C17        -8.8890    1.6660    2.4890 c3        1 3XG     -0.113000
      7 C1          2.9580   -1.4420    2.9330 c1        1 3XG      0.180000
      8 C2          0.0950    0.4660    2.7580 c2        1 3XG     -0.418000
      9 C3         -0.1320    0.3290    1.4010 c2        1 3XG     -0.105000
     10 C16        -7.4020    1.6210    2.1360 c3        1 3XG     -0.256000
     11 C11        -3.4790    0.3900   -0.1370 c2        1 3XG     -0.024000
     12 C9         -1.5490    0.3960    1.1240 c2        1 3XG      0.039000
     13 O29        -4.1920    0.7240   -4.9260 o         1 3XG     -0.348000
     14 C25        -3.6910   -0.1250   -4.1840 c2        1 3XG      0.320000
     15 O26        -3.6560   -1.4060   -4.6460 oh        1 3XG     -0.311000
     16 C27        -5.3710   -0.9320   -7.5920 c2        1 3XG     -0.230500
     17 C28        -4.4670   -1.8150   -7.9950 c2        1 3XG     -0.230500
     18 C24        -3.0540    0.0480   -2.8480 c3        1 3XG     -0.297000
     19 S23        -4.3350    0.2900   -1.6480 ss        1 3XG      0.291000
     20 N10        -2.1470    0.3050   -0.1190 n2        1 3XG     -0.230000
     21 N12        -4.2950    0.5640    0.9690 ns        1 3XG     -0.339000
     22 O14        -4.5000    0.8300    3.2300 o         1 3XG     -0.394000
     23 S7         -1.2890    0.6490    3.6500 ss        1 3XG      0.708000
     24 N18        -9.1660    2.4820    3.6420 n2        1 3XG     -0.192000
     25 C22       -12.7170    3.6810    4.9340 c3        1 3XG     -0.213000
     26 C21       -11.7470    4.8110    4.7040 c3        1 3XG     -0.158000
     27 C20       -10.3060    4.3460    4.7370 c3        1 3XG     -0.140000
     28 C19        -9.9850    3.4680    3.5640 c2        1 3XG     -0.058000
     29 H1          1.1740    1.2190   -0.0170 hc        1 3XG      0.130000
     30 H2          0.4020   -0.3260   -0.5570 hc        1 3XG      0.130000
     31 H3          2.7640   -0.7120   -0.2450 ha        1 3XG      0.120000
     32 H4         -5.3540    0.6190    0.8800 hn        1 3XG      0.328000
     33 H5         -7.7500   -0.0250    0.7300 ha        1 3XG      0.075000
     34 H6         -9.4600    1.9780    1.5650 h1        1 3XG      0.080000
     35 H7         -9.2280    0.6220    2.7540 h1        1 3XG      0.080000
     36 H8          1.0870    0.4360    3.2180 h4        1 3XG      0.193000
     37 H9         -6.7660    1.3290    3.0460 hc        1 3XG      0.194000
     38 H10        -7.0180    2.6470    1.8620 hc        1 3XG      0.194000
     39 H11        -4.0760   -1.4520   -5.5260 ho        1 3XG      0.255000
     40 H12        -5.1060   -0.0150   -7.0420 ha        1 3XG      0.116250
     41 H13        -6.4460   -1.0570   -7.7830 ha        1 3XG      0.116250
     42 H14        -4.7310   -2.7280   -8.5460 ha        1 3XG      0.116250
     43 H15        -3.3910   -1.6880   -7.8150 ha        1 3XG      0.116250
     44 H16        -2.4370   -0.8540   -2.5980 h1        1 3XG      0.156500
     45 H17        -2.3730    0.9370   -2.8870 h1        1 3XG      0.156500
     46 H19       -12.5950    2.8930    4.1510 hc        1 3XG      0.075333
     47 H20       -13.7680    4.0580    4.8960 hc        1 3XG      0.075333
     48 H21       -12.5470    3.2100    5.9320 hc        1 3XG      0.075333
     49 H22       -11.8880    5.5910    5.4990 hc        1 3XG      0.081500
     50 H23       -11.9650    5.3000    3.7180 hc        1 3XG      0.081500
     51 H24       -10.1010    3.8220    5.7090 hc        1 3XG      0.105000
     52 H25        -9.6240    5.2390    4.6880 hc        1 3XG      0.105000
     53 H26       -10.5160    3.7620    2.6290 h4        1 3XG      0.094000
     54 C15        -7.0160    0.6880    1.1270 c1        1 3XG     -0.081000
@<TRIPOS>BOND
     1    1    2 1   
     2    1    9 1   
     3    1   29 1   
     4    1   30 1   
     5    2    3 1   
     6    2   31 1   
     7    3    7 1   
     8    4    5 1   
     9    4   12 1   
    10    4   23 1   
    11    5   21 1   
    12    5   22 1   
    13    6   10 1   
    14    6   24 1   
    15    6   34 1   
    16    6   35 1   
    17    8    9 1   
    18    8   23 1   
    19    8   36 1   
    20    9   12 1   
    21   10   37 1   
    22   10   38 1   
    23   10   54 1   
    24   11   19 1   
    25   11   20 1   
    26   11   21 1   
    27   12   20 1   
    28   13   14 1   
    29   14   15 1   
    30   14   18 1   
    31   15   39 1   
    32   16   17 1   
    33   16   40 1   
    34   16   41 1   
    35   17   42 1   
    36   17   43 1   
    37   18   19 1   
    38   18   44 1   
    39   18   45 1   
    40   21   32 1   
    41   24   28 1   
    42   25   26 1   
    43   25   46 1   
    44   25   47 1   
    45   25   48 1   
    46   26   27 1   
    47   26   49 1   
    48   26   50 1   
    49   27   28 1   
    50   27   51 1   
    51   27   52 1   
    52   28   53 1   
    53   33   54 1   
@<TRIPOS>SUBSTRUCTURE
     1 3XG         1 TEMP              0 ****  ****    0 ROOT
