@<TRIPOS>MOLECULE
3XH
   22    22     1     0     0
SMALL
bcc


@<TRIPOS>ATOM
      1 O11         3.3190   -1.4890   -0.3800 o         1 3XH     -0.836300
      2 C10         3.7040   -0.3090   -0.1350 c         1 3XH      0.906600
      3 O12         4.8990    0.0390    0.0600 o         1 3XH     -0.836300
      4 C9          2.6390    0.8270   -0.0640 c3        1 3XH     -0.063000
      5 N8          1.3000    0.3640   -0.3370 n         1 3XH     -0.499900
      6 C7          0.2080    0.8260    0.3460 c         1 3XH      0.639700
      7 O14         0.2050    1.8990    0.9950 o         1 3XH     -0.648100
      8 C6         -1.0690    0.0450    0.2090 ca        1 3XH     -0.086600
      9 C5         -1.0820   -1.3530    0.2230 ca        1 3XH     -0.134000
     10 C4         -2.2940   -2.0380    0.1140 ca        1 3XH     -0.114000
     11 C3         -3.4960   -1.3470   -0.0090 ca        1 3XH     -0.156000
     12 C2         -3.4720    0.0560   -0.0140 ca        1 3XH      0.099100
     13 O13        -4.6890    0.6950   -0.1340 oh        1 3XH     -0.512100
     14 C1         -2.2650    0.7570    0.0970 ca        1 3XH     -0.169000
     15 H9          2.6900    1.3050    0.9520 h1        1 3XH      0.044700
     16 H9A         2.9050    1.6080   -0.8290 h1        1 3XH      0.044700
     17 HN8         1.2740   -0.5760   -0.6870 hn        1 3XH      0.324500
     18 H5         -0.1440   -1.9220    0.3290 ha        1 3XH      0.161000
     19 H4         -2.2990   -3.1380    0.1250 ha        1 3XH      0.129000
     20 H3         -4.4540   -1.8760   -0.0990 ha        1 3XH      0.137000
     21 HO13       -4.5220    1.6480   -0.0980 ho        1 3XH      0.415000
     22 H1         -2.2440    1.8570    0.1120 ha        1 3XH      0.152000
@<TRIPOS>BOND
     1    1    2 1   
     2    2    3 1   
     3    2    4 1   
     4    4    5 1   
     5    4   15 1   
     6    4   16 1   
     7    5    6 1   
     8    5   17 1   
     9    6    7 2   
    10    6    8 1   
    11    8    9 ar  
    12    8   14 ar  
    13    9   10 ar  
    14    9   18 1   
    15   10   11 ar  
    16   10   19 1   
    17   11   12 ar  
    18   11   20 1   
    19   12   13 1   
    20   12   14 ar  
    21   13   21 1   
    22   14   22 1   
@<TRIPOS>SUBSTRUCTURE
     1 3XH         1 TEMP              0 ****  ****    0 ROOT
