@<TRIPOS>MOLECULE
3XH
   22    19     1     0     0
SMALL
bcc


@<TRIPOS>ATOM
      1 O11         2.3520   -0.9530    4.0550 o         1 3XH     -0.571000
      2 C10         2.7980   -0.1870    3.1620 c1        1 3XH      0.326000
      3 O12         3.5030    0.8070    3.4790 o         1 3XH     -0.571000
      4 C9          2.5140   -0.4770    1.7050 c2        1 3XH     -0.129000
      5 N8          1.2910    0.1440    1.3270 n         1 3XH     -0.309000
      6 C7          0.2140   -0.6430    0.8440 c2        1 3XH      0.313000
      7 O14         0.0190   -1.7500    1.3030 o         1 3XH     -0.409000
      8 C6         -0.6880   -0.1060   -0.2450 c2        1 3XH     -0.066000
      9 C5         -1.8350    0.5970    0.0900 c2        1 3XH     -0.134000
     10 C4         -2.6820    1.0570   -0.9070 c1        1 3XH     -0.114000
     11 C3         -2.3820    0.8140   -2.2390 c1        1 3XH     -0.156000
     12 C2         -1.2350    0.1110   -2.5740 c1        1 3XH      0.054000
     13 O13        -0.9280   -0.1310   -3.9250 o         1 3XH     -0.266000
     14 C1         -0.3870   -0.3490   -1.5760 c2        1 3XH     -0.169000
     15 H9          3.2430   -0.1260    1.1530 h4        1 3XH      0.084000
     16 H9A         2.4420   -1.4450    1.5730 h4        1 3XH      0.084000
     17 HN8         1.1930    1.0470    1.4130 hn        1 3XH      0.238000
     18 H5         -2.0380    0.7840    1.0290 ha        1 3XH      0.161000
     19 H4         -3.4990    1.5360   -0.6700 ha        1 3XH      0.129000
     20 H3         -2.9860    1.1250   -2.9410 ha        1 3XH      0.137000
     21 HO13       -1.2410   -0.9280   -4.1620 ho        1 3XH      0.214000
     22 H1          0.3330   -0.9290   -1.8950 ha        1 3XH      0.152000
@<TRIPOS>BOND
     1    1    2 1   
     2    2    3 1   
     3    4    5 1   
     4    4   15 1   
     5    4   16 1   
     6    5    6 1   
     7    5   17 1   
     8    6    7 1   
     9    6    8 1   
    10    8    9 1   
    11    8   14 1   
    12    9   10 1   
    13    9   18 1   
    14   10   19 1   
    15   11   12 1   
    16   11   20 1   
    17   12   14 1   
    18   13   21 1   
    19   14   22 1   
@<TRIPOS>SUBSTRUCTURE
     1 3XH         1 TEMP              0 ****  ****    0 ROOT
