@<TRIPOS>MOLECULE
3XJ
   50    48     1     0     0
SMALL
bcc


@<TRIPOS>ATOM
      1 O3          5.3840    0.6810   -1.2300 o         1 3XJ     -0.550000
      2 C4          4.6950   -1.0480   -7.9820 ca        1 3XJ     -0.172000
      3 C5          5.8090   -1.0310   -8.8250 ca        1 3XJ     -0.053000
      4 O4         10.2970   -0.2790   -9.1230 oh        1 3XJ     -0.341000
      5 C7          1.5400   -0.9590   -4.7750 c2        1 3XJ     -0.169000
      6 C8          2.4840   -1.5450    0.4780 c2        1 3XJ     -0.215000
      7 C9          2.8310   -0.9000   -0.5940 c1        1 3XJ     -0.119000
      8 O5          8.5420   -1.6830  -12.0390 oh        1 3XJ     -0.154000
      9 C10         3.2160   -0.2580   -1.6600 c2        1 3XJ     -0.097000
     10 O6          9.8670   -1.5860  -14.3550 oh        1 3XJ     -0.309000
     11 C11         2.2970    0.3220   -2.6360 c2        1 3XJ     -0.015000
     12 C12         1.8610   -0.3210   -3.6840 c1        1 3XJ     -0.135000
     13 C13         4.7000   -0.0320   -2.0010 c2        1 3XJ      0.388000
     14 O7         12.4340   -0.5160  -12.0690 oh        1 3XJ     -0.154000
     15 C14         8.9920    0.2160   -9.1900 c3        1 3XJ      0.109000
     16 C15         8.3500   -4.1440   -9.7330 c3        1 3XJ     -0.348000
     17 O2          5.1340   -0.5720   -3.0620 o         1 3XJ     -0.550000
     18 O1          1.9810   -1.1710   -7.1090 o         1 3XJ     -0.391000
     19 N           3.8010   -0.9170   -5.6820 ns        1 3XJ     -0.316000
     20 C3          4.8600   -0.9230   -6.5860 ca        1 3XJ      0.113000
     21 C2          6.1780   -0.7910   -6.0600 ca        1 3XJ     -0.149000
     22 C1          7.2720   -0.7870   -6.9050 ca        1 3XJ     -0.130000
     23 C           7.0980   -0.9070   -8.2930 ca        1 3XJ     -0.018000
     24 O           8.2040   -0.9800   -9.1320 os        1 3XJ     -0.308000
     25 C18        11.8540   -0.8880  -13.1530 c1        1 3XJ     -0.036500
     26 C17        10.3550   -0.7870  -13.2920 c3        1 3XJ     -0.149000
     27 C16         9.6770   -1.0460  -11.9830 c1        1 3XJ     -0.036500
     28 C19         9.8030   -4.0660   -9.4710 c1        1 3XJ     -0.003000
     29 H8          2.3600   -2.6370    0.4920 ha        1 3XJ      0.112500
     30 H9          2.3110   -1.0380    1.4370 ha        1 3XJ      0.112500
     31 H14        10.6330   -1.9520  -14.8200 ho        1 3XJ      0.219000
     32 H10         2.0440    1.3870   -2.4740 ha        1 3XJ      0.149000
     33 H11         0.5890   -1.4960   -4.9090 ha        1 3XJ      0.155000
     34 H15        11.8500   -0.2220  -11.3300 ho        1 3XJ      0.241500
     35 H           8.8410    0.8860   -8.3060 h2        1 3XJ      0.099000
     36 H18         9.6640   -2.4260   -8.4270 ho        1 3XJ      0.187000
     37 H12        10.4250   -0.8770   -9.8790 ho        1 3XJ      0.230000
     38 H7          4.0690   -0.8180   -4.7050 hn        1 3XJ      0.307000
     39 H5          6.3220   -0.6900   -4.9630 ha        1 3XJ      0.212000
     40 H4          8.2900   -0.6890   -6.4980 ha        1 3XJ      0.147000
     41 H3          8.7710    0.7170  -10.1710 h2        1 3XJ      0.099000
     42 H2         10.1170    0.2960  -13.5510 h1        1 3XJ      0.136000
     43 H1          7.7510   -3.2960   -9.3070 hc        1 3XJ      0.108000
     44 H16         8.1940   -4.1730  -10.8420 hc        1 3XJ      0.108000
     45 H17         7.9650   -5.1060   -9.3070 hc        1 3XJ      0.108000
     46 Cl          5.5580   -1.1780  -10.5070 cl        1 3XJ     -0.035000
     47 H13         8.1840   -1.7610  -11.1210 ho        1 3XJ      0.241500
     48 O8         10.2970   -3.0980   -8.7800 oh        1 3XJ     -0.166000
     49 C6          2.4450   -1.0160   -5.9600 c2        1 3XJ      0.350000
     50 H6          3.6870   -1.1560   -8.4190 ha        1 3XJ      0.187000
@<TRIPOS>BOND
     1    1   13 1   
     2    2    3 1   
     3    2   20 1   
     4    2   50 1   
     5    3   23 1   
     6    3   46 1   
     7    4   15 1   
     8    4   37 1   
     9    5   12 1   
    10    5   33 1   
    11    5   49 1   
    12    6    7 1   
    13    6   29 1   
    14    6   30 1   
    15    7    9 1   
    16    8   27 1   
    17    8   47 1   
    18    9   11 1   
    19    9   13 1   
    20   10   26 1   
    21   10   31 1   
    22   11   12 1   
    23   11   32 1   
    24   13   17 1   
    25   14   25 1   
    26   14   34 1   
    27   15   24 1   
    28   15   35 1   
    29   15   41 1   
    30   16   28 1   
    31   16   43 1   
    32   16   44 1   
    33   16   45 1   
    34   18   49 1   
    35   19   20 1   
    36   19   38 1   
    37   19   49 1   
    38   20   21 1   
    39   21   22 1   
    40   21   39 1   
    41   22   23 1   
    42   22   40 1   
    43   23   24 1   
    44   25   26 1   
    45   26   27 1   
    46   26   42 1   
    47   28   48 1   
    48   36   48 1   
@<TRIPOS>SUBSTRUCTURE
     1 3XJ         1 TEMP              0 ****  ****    0 ROOT
