@<TRIPOS>MOLECULE
3XJ
   50    49     1     0     0
SMALL
bcc


@<TRIPOS>ATOM
      1 O3          4.5440    1.9480   -0.6060 o         1 3XJ     -0.542500
      2 C4          4.7400   -0.7560   -8.2410 ca        1 3XJ     -0.162000
      3 C5          5.7460   -0.9340   -9.1930 ca        1 3XJ     -0.041000
      4 O4         10.1950   -0.9050   -9.1130 oh        1 3XJ     -0.356000
      5 C7          1.9350   -0.1480   -4.7750 c2        1 3XJ     -0.190000
      6 C8          2.8300   -2.4340   -0.7990 c2        1 3XJ     -0.225000
      7 C9          3.1970   -1.2460   -1.1730 c1        1 3XJ     -0.088000
      8 O5         11.3910   -2.4950  -12.7740 oh        1 3XJ     -0.199000
      9 C10         3.5810   -0.0400   -1.4980 c2        1 3XJ     -0.120000
     10 O6          9.4530   -0.8350  -13.5240 oh        1 3XJ     -0.316000
     11 C11         2.9750    0.7500   -2.5570 c2        1 3XJ      0.002000
     12 C12         2.4470    0.2890   -3.6570 c1        1 3XJ     -0.163000
     13 C13         4.7090    0.7060   -0.7510 c2        1 3XJ      0.375000
     14 O7         10.6610    0.7660  -11.3410 oh        1 3XJ     -0.329000
     15 C14         9.1350   -0.2860   -9.7830 c3        1 3XJ      0.127000
     16 C15         7.4260   -4.6100   -9.4220 c3        1 3XJ     -0.339000
     17 O2          5.7060    0.0460   -0.3700 o         1 3XJ     -0.542500
     18 O1          2.1510   -0.5960   -7.1040 o         1 3XJ     -0.377000
     19 N           4.1090   -0.3970   -5.8800 n         1 3XJ     -0.321000
     20 C3          5.0650   -0.5950   -6.8760 ca        1 3XJ      0.110000
     21 C2          6.4360   -0.6270   -6.4960 ca        1 3XJ     -0.170000
     22 C1          7.4260   -0.8160   -7.4450 ca        1 3XJ     -0.130000
     23 C           7.0900   -0.9730   -8.7960 ca        1 3XJ     -0.015000
     24 O           8.0770   -1.2450   -9.7390 os        1 3XJ     -0.260000
     25 C18         9.4510    0.0390  -11.2560 c3        1 3XJ     -0.009000
     26 C17         9.5070   -1.2070  -12.1590 c3        1 3XJ     -0.082000
     27 C16        10.6650   -2.0720  -11.7650 c1        1 3XJ     -0.061000
     28 C19         8.8630   -4.6930   -9.0830 c1        1 3XJ      0.001000
     29 H8          3.2740   -3.3440   -1.2250 ha        1 3XJ      0.115000
     30 H9          2.0700   -2.5980   -0.0230 ha        1 3XJ      0.115000
     31 H14        10.2020   -0.2470  -13.6820 ho        1 3XJ      0.207000
     32 H10         3.0440    1.8480   -2.3720 ha        1 3XJ      0.195000
     33 H11         0.8600   -0.3640   -4.8930 ha        1 3XJ      0.157000
     34 H15        11.2990    0.3390  -10.7490 ho        1 3XJ      0.218000
     35 H           8.9060    0.6540   -9.2080 h2        1 3XJ      0.143000
     36 H18         8.9460   -2.8540   -8.4540 ho        1 3XJ      0.178000
     37 H12        10.4380   -1.7200   -9.5910 ho        1 3XJ      0.251000
     38 H7          4.4690   -0.2510   -4.9580 hn        1 3XJ      0.256000
     39 H5          6.7230   -0.5030   -5.4390 ha        1 3XJ      0.158000
     40 H4          8.4900   -0.8390   -7.1530 ha        1 3XJ      0.158000
     41 H3          8.6630    0.7340  -11.6660 h1        1 3XJ      0.143000
     42 H2          8.5670   -1.8200  -11.9880 h1        1 3XJ      0.176000
     43 H1          7.0010   -3.5720   -9.3700 hc        1 3XJ      0.106000
     44 H16         7.2790   -5.0090  -10.4560 hc        1 3XJ      0.106000
     45 H17         6.8590   -5.2680   -8.7150 hc        1 3XJ      0.106000
     46 CL          5.2970   -1.1120  -10.8240 cl        1 3XJ     -0.010000
     47 H13        12.0920   -3.0700  -12.4090 ho        1 3XJ      0.256000
     48 O8          9.4790   -3.6760   -8.5870 oh        1 3XJ     -0.165000
     49 C6          2.7180   -0.3940   -6.0120 c2        1 3XJ      0.359000
     50 H6          3.6860   -0.7390   -8.5700 ha        1 3XJ      0.193000
@<TRIPOS>BOND
     1    1   13 1   
     2    2    3 1   
     3    2   20 1   
     4    2   50 1   
     5    3   23 1   
     6    3   46 1   
     7    4   15 1   
     8    4   37 1   
     9    5   12 1   
    10    5   33 1   
    11    5   49 1   
    12    6    7 1   
    13    6   29 1   
    14    6   30 1   
    15    7    9 1   
    16    8   27 1   
    17    8   47 1   
    18    9   11 1   
    19    9   13 1   
    20   10   26 1   
    21   10   31 1   
    22   11   12 1   
    23   11   32 1   
    24   13   17 1   
    25   14   25 1   
    26   14   34 1   
    27   15   24 1   
    28   15   25 1   
    29   15   35 1   
    30   16   28 1   
    31   16   43 1   
    32   16   44 1   
    33   16   45 1   
    34   18   49 1   
    35   19   20 1   
    36   19   38 1   
    37   19   49 1   
    38   20   21 1   
    39   21   22 1   
    40   21   39 1   
    41   22   23 1   
    42   22   40 1   
    43   23   24 1   
    44   25   26 1   
    45   25   41 1   
    46   26   27 1   
    47   26   42 1   
    48   28   48 1   
    49   36   48 1   
@<TRIPOS>SUBSTRUCTURE
     1 3XJ         1 TEMP              0 ****  ****    0 ROOT
