@<TRIPOS>MOLECULE
3XK
   38    41     1     0     0
SMALL
bcc


@<TRIPOS>ATOM
      1 C7          0.0000    0.0000    0.0000 cp        1 3XK     -0.048000
      2 C9          2.0590    0.0000    1.2220 ca        1 3XK      0.453300
      3 N1         -3.4020   -0.0150   -1.0830 nb        1 3XK     -0.593000
      4 C2         -3.4040   -0.0170   -2.3980 ca        1 3XK      0.430200
      5 N2         -2.0360   -0.0070    0.9770 na        1 3XK      0.267000
      6 C10         1.3910    0.0000    0.0000 ca        1 3XK     -0.129300
      7 C4         -1.0350   -0.0060   -1.0450 cp        1 3XK     -0.189300
      8 N3          1.3810    0.0070    2.3680 nb        1 3XK     -0.552000
      9 N5          4.6270    0.0190    1.2600 n1        1 3XK     -0.367800
     10 C6         -0.6810   -0.0020    1.2320 ca        1 3XK     -0.292500
     11 C19         3.4910   -0.0000    1.2460 cg        1 3XK      0.125800
     12 C8          0.0680    0.0020    2.4080 ca        1 3XK      0.393200
     13 C3         -2.2740   -0.0100   -0.3810 ca        1 3XK      0.288800
     14 C5         -1.0000   -0.0070   -2.4370 ca        1 3XK      0.000000
     15 C1         -2.2130   -0.0130   -3.1250 cp        1 3XK     -0.176300
     16 C11        -2.2360   -0.0160   -4.6090 cp        1 3XK     -0.072000
     17 C16        -3.4520   -0.0210   -5.2880 ca        1 3XK     -0.167000
     18 C15        -3.4670   -0.0240   -6.6740 ca        1 3XK     -0.073400
     19 N4         -4.6870   -0.0290   -7.3600 ns        1 3XK     -0.053100
     20 C17        -4.8090    0.6400   -8.5240 c         1 3XK      0.554100
     21 O1         -3.8400    1.1770   -9.0190 o         1 3XK     -0.627100
     22 C18        -6.1480    0.7210   -9.2110 c3        1 3XK     -0.058100
     23 C14        -2.2720   -0.0200   -7.3820 ca        1 3XK     -0.093000
     24 C13        -1.0650   -0.0150   -6.7070 ca        1 3XK     -0.044000
     25 C12        -1.0420   -0.0070   -5.3260 ca        1 3XK     -0.124000
     26 H1         -4.3980    0.1100   -2.8110 h4        1 3XK     -0.006900
     27 H2         -2.6490    0.0100    1.7680 hn        1 3XK      0.128700
     28 H3          1.9980   -0.6370   -0.6320 ha        1 3XK      0.128000
     29 H4         -0.1980    0.2730    3.4220 h4        1 3XK     -0.000900
     30 H5         -0.1260   -0.1740   -3.0550 ha        1 3XK      0.128000
     31 H6         -4.0210   -0.0260   -4.3660 ha        1 3XK      0.155000
     32 H7         -5.3200   -0.7630   -7.1110 hn        1 3XK      0.168500
     33 H8         -6.3600   -0.3320   -9.3490 hc        1 3XK      0.025033
     34 H9         -6.8580    1.2170   -8.5600 hc        1 3XK      0.025033
     35 H10        -6.0920    1.2280  -10.1670 hc        1 3XK      0.025033
     36 H11        -2.5400   -0.2640   -8.4030 ha        1 3XK      0.143000
     37 H12        -0.1340    0.1580   -7.2340 ha        1 3XK      0.109000
     38 H13        -0.3280   -0.4830   -4.6660 ha        1 3XK      0.119000
@<TRIPOS>BOND
     1    1    6 ar  
     2    1    7 1   
     3    1   10 ar  
     4    2    6 ar  
     5    2    8 ar  
     6    2   11 1   
     7    3    4 ar  
     8    3   13 ar  
     9    4   15 ar  
    10    4   26 1   
    11    5   10 1   
    12    5   13 1   
    13    5   27 1   
    14    6   28 1   
    15    7   13 ar  
    16    7   14 ar  
    17    8   12 ar  
    18    9   11 3   
    19   10   12 ar  
    20   12   29 1   
    21   14   15 ar  
    22   14   30 1   
    23   15   16 1   
    24   16   17 ar  
    25   16   25 ar  
    26   17   18 ar  
    27   17   31 1   
    28   18   19 1   
    29   18   23 ar  
    30   19   20 1   
    31   19   32 1   
    32   20   21 2   
    33   20   22 1   
    34   22   33 1   
    35   22   34 1   
    36   22   35 1   
    37   23   24 ar  
    38   23   36 1   
    39   24   25 ar  
    40   24   37 1   
    41   25   38 1   
@<TRIPOS>SUBSTRUCTURE
     1 3XK         1 TEMP              0 ****  ****    0 ROOT
