@<TRIPOS>MOLECULE
3XK
   38    41     1     0     0
SMALL
bcc


@<TRIPOS>ATOM
      1 C7         -0.0110   -0.1920   -0.0850 cp        1 3XK     -0.053000
      2 C9          1.9130   -0.8750    1.1670 ca        1 3XK      0.448300
      3 N1         -3.3340    0.9350   -1.0490 nb        1 3XK     -0.677000
      4 C2         -3.2570    0.9690   -2.3860 ca        1 3XK      0.441200
      5 N2         -2.0000    0.4040    0.9740 na        1 3XK     -0.276000
      6 C10         1.3100   -0.6230   -0.0850 ca        1 3XK     -0.144300
      7 C4         -0.9660    0.1650   -1.1080 cp        1 3XK     -0.191300
      8 N3          1.2810   -0.7230    2.3690 nb        1 3XK     -0.607000
      9 N5          4.3790   -1.6790    1.1730 n1        1 3XK     -0.349800
     10 C6         -0.6910   -0.0280    1.1830 ca        1 3XK     -0.106500
     11 C19         3.2740   -1.3190    1.1770 cg        1 3XK      0.137800
     12 C8          0.0120   -0.3100    2.3790 ca        1 3XK      0.382200
     13 C3         -2.1960    0.5340   -0.4140 ca        1 3XK      0.475800
     14 C5         -0.9480    0.2220   -2.4960 ca        1 3XK     -0.022000
     15 C1         -2.1130    0.6280   -3.1570 cp        1 3XK     -0.179300
     16 C11        -2.1620    0.7090   -4.6130 cp        1 3XK     -0.009000
     17 C16        -3.2950    0.2650   -5.3000 ca        1 3XK     -0.180000
     18 C15        -3.3590    0.3350   -6.7120 ca        1 3XK      0.076600
     19 N4         -4.5220   -0.1310   -7.3450 n         1 3XK     -0.477100
     20 C17        -4.8100   -0.1310   -8.7060 c         1 3XK      0.667100
     21 O1         -4.0290    0.3090   -9.5670 o         1 3XK     -0.585100
     22 C18        -6.1540   -0.7060   -9.0930 c3        1 3XK     -0.179100
     23 C14        -2.2550    0.8640   -7.4150 ca        1 3XK     -0.150000
     24 C13        -1.1340    1.3020   -6.7160 ca        1 3XK     -0.102000
     25 C12        -1.0740    1.2290   -5.3280 ca        1 3XK     -0.148000
     26 H1         -4.1820    1.3040   -2.8950 h4        1 3XK      0.031100
     27 H2         -2.6680    0.6050    1.6720 hn        1 3XK      0.321700
     28 H3          1.8690   -0.7640   -1.0200 ha        1 3XK      0.159000
     29 H4         -0.4590   -0.2010    3.3720 h4        1 3XK      0.036100
     30 H5         -0.0440   -0.0510   -3.0620 ha        1 3XK      0.152000
     31 H6         -4.1370   -0.1500   -4.7230 ha        1 3XK      0.131000
     32 H7         -5.2180   -0.5050   -6.7390 hn        1 3XK      0.314500
     33 H8         -6.2290   -1.7760   -8.7810 hc        1 3XK      0.070033
     34 H9         -6.9820   -0.1260   -8.6200 hc        1 3XK      0.070033
     35 H10        -6.2580   -0.6450  -10.2040 hc        1 3XK      0.070033
     36 H11        -2.2680    0.9370   -8.5150 ha        1 3XK      0.177000
     37 H12        -0.2810    1.7140   -7.2770 ha        1 3XK      0.139000
     38 H13        -0.1830    1.5850   -4.7910 ha        1 3XK      0.136000
@<TRIPOS>BOND
     1    1    6 ar  
     2    1    7 1   
     3    1   10 ar  
     4    2    6 ar  
     5    2    8 ar  
     6    2   11 1   
     7    3    4 ar  
     8    3   13 ar  
     9    4   15 ar  
    10    4   26 1   
    11    5   10 1   
    12    5   13 1   
    13    5   27 1   
    14    6   28 1   
    15    7   13 ar  
    16    7   14 ar  
    17    8   12 ar  
    18    9   11 3   
    19   10   12 ar  
    20   12   29 1   
    21   14   15 ar  
    22   14   30 1   
    23   15   16 1   
    24   16   17 ar  
    25   16   25 ar  
    26   17   18 ar  
    27   17   31 1   
    28   18   19 1   
    29   18   23 ar  
    30   19   20 1   
    31   19   32 1   
    32   20   21 2   
    33   20   22 1   
    34   22   33 1   
    35   22   34 1   
    36   22   35 1   
    37   23   24 ar  
    38   23   36 1   
    39   24   25 ar  
    40   24   37 1   
    41   25   38 1   
@<TRIPOS>SUBSTRUCTURE
     1 3XK         1 TEMP              0 ****  ****    0 ROOT
