@<TRIPOS>MOLECULE
3XL
   32    35     1     0     0
SMALL
bcc


@<TRIPOS>ATOM
      1 N4         -1.2630    0.2900   -2.2660 n1        1 3XL     -0.353800
      2 C17        -0.6790    0.2220   -1.2630 cg        1 3XL      0.139800
      3 C9          0.0250    0.1380   -0.0200 ca        1 3XL      0.446300
      4 N3          1.3900    0.0950   -0.0600 nb        1 3XL     -0.609000
      5 C8          2.0640    0.0170    1.0900 ca        1 3XL      0.381200
      6 C6          1.4040   -0.0230    2.3410 ca        1 3XL     -0.106500
      7 N2          1.9080   -0.0990    3.6370 na        1 3XL     -0.276000
      8 C3          0.8160   -0.1130    4.5270 ca        1 3XL      0.476800
      9 N1          0.8660   -0.1880    5.8880 nb        1 3XL     -0.679000
     10 C2         -0.3240   -0.1810    6.5030 ca        1 3XL      0.461200
     11 C10        -0.7360    0.1040    1.1690 ca        1 3XL     -0.146300
     12 C7         -0.0440    0.0230    2.3710 cp        1 3XL     -0.051000
     13 C4         -0.4240   -0.0330    3.7640 cp        1 3XL     -0.196300
     14 C5         -1.6280   -0.0270    4.4580 ca        1 3XL     -0.027000
     15 C1         -1.5880   -0.0990    5.8550 cp        1 3XL     -0.167300
     16 C11        -2.8200   -0.0760    6.6340 cp        1 3XL     -0.058000
     17 C16        -3.8700    0.7730    6.2530 ca        1 3XL     -0.090000
     18 C15        -5.0650    0.8100    6.9650 ca        1 3XL     -0.161000
     19 C14        -5.2390   -0.0060    8.0820 ca        1 3XL     -0.085000
     20 C13        -4.2170   -0.8560    8.4900 ca        1 3XL     -0.210000
     21 C12        -3.0100   -0.8880    7.7730 ca        1 3XL      0.135100
     22 O1         -1.9720   -1.7060    8.1580 oh        1 3XL     -0.500100
     23 H1          3.1640   -0.0150    1.0100 h4        1 3XL      0.035100
     24 H2          2.8590   -0.1620    3.8920 hn        1 3XL      0.320700
     25 H3         -0.2790   -0.2580    7.6070 h4        1 3XL      0.045100
     26 H4         -1.8330    0.1400    1.1390 ha        1 3XL      0.158000
     27 H5         -2.5860    0.0250    3.9200 ha        1 3XL      0.147000
     28 H6         -3.7380    1.4260    5.3750 ha        1 3XL      0.138000
     29 H7         -5.8720    1.4860    6.6460 ha        1 3XL      0.138000
     30 H8         -6.1850    0.0210    8.6450 ha        1 3XL      0.137000
     31 H9         -4.3480   -1.5030    9.3700 ha        1 3XL      0.137000
     32 H10        -2.2860   -2.2690    8.8810 ho        1 3XL      0.424000
@<TRIPOS>BOND
     1    1    2 3   
     2    2    3 1   
     3    3    4 ar  
     4    3   11 ar  
     5    4    5 ar  
     6    5    6 ar  
     7    5   23 1   
     8    6    7 1   
     9    6   12 ar  
    10    7    8 1   
    11    7   24 1   
    12    8    9 ar  
    13    8   13 ar  
    14    9   10 ar  
    15   10   15 ar  
    16   10   25 1   
    17   11   12 ar  
    18   11   26 1   
    19   12   13 1   
    20   13   14 ar  
    21   14   15 ar  
    22   14   27 1   
    23   15   16 1   
    24   16   17 ar  
    25   16   21 ar  
    26   17   18 ar  
    27   17   28 1   
    28   18   19 ar  
    29   18   29 1   
    30   19   20 ar  
    31   19   30 1   
    32   20   21 ar  
    33   20   31 1   
    34   21   22 1   
    35   22   32 1   
@<TRIPOS>SUBSTRUCTURE
     1 3XL         1 TEMP              0 ****  ****    0 ROOT
