@<TRIPOS>MOLECULE
3XL
   32    35     1     0     0
SMALL
bcc


@<TRIPOS>ATOM
      1 N4         -1.2640    0.2800   -2.2670 n1        1 3XL     -0.353800
      2 C17        -0.6800    0.2130   -1.2650 cg        1 3XL      0.139800
      3 C9          0.0240    0.1310   -0.0210 ca        1 3XL      0.446300
      4 N3          1.3890    0.0900   -0.0620 nb        1 3XL     -0.609000
      5 C8          2.0640    0.0130    1.0880 ca        1 3XL      0.381200
      6 C6          1.4040   -0.0250    2.3390 ca        1 3XL     -0.106500
      7 N2          1.9090   -0.0990    3.6360 na        1 3XL     -0.276000
      8 C3          0.8170   -0.1120    4.5260 ca        1 3XL      0.476800
      9 N1          0.8680   -0.1850    5.8870 nb        1 3XL     -0.679000
     10 C2         -0.3220   -0.1780    6.5020 ca        1 3XL      0.461200
     11 C10        -0.7360    0.0990    1.1680 ca        1 3XL     -0.146300
     12 C7         -0.0440    0.0200    2.3700 cp        1 3XL     -0.051000
     13 C4         -0.4230   -0.0340    3.7630 cp        1 3XL     -0.196300
     14 C5         -1.6270   -0.0280    4.4570 ca        1 3XL     -0.027000
     15 C1         -1.5870   -0.0970    5.8550 cp        1 3XL     -0.167300
     16 C11        -2.8180   -0.0740    6.6330 cp        1 3XL     -0.058000
     17 C16        -3.8690    0.7730    6.2510 ca        1 3XL     -0.090000
     18 C15        -5.0640    0.8110    6.9640 ca        1 3XL     -0.161000
     19 C14        -5.2380   -0.0040    8.0830 ca        1 3XL     -0.085000
     20 C13        -4.2140   -0.8530    8.4920 ca        1 3XL     -0.210000
     21 C12        -3.0080   -0.8850    7.7740 ca        1 3XL      0.135100
     22 O1         -1.9680   -1.7010    8.1600 oh        1 3XL     -0.500100
     23 H1          3.1640   -0.0180    1.0080 h4        1 3XL      0.035100
     24 H2          2.8600   -0.1600    3.8900 hn        1 3XL      0.320700
     25 H3         -0.2770   -0.2530    7.6070 h4        1 3XL      0.045100
     26 H4         -1.8330    0.1340    1.1380 ha        1 3XL      0.158000
     27 H5         -2.5850    0.0220    3.9190 ha        1 3XL      0.147000
     28 H6         -3.7380    1.4240    5.3730 ha        1 3XL      0.138000
     29 H7         -5.8720    1.4850    6.6440 ha        1 3XL      0.138000
     30 H8         -6.1830    0.0230    8.6450 ha        1 3XL      0.137000
     31 H9         -4.3440   -1.4980    9.3720 ha        1 3XL      0.137000
     32 H10        -2.2810   -2.2630    8.8840 ho        1 3XL      0.424000
@<TRIPOS>BOND
     1    1    2 3   
     2    2    3 1   
     3    3    4 ar  
     4    3   11 ar  
     5    4    5 ar  
     6    5    6 ar  
     7    5   23 1   
     8    6    7 1   
     9    6   12 ar  
    10    7    8 1   
    11    7   24 1   
    12    8    9 ar  
    13    8   13 ar  
    14    9   10 ar  
    15   10   15 ar  
    16   10   25 1   
    17   11   12 ar  
    18   11   26 1   
    19   12   13 1   
    20   13   14 ar  
    21   14   15 ar  
    22   14   27 1   
    23   15   16 1   
    24   16   17 ar  
    25   16   21 ar  
    26   17   18 ar  
    27   17   28 1   
    28   18   19 ar  
    29   18   29 1   
    30   19   20 ar  
    31   19   30 1   
    32   20   21 ar  
    33   20   31 1   
    34   21   22 1   
    35   22   32 1   
@<TRIPOS>SUBSTRUCTURE
     1 3XL         1 TEMP              0 ****  ****    0 ROOT
