@<TRIPOS>MOLECULE
3XM
   41    42     1     0     0
SMALL
bcc


@<TRIPOS>ATOM
      1 CAA         0.0930    0.0460   -0.1400 ca        1 3XM      0.129100
      2 CAB         1.4640    0.3510   -0.0840 ca        1 3XM     -0.185500
      3 CAC         2.1180    0.2950    1.1410 ca        1 3XM     -0.077500
      4 CAD         1.4280   -0.0560    2.3130 ca        1 3XM     -0.067800
      5 CAE         0.0630   -0.3640    2.2370 ca        1 3XM     -0.077500
      6 CAF        -0.6080   -0.3150    1.0190 ca        1 3XM     -0.185500
      7 CAG         2.1330   -0.0760    3.5890 cc        1 3XM     -0.166200
      8 CAH         2.9910    0.9560    3.9120 cd        1 3XM      0.060600
      9 NAI         3.6870    0.9890    5.0820 ns        1 3XM     -0.442100
     10 CAJ         3.5770   -0.0390    6.0500 c         1 3XM      0.719700
     11 CAK         2.6830   -1.1530    5.7500 cd        1 3XM     -0.425400
     12 CAL         1.9740   -1.1490    4.5460 cc        1 3XM      0.322100
     13 OAM         1.1010   -2.1050    4.1540 oh        1 3XM     -0.486100
     14 OAN        -0.5020    0.1220   -1.3770 oh        1 3XM     -0.496100
     15 OAO         4.2640    0.1200    7.0780 o         1 3XM     -0.644500
     16 CAP         2.5500   -2.2410    6.7270 c         1 3XM      0.615300
     17 CAQ         3.4480   -2.2510    7.9280 c3        1 3XM     -0.166400
     18 OAR         1.7060   -3.1440    6.5610 o         1 3XM     -0.607100
     19 CAS         3.2750   -3.5000    8.7660 c3        1 3XM     -0.074400
     20 CAT         4.1880   -3.4700    9.9720 c3        1 3XM     -0.078400
     21 CAU         4.0210   -4.7170   10.8150 c3        1 3XM     -0.079400
     22 CAV         4.9270   -4.6950   12.0190 c3        1 3XM     -0.092100
     23 HAB         1.9980    0.6230   -1.0050 ha        1 3XM      0.144500
     24 HAC         3.1940    0.5200    1.1870 ha        1 3XM      0.139000
     25 HAE        -0.4790   -0.6620    3.1480 ha        1 3XM      0.139000
     26 HAF        -1.6790   -0.5590    0.9660 ha        1 3XM      0.144500
     27 HAH         3.1440    1.8050    3.2170 h4        1 3XM      0.165000
     28 HNAI        4.2930    1.7550    5.2860 hn        1 3XM      0.340500
     29 HOAM        1.0560   -2.8420    4.7930 ho        1 3XM      0.480000
     30 HOAN       -1.4310   -0.1320   -1.2780 ho        1 3XM      0.421000
     31 H1AQ        3.2280   -1.3370    8.5450 hc        1 3XM      0.087200
     32 H2AQ        4.5140   -2.1600    7.5840 hc        1 3XM      0.087200
     33 H1AS        3.4940   -4.4050    8.1410 hc        1 3XM      0.050200
     34 H2AS        2.2060   -3.5850    9.0950 hc        1 3XM      0.050200
     35 H1AT        5.2550   -3.3840    9.6360 hc        1 3XM      0.040200
     36 H2AT        3.9630   -2.5640   10.5940 hc        1 3XM      0.040200
     37 H1AU        2.9530   -4.8020   11.1480 hc        1 3XM      0.039200
     38 H2AU        4.2450   -5.6220   10.1910 hc        1 3XM      0.039200
     39 H1AV        5.9980   -4.6350   11.7070 hc        1 3XM      0.032033
     40 H2AV        4.7020   -3.8130   12.6660 hc        1 3XM      0.032033
     41 H3AV        4.7890   -5.6220   12.6270 hc        1 3XM      0.032033
@<TRIPOS>BOND
     1    1    2 ar  
     2    1    6 ar  
     3    1   14 1   
     4    2    3 ar  
     5    2   23 1   
     6    3    4 ar  
     7    3   24 1   
     8    4    5 ar  
     9    4    7 1   
    10    5    6 ar  
    11    5   25 1   
    12    6   26 1   
    13    7    8 2   
    14    7   12 1   
    15    8    9 1   
    16    8   27 1   
    17    9   10 1   
    18    9   28 1   
    19   10   11 1   
    20   10   15 2   
    21   11   12 2   
    22   11   16 1   
    23   12   13 1   
    24   13   29 1   
    25   14   30 1   
    26   16   17 1   
    27   16   18 2   
    28   17   19 1   
    29   17   31 1   
    30   17   32 1   
    31   19   20 1   
    32   19   33 1   
    33   19   34 1   
    34   20   21 1   
    35   20   35 1   
    36   20   36 1   
    37   21   22 1   
    38   21   37 1   
    39   21   38 1   
    40   22   39 1   
    41   22   40 1   
    42   22   41 1   
@<TRIPOS>SUBSTRUCTURE
     1 3XM         1 TEMP              0 ****  ****    0 ROOT
