@<TRIPOS>MOLECULE
3XM
   41    42     1     0     0
SMALL
bcc


@<TRIPOS>ATOM
      1 CAA         0.1070    0.0490   -0.1450 ca        1 3XM      0.129100
      2 CAB         1.4760    0.3600   -0.0830 ca        1 3XM     -0.185500
      3 CAC         2.1260    0.3040    1.1430 ca        1 3XM     -0.077500
      4 CAD         1.4340   -0.0530    2.3120 ca        1 3XM     -0.067800
      5 CAE         0.0710   -0.3680    2.2300 ca        1 3XM     -0.077500
      6 CAF        -0.5970   -0.3180    1.0100 ca        1 3XM     -0.185500
      7 CAG         2.1350   -0.0740    3.5910 cc        1 3XM     -0.166200
      8 CAH         2.9870    0.9610    3.9190 cd        1 3XM      0.060600
      9 NAI         3.6780    0.9950    5.0920 n         1 3XM     -0.442100
     10 CAJ         3.5700   -0.0360    6.0570 c         1 3XM      0.719700
     11 CAK         2.6820   -1.1540    5.7510 cd        1 3XM     -0.425400
     12 CAL         1.9780   -1.1500    4.5450 cc        1 3XM      0.322100
     13 OAM         1.1100   -2.1080    4.1470 oh        1 3XM     -0.486100
     14 OAN        -0.4840    0.1260   -1.3850 oh        1 3XM     -0.496100
     15 OAO         4.2530    0.1240    7.0880 o         1 3XM     -0.644500
     16 CAP         2.5500   -2.2440    6.7250 c         1 3XM      0.615300
     17 CAQ         3.4440   -2.2530    7.9290 c3        1 3XM     -0.166400
     18 OAR         1.7120   -3.1520    6.5530 o         1 3XM     -0.607100
     19 CAS         3.2720   -3.5040    8.7640 c3        1 3XM     -0.074400
     20 CAT         4.1790   -3.4730    9.9750 c3        1 3XM     -0.078400
     21 CAU         4.0150   -4.7220   10.8150 c3        1 3XM     -0.079400
     22 CAV         4.9150   -4.6970   12.0230 c3        1 3XM     -0.092100
     23 HAB         2.0120    0.6370   -1.0020 ha        1 3XM      0.144500
     24 HAC         3.2010    0.5330    1.1940 ha        1 3XM      0.139000
     25 HAE        -0.4730   -0.6700    3.1390 ha        1 3XM      0.139000
     26 HAF        -1.6650   -0.5670    0.9530 ha        1 3XM      0.144500
     27 HAH         3.1380    1.8130    3.2270 h4        1 3XM      0.165000
     28 HNAI        4.2800    1.7630    5.3000 hn        1 3XM      0.340500
     29 HOAM        1.0660   -2.8470    4.7830 ho        1 3XM      0.480000
     30 HOAN       -1.4120   -0.1330   -1.2890 ho        1 3XM      0.421000
     31 H1AQ        3.2160   -1.3410    8.5470 hc        1 3XM      0.087200
     32 H2AQ        4.5110   -2.1560    7.5900 hc        1 3XM      0.087200
     33 H1AS        3.4990   -4.4070    8.1380 hc        1 3XM      0.050200
     34 H2AS        2.2020   -3.5950    9.0880 hc        1 3XM      0.050200
     35 H1AT        5.2480   -3.3800    9.6440 hc        1 3XM      0.040200
     36 H2AT        3.9470   -2.5680   10.5970 hc        1 3XM      0.040200
     37 H1AU        4.2470   -5.6250   10.1900 hc        1 3XM      0.039200
     38 H2AU        2.9460   -4.8130   11.1420 hc        1 3XM      0.039200
     39 H1AV        4.7780   -5.6260   12.6280 hc        1 3XM      0.032033
     40 H2AV        5.9860   -4.6310   11.7160 hc        1 3XM      0.032033
     41 H3AV        4.6810   -3.8170   12.6710 hc        1 3XM      0.032033
@<TRIPOS>BOND
     1    1    2 ar  
     2    1    6 ar  
     3    1   14 1   
     4    2    3 ar  
     5    2   23 1   
     6    3    4 ar  
     7    3   24 1   
     8    4    5 ar  
     9    4    7 1   
    10    5    6 ar  
    11    5   25 1   
    12    6   26 1   
    13    7    8 2   
    14    7   12 1   
    15    8    9 1   
    16    8   27 1   
    17    9   10 1   
    18    9   28 1   
    19   10   11 1   
    20   10   15 2   
    21   11   12 2   
    22   11   16 1   
    23   12   13 1   
    24   13   29 1   
    25   14   30 1   
    26   16   17 1   
    27   16   18 2   
    28   17   19 1   
    29   17   31 1   
    30   17   32 1   
    31   19   20 1   
    32   19   33 1   
    33   19   34 1   
    34   20   21 1   
    35   20   35 1   
    36   20   36 1   
    37   21   22 1   
    38   21   37 1   
    39   21   38 1   
    40   22   39 1   
    41   22   40 1   
    42   22   41 1   
@<TRIPOS>SUBSTRUCTURE
     1 3XM         1 TEMP              0 ****  ****    0 ROOT
