@<TRIPOS>MOLECULE
3XN
   50    50     1     0     0
SMALL
bcc


@<TRIPOS>ATOM
      1 O3          0.9030   -1.2570    1.4700 oh        1 3XN     -0.342000
      2 C4          2.3250    0.2260   -1.6190 c2        1 3XN      0.208000
      3 C5          4.6050    3.4050    1.0360 c3        1 3XN     -0.077000
      4 O4          2.6400    0.8010    2.2240 oh        1 3XN     -0.250000
      5 C6          5.8750   -1.3890   -0.1940 c2        1 3XN      0.115000
      6 C7          6.6800   -0.1610   -0.2090 c2        1 3XN     -0.141000
      7 C8          8.0010   -0.3170   -0.4440 c2        1 3XN     -0.152000
      8 C9          8.6550   -1.6010   -0.9480 c3        1 3XN      0.061000
      9 O5          4.7900   -1.6040    0.6210 os        1 3XN     -0.136000
     10 C10         7.5880   -2.5570   -1.4800 c2        1 3XN     -0.106000
     11 O6          9.9680   -5.9540    5.3610 o         1 3XN     -0.512700
     12 C11         6.3950   -2.3610   -0.9630 c1        1 3XN     -0.208000
     13 C12        11.0830   -1.6820   -0.1880 c3        1 3XN     -0.132000
     14 C13        11.8250   -2.3300    0.9470 c1        1 3XN     -0.037000
     15 O7         11.9480   -5.2970    5.0960 o         1 3XN     -0.512700
     16 C14        10.8470   -3.0720    1.6650 c2        1 3XN     -0.310000
     17 C15         9.5590   -2.9180    1.0380 c2        1 3XN      0.297000
     18 C18        10.3540   -4.5720    3.5710 c2        1 3XN     -0.285000
     19 C19        11.1980   -3.8300    2.8220 c2        1 3XN      0.070000
     20 C17         7.3680   -4.0500    1.8690 c1        1 3XN     -0.063000
     21 C16         8.3630   -3.5140    1.4700 c1        1 3XN     -0.195000
     22 N           9.6700   -2.1190   -0.0680 n3        1 3XN     -0.227000
     23 C           4.3690   -0.5040    1.3690 c2        1 3XN     -0.081000
     24 O           3.1110    1.1710   -1.6100 o         1 3XN     -0.289000
     25 O1          5.2730    2.7910   -0.0440 oh        1 3XN     -0.355000
     26 C3          1.3580   -0.0220   -0.4750 c3        1 3XN     -0.031000
     27 O2          0.2340   -0.6630   -1.0510 oh        1 3XN     -0.318000
     28 C2          1.9870   -0.9330    0.6030 c3        1 3XN      0.012000
     29 C1          3.0480   -0.2190    1.3890 c2        1 3XN     -0.030000
     30 HO3         1.1650   -2.0340    1.9780 ho        1 3XN      0.226000
     31 H4          2.2510   -0.4930   -2.4620 h4        1 3XN      0.127000
     32 H52         4.0620    4.3230    0.6990 h1        1 3XN      0.071333
     33 H51         5.4100    3.6830    1.7620 h1        1 3XN      0.071333
     34 HO4         1.6970    0.6580    2.4100 ho        1 3XN      0.235000
     35 H7          6.2220    0.8080    0.0530 ha        1 3XN      0.191000
     36 H8          8.6970    0.5240   -0.2960 ha        1 3XN      0.151000
     37 H10         9.2070   -1.2920   -1.8990 h1        1 3XN      0.135000
     38 H11         7.8460   -3.1930   -2.3310 ha        1 3XN      0.164000
     39 H13        11.5020   -2.0210   -1.1750 h1        1 3XN      0.146000
     40 H19        12.2770   -3.7680    3.0890 ha        1 3XN      0.180000
     41 H17         9.2760   -4.7010    3.3920 h4        1 3XN      0.173000
     42 H16         6.4830   -4.5230    2.2210 ha        1 3XN      0.244000
     43 H           5.1370    0.0350    1.9360 h4        1 3XN      0.174000
     44 HO1         4.6060    2.5770   -0.7100 ho        1 3XN      0.219000
     45 H3          3.8850    2.6910    1.5130 h1        1 3XN      0.071333
     46 HO2         1.0480    0.9510    0.0000 h1        1 3XN      0.114000
     47 H2         -0.3680   -0.8850   -0.3270 ho        1 3XN      0.231000
     48 H1          2.4070   -1.8630    0.1280 h1        1 3XN      0.130000
     49 H12        11.1470   -0.5620   -0.1180 h1        1 3XN      0.146000
     50 N1         10.7940   -5.3210    4.7520 no        1 3XN      0.828400
@<TRIPOS>BOND
     1    1   28 1   
     2    1   30 1   
     3    2   24 1   
     4    2   26 1   
     5    2   31 1   
     6    3   25 1   
     7    3   32 1   
     8    3   33 1   
     9    3   45 1   
    10    4   29 1   
    11    4   34 1   
    12    5    6 1   
    13    5    9 1   
    14    5   12 1   
    15    6    7 1   
    16    6   35 1   
    17    7    8 1   
    18    7   36 1   
    19    8   10 1   
    20    8   22 1   
    21    8   37 1   
    22    9   23 1   
    23   10   12 1   
    24   10   38 1   
    25   11   50 2   
    26   13   14 1   
    27   13   22 1   
    28   13   39 1   
    29   13   49 1   
    30   14   16 1   
    31   15   50 2   
    32   16   17 1   
    33   16   19 1   
    34   17   21 1   
    35   17   22 1   
    36   18   19 1   
    37   18   41 1   
    38   18   50 1   
    39   19   40 1   
    40   20   21 1   
    41   20   42 1   
    42   23   29 1   
    43   23   43 1   
    44   25   44 1   
    45   26   27 1   
    46   26   28 1   
    47   26   46 1   
    48   27   47 1   
    49   28   29 1   
    50   28   48 1   
@<TRIPOS>SUBSTRUCTURE
     1 3XN         1 TEMP              0 ****  ****    0 ROOT
