@<TRIPOS>MOLECULE
3XO
   59    57     1     0     0
SMALL
bcc


@<TRIPOS>ATOM
      1 O3         -0.7830   -1.9620   -0.9230 os        1 3XO     -0.317000
      2 C4          2.7180   -2.9020   -3.8130 c1        1 3XO     -0.175000
      3 C5          3.3050   -3.0750   -2.4900 c3        1 3XO     -0.059000
      4 O4          0.8520   -1.1150    1.3000 oh        1 3XO     -0.280000
      5 C6          1.2420   -0.6170   -6.0930 cv        1 3XO      0.082000
      6 N1          0.1630   -1.1530   -8.3430 nh        1 3XO     -0.080000
      7 C7          0.7140   -0.3250   -7.3750 cv        1 3XO     -0.254000
      8 C8          0.9790    1.1120   -7.2800 cv        1 3XO      0.246000
      9 N2         -2.0770   -0.2840  -12.1770 n3        1 3XO     -0.295000
     10 C9          1.5890    0.8510   -5.8860 cv        1 3XO      0.227000
     11 O5         -0.4450    0.9310    2.6230 oh        1 3XO     -0.300000
     12 C10        -0.3040    0.9000  -10.9900 c2        1 3XO     -0.332000
     13 O6          2.1560    1.5190    1.9750 o         1 3XO     -0.245000
     14 C11        -1.5590    0.4300  -11.0930 c2        1 3XO     -0.060000
     15 C12        -0.5150   -3.3720   -9.1170 c3        1 3XO     -0.238000
     16 C13         0.0560   -2.4450   -8.1200 c1        1 3XO     -0.197000
     17 C14        -3.0850   -1.2670  -11.8990 c3        1 3XO     -0.102000
     18 C15         4.0500   -0.5220    0.1840 c3        1 3XO     -0.108000
     19 O2          2.1480    1.4980   -5.0240 o         1 3XO     -0.235000
     20 O1          0.8090    2.1040   -7.9720 o         1 3XO     -0.289000
     21 C3          1.8720   -1.8490   -4.1070 c2        1 3XO     -0.164000
     22 C2          1.4440   -0.9430   -3.1340 c1        1 3XO     -0.157000
     23 C1          2.0630   -0.9290   -1.8160 c3        1 3XO     -0.234000
     24 CL          4.9640   -3.6420   -2.6390 cl        1 3XO     -0.030000
     25 C           3.1840   -1.8720   -1.5840 c2        1 3XO      0.210000
     26 O           4.1000   -1.6960   -0.6600 os        1 3XO     -0.110000
     27 C19         1.6520    2.4850    2.4130 c1        1 3XO      0.246000
     28 C18        -1.1840    0.0130    1.8990 c2        1 3XO     -0.129000
     29 C17        -0.5200   -0.9790    1.2660 c2        1 3XO     -0.043000
     30 C16        -1.1880   -2.0320    0.4350 c3        1 3XO      0.028000
     31 C20        -1.4250   -0.9550   -1.6910 c3        1 3XO      0.070000
     32 H6          2.7310   -3.9110   -1.9780 h1        1 3XO      0.188000
     33 H20         1.1940   -0.5160    1.9840 ho        1 3XO      0.230000
     34 H21        -1.0520    1.3620    3.2400 ho        1 3XO      0.232000
     35 H8         -0.1200   -0.6760   -9.1860 hn        1 3XO      0.192000
     36 H9          0.4800    0.7030  -11.7310 ha        1 3XO      0.131000
     37 H22        -1.5180    0.0150   -1.1360 h2        1 3XO      0.132000
     38 H11        -0.0090    1.5490  -10.1530 ha        1 3XO      0.131000
     39 H10        -2.3130    0.6610  -10.3140 h4        1 3XO      0.135000
     40 H12        -0.8990   -2.9140  -10.0650 hc        1 3XO      0.084000
     41 H13        -1.3810   -0.6080  -12.8190 hn        1 3XO      0.181000
     42 H15        -1.3570   -3.9210   -8.6240 hc        1 3XO      0.084000
     43 H14         0.2790   -4.1170   -9.3790 hc        1 3XO      0.084000
     44 H25        -2.6830   -2.1950   -2.4690 ho        1 3XO      0.216000
     45 H18        -2.6930   -2.1590  -11.3350 h1        1 3XO      0.071667
     46 H17        -3.9070   -0.8020  -11.2920 h1        1 3XO      0.071667
     47 H16        -3.5130   -1.6220  -12.8730 h1        1 3XO      0.071667
     48 H           3.0410   -0.4250    0.6550 h1        1 3XO      0.127333
     49 H7          1.1030   -2.6080   -5.9050 hn        1 3XO      0.288000
     50 H5          1.2470   -1.1760   -1.0510 hc        1 3XO      0.193000
     51 H4          2.3870    0.1330   -1.6050 hc        1 3XO      0.193000
     52 H3          4.3050    0.3760   -0.4300 h1        1 3XO      0.127333
     53 H2          4.8430   -0.7360    0.9440 h1        1 3XO      0.127333
     54 H1         -2.2720    0.1460    1.8630 h4        1 3XO      0.157000
     55 H19        -0.8500   -3.0490    0.7740 h1        1 3XO      0.112500
     56 H23        -0.8040   -0.8670   -2.6290 h2        1 3XO      0.132000
     57 H24        -2.3030   -1.9380    0.5180 h1        1 3XO      0.112500
     58 O7         -2.7300   -1.4180   -1.8980 oh        1 3XO     -0.351000
     59 N           1.3380   -1.7560   -5.4210 nh        1 3XO     -0.131000
@<TRIPOS>BOND
     1    1   30 1   
     2    1   31 1   
     3    2    3 1   
     4    2   21 1   
     5    3   24 1   
     6    3   25 1   
     7    3   32 1   
     8    4   29 1   
     9    4   33 1   
    10    5    7 1   
    11    5   10 1   
    12    5   59 1   
    13    6    7 1   
    14    6   16 1   
    15    6   35 1   
    16    7    8 1   
    17    8   10 1   
    18    8   20 1   
    19    9   14 1   
    20    9   17 1   
    21    9   41 1   
    22   10   19 1   
    23   11   28 1   
    24   11   34 1   
    25   12   14 1   
    26   12   36 1   
    27   12   38 1   
    28   13   27 1   
    29   14   39 1   
    30   15   16 1   
    31   15   40 1   
    32   15   42 1   
    33   15   43 1   
    34   17   45 1   
    35   17   46 1   
    36   17   47 1   
    37   18   26 1   
    38   18   48 1   
    39   18   52 1   
    40   18   53 1   
    41   21   22 1   
    42   21   59 1   
    43   22   23 1   
    44   23   25 1   
    45   23   50 1   
    46   23   51 1   
    47   25   26 1   
    48   28   29 1   
    49   28   54 1   
    50   29   30 1   
    51   30   55 1   
    52   30   57 1   
    53   31   37 1   
    54   31   56 1   
    55   31   58 1   
    56   44   58 1   
    57   49   59 1   
@<TRIPOS>SUBSTRUCTURE
     1 3XO         1 TEMP              0 ****  ****    0 ROOT
