@<TRIPOS>MOLECULE
3XO
   59    59     1     0     0
SMALL
bcc


@<TRIPOS>ATOM
      1 O3          0.8670   -0.2130    0.2900 os        1 3XO     -0.308000
      2 C4          2.2280   -2.7390   -4.1720 c2        1 3XO     -0.029000
      3 C5          2.4140   -2.8080   -2.7540 c2        1 3XO     -0.156000
      4 O4         -1.2420   -0.8910    3.2030 oh        1 3XO     -0.317000
      5 C6          1.2060   -0.4590   -6.8140 cv        1 3XO      0.073000
      6 N1          0.2820   -1.0980   -9.0960 nu        1 3XO     -0.091000
      7 C7          0.7290   -0.2260   -8.1150 cv        1 3XO     -0.208000
      8 C8          0.9030    1.2390   -8.0280 cv        1 3XO      0.242000
      9 N2         -1.8910   -0.4910  -12.9920 n7        1 3XO     -0.298000
     10 C9          1.4620    1.0240   -6.6020 cv        1 3XO      0.240000
     11 O5          1.1020   -1.0130    4.3080 oh        1 3XO     -0.268000
     12 C10        -0.2570    0.8470  -11.7730 c2        1 3XO     -0.341000
     13 O6          2.1630    1.6010    2.0050 oh        1 3XO     -0.254000
     14 C11        -1.4770    0.3020  -11.9200 c2        1 3XO     -0.053000
     15 C12        -0.1880   -3.3750   -9.8600 c3        1 3XO     -0.242000
     16 C13         0.2850   -2.3960   -8.8640 c1        1 3XO     -0.190000
     17 C14        -2.8710   -1.5060  -12.7310 c3        1 3XO     -0.100000
     18 C15         2.1670   -0.7420    0.1840 c3        1 3XO      0.094000
     19 O2          1.9560    1.7170   -5.7390 o         1 3XO     -0.204000
     20 O1          0.6940    2.1990   -8.7470 o         1 3XO     -0.258000
     21 C3          1.5620   -1.6710   -4.7470 c2        1 3XO     -0.067000
     22 C2          1.0180   -0.6160   -3.9490 c1        1 3XO     -0.082000
     23 C1          1.1730   -0.6700   -2.5140 c3        1 3XO     -0.215000
     24 Cl          3.2460   -4.1650   -2.1560 cl        1 3XO      0.006000
     25 C           1.9340   -1.8100   -1.9430 c2        1 3XO      0.084000
     26 O           2.0790   -1.9350   -0.5800 os        1 3XO     -0.229000
     27 C19         2.0420    0.7390    3.0520 c2        1 3XO      0.005000
     28 C18         1.0160   -0.1150    3.2520 c2        1 3XO     -0.175000
     29 C17        -0.2430   -0.2250    2.4480 c3        1 3XO      0.045000
     30 C16        -0.0420   -0.9600    1.1050 c3        1 3XO     -0.040000
     31 C20        -1.3740   -1.0130    0.3440 c3        1 3XO     -0.031000
     32 H6          2.6370   -3.5670   -4.7770 ha        1 3XO      0.156000
     33 H20        -0.8910   -1.7580    3.4510 ho        1 3XO      0.214000
     34 H21         0.4940   -0.6840    4.9890 ho        1 3XO      0.217000
     35 H8         -0.0220   -0.6520   -9.9500 hn        1 3XO      0.201000
     36 H9         -0.0490    1.5550  -10.9580 ha        1 3XO      0.130000
     37 H22         1.3700    1.5520    1.4440 ho        1 3XO      0.233000
     38 H11         0.5760    0.6640  -12.4610 ha        1 3XO      0.130000
     39 H10        -2.2870    0.5260  -11.1960 h4        1 3XO      0.136000
     40 H12        -0.5960   -2.9590  -10.8170 hc        1 3XO      0.089333
     41 H13        -1.1500   -0.7980  -13.5870 hn        1 3XO      0.185000
     42 H15        -0.9870   -3.9910   -9.3740 hc        1 3XO      0.089333
     43 H14         0.6710   -4.0510  -10.1050 hc        1 3XO      0.089333
     44 H25        -1.0910   -2.7450   -0.4740 ho        1 3XO      0.204000
     45 H18        -3.2270   -1.9160  -13.7130 h1        1 3XO      0.072667
     46 H17        -2.4710   -2.3580  -12.1130 h1        1 3XO      0.072667
     47 H16        -3.7450   -1.0580  -12.1890 h1        1 3XO      0.072667
     48 H           2.7780    0.0610   -0.3070 h2        1 3XO      0.132000
     49 H7          1.1530   -2.4500   -6.6430 hn        1 3XO      0.277000
     50 H5          0.1190   -0.6990   -2.0670 hc        1 3XO      0.201000
     51 H4          1.6030    0.3200   -2.1720 hc        1 3XO      0.201000
     52 H3          2.5850   -1.0790    1.1720 h2        1 3XO      0.132000
     53 H2          2.9250    0.8040    3.7120 h4        1 3XO      0.183000
     54 H1         -0.6750    0.7990    2.2520 h1        1 3XO      0.129000
     55 H19         0.3490   -1.9980    1.2850 h1        1 3XO      0.111000
     56 H23        -1.6240   -0.0010   -0.0750 h1        1 3XO      0.111500
     57 H24        -2.1800   -1.3510    1.0490 h1        1 3XO      0.111500
     58 O7         -1.3050   -1.8570   -0.7840 oh        1 3XO     -0.323000
     59 N           1.4090   -1.6080   -6.1490 nu        1 3XO     -0.188000
@<TRIPOS>BOND
     1    1   18 1   
     2    1   30 1   
     3    2    3 1   
     4    2   21 1   
     5    2   32 1   
     6    3   24 1   
     7    3   25 1   
     8    4   29 1   
     9    4   33 1   
    10    5    7 1   
    11    5   10 1   
    12    5   59 1   
    13    6    7 1   
    14    6   16 1   
    15    6   35 1   
    16    7    8 1   
    17    8   10 1   
    18    8   20 1   
    19    9   14 1   
    20    9   17 1   
    21    9   41 1   
    22   10   19 1   
    23   11   28 1   
    24   11   34 1   
    25   12   14 1   
    26   12   36 1   
    27   12   38 1   
    28   13   27 1   
    29   13   37 1   
    30   14   39 1   
    31   15   16 1   
    32   15   40 1   
    33   15   42 1   
    34   15   43 1   
    35   17   45 1   
    36   17   46 1   
    37   17   47 1   
    38   18   26 1   
    39   18   48 1   
    40   18   52 1   
    41   21   22 1   
    42   21   59 1   
    43   22   23 1   
    44   23   25 1   
    45   23   50 1   
    46   23   51 1   
    47   25   26 1   
    48   27   28 1   
    49   27   53 1   
    50   28   29 1   
    51   29   30 1   
    52   29   54 1   
    53   30   31 1   
    54   30   55 1   
    55   31   56 1   
    56   31   57 1   
    57   31   58 1   
    58   44   58 1   
    59   49   59 1   
@<TRIPOS>SUBSTRUCTURE
     1 3XO         1 TEMP              0 ****  ****    0 ROOT
