@<TRIPOS>MOLECULE
3XR
   30    28     1     0     0
SMALL
bcc


@<TRIPOS>ATOM
      1 CAA        -0.1030   -0.0140    0.0860 c3        1 3XR     -0.186100
      2 CAJ         1.1330    0.8120    0.1980 c         1 3XR      0.560100
      3 OAB         1.6030    1.3270    1.2030 o         1 3XR     -0.425100
      4 NAH         1.9020    1.0350   -1.0730 n4        1 3XR     -0.712800
      5 CAO         3.2220    0.2030   -1.0870 c3        1 3XR      0.377700
      6 NAI         2.9200   -1.1870   -1.1050 n3        1 3XR     -0.960800
      7 CAG         5.8790   -2.4200   -2.1950 c2        1 3XR     -0.166000
      8 CAN         5.4160   -1.3440   -2.8260 c2        1 3XR     -0.254200
      9 CAK         9.5440    1.4560   -2.3390 c1        1 3XR      0.900000
     10 OAD        10.6540    1.8230   -2.5200 o         1 3XR     -0.449500
     11 OAC         8.4210    1.0860   -2.1580 o         1 3XR     -0.449500
     12 CAL         5.4690    0.0440   -2.2820 c3        1 3XR      0.147300
     13 OAE         5.9100    0.1090   -0.9320 oh        1 3XR     -0.629800
     14 CAM         4.0830    0.7190   -2.2930 c3        1 3XR      0.119100
     15 OAF         4.1860    2.1220   -2.1840 oh        1 3XR     -0.605800
     16 H1         -0.5670   -0.1060    1.1030 hc        1 3XR      0.111367
     17 H2         -0.8420    0.4670   -0.6040 hc        1 3XR      0.111367
     18 H3          0.1450   -1.0380   -0.2950 hc        1 3XR      0.111367
     19 H4          1.3260    0.7920   -1.8800 hn        1 3XR      0.460300
     20 H5          3.7390    0.5130   -0.1200 hx        1 3XR      0.133700
     21 H6          3.2450   -1.6770   -0.2990 hn        1 3XR      0.422800
     22 H8          6.3120   -2.3760   -1.1840 ha        1 3XR      0.134000
     23 H9          5.8670   -3.4190   -2.6550 ha        1 3XR      0.134000
     24 H10         5.0080   -1.4070   -3.8500 ha        1 3XR      0.142000
     25 H12         6.1580    0.6620   -2.9360 h1        1 3XR      0.096700
     26 H13         6.8690   -0.0220   -0.9360 ho        1 3XR      0.449000
     27 H14         3.5680    0.5260   -3.2750 h1        1 3XR      0.099700
     28 H15         4.9510    2.3310   -1.6260 ho        1 3XR      0.446000
     29 H7          3.1510   -1.6490   -1.9590 hn        1 3XR      0.422800
     30 HAH2        2.1950    2.0190   -1.1510 hn        1 3XR      0.460300
@<TRIPOS>BOND
     1    1    2 1   
     2    1   16 1   
     3    1   17 1   
     4    1   18 1   
     5    2    3 2   
     6    2    4 1   
     7    4    5 1   
     8    4   19 1   
     9    4   30 1   
    10    5    6 1   
    11    5   14 1   
    12    5   20 1   
    13    6   21 1   
    14    6   29 1   
    15    7    8 2   
    16    7   22 1   
    17    7   23 1   
    18    8   12 1   
    19    8   24 1   
    20    9   10 2   
    21    9   11 2   
    22   12   13 1   
    23   12   14 1   
    24   12   25 1   
    25   13   26 1   
    26   14   15 1   
    27   14   27 1   
    28   15   28 1   
@<TRIPOS>SUBSTRUCTURE
     1 3XR         1 TEMP              0 ****  ****    0 ROOT
