@<TRIPOS>MOLECULE
3XR
   30    28     1     0     0
SMALL
bcc


@<TRIPOS>ATOM
      1 CAA         0.1530   -0.3650    0.5000 c3        1 3XR     -0.186100
      2 CAJ         1.2120    0.6710    0.3420 c         1 3XR      0.560100
      3 OAB         1.7320    1.3530    1.2140 o         1 3XR     -0.425100
      4 NAH         1.7090    0.9070   -1.0570 ny        1 3XR     -0.712800
      5 CAO         3.1490    0.3370   -1.2470 c3        1 3XR      0.377700
      6 NAI         3.1300   -1.0790   -1.1160 n8        1 3XR     -0.962800
      7 CAG         6.2280   -1.7660   -2.6540 c2        1 3XR     -0.161000
      8 CAN         5.3370   -0.9330   -3.1870 c2        1 3XR     -0.263200
      9 CAK         9.9040   -0.0320   -0.8120 c1        1 3XR      0.899000
     10 OAD        11.0320    0.0220   -0.4560 o         1 3XR     -0.449000
     11 OAC         8.7660   -0.0890   -1.1700 o         1 3XR     -0.449000
     12 CAL         5.1680    0.4960   -2.7960 c3        1 3XR      0.149300
     13 OAE         5.7870    0.8470   -1.5670 oh        1 3XR     -0.631800
     14 CAM         3.6840    0.8770   -2.6190 c3        1 3XR      0.121100
     15 OAF         3.5020    2.2760   -2.6390 oh        1 3XR     -0.604800
     16 H1          0.5260   -1.3620    0.1470 hc        1 3XR      0.111700
     17 H2         -0.7640   -0.0900   -0.0790 hc        1 3XR      0.111700
     18 H3         -0.1150   -0.4410    1.5870 hc        1 3XR      0.111700
     19 H4          1.0720    0.4830   -1.7320 hn        1 3XR      0.460300
     20 H5          3.7420    0.8340   -0.4100 hx        1 3XR      0.134700
     21 H6          3.6680   -1.4180   -0.3470 hn        1 3XR      0.422800
     22 H8          6.9080   -1.4790   -1.8370 ha        1 3XR      0.138000
     23 H9          6.3480   -2.7980   -3.0160 ha        1 3XR      0.138000
     24 H10         4.6960   -1.2440   -4.0300 ha        1 3XR      0.139000
     25 H12         5.5860    1.1460   -3.6250 h1        1 3XR      0.085700
     26 H13         6.7390    0.6960   -1.6620 ho        1 3XR      0.453000
     27 H14         3.0780    0.4780   -3.4800 h1        1 3XR      0.100700
     28 H15         4.2790    2.6940   -2.2370 ho        1 3XR      0.447000
     29 H7          3.3060   -1.5760   -1.9630 hn        1 3XR      0.422800
     30 HAH2        1.7830    1.9160   -1.2500 hn        1 3XR      0.460300
@<TRIPOS>BOND
     1    1    2 1   
     2    1   16 1   
     3    1   17 1   
     4    1   18 1   
     5    2    3 2   
     6    2    4 1   
     7    4    5 1   
     8    4   19 1   
     9    4   30 1   
    10    5    6 1   
    11    5   14 1   
    12    5   20 1   
    13    6   21 1   
    14    6   29 1   
    15    7    8 2   
    16    7   22 1   
    17    7   23 1   
    18    8   12 1   
    19    8   24 1   
    20    9   10 2   
    21    9   11 2   
    22   12   13 1   
    23   12   14 1   
    24   12   25 1   
    25   13   26 1   
    26   14   15 1   
    27   14   27 1   
    28   15   28 1   
@<TRIPOS>SUBSTRUCTURE
     1 3XR         1 TEMP              0 ****  ****    0 ROOT
