@<TRIPOS>MOLECULE
3XS
   39    41     1     0     0
SMALL
bcc


@<TRIPOS>ATOM
      1 O9          0.3730   -0.6000    0.9900 o         1 3XS     -0.818800
      2 C7          0.8320    0.4060    0.3520 c         1 3XS      0.912200
      3 O8          0.6180    1.5910    0.7130 o         1 3XS     -0.818800
      4 C3          1.7000    0.1690   -0.8710 ca        1 3XS     -0.095600
      5 C4          2.8010    1.0060   -1.0800 ca        1 3XS     -0.113000
      6 C5          3.6350    0.8250   -2.1800 ca        1 3XS     -0.142000
      7 C6          3.3760   -0.1980   -3.0930 ca        1 3XS     -0.161000
      8 C1          2.2800   -1.0380   -2.9040 ca        1 3XS     -0.113000
      9 C2          1.4400   -0.8560   -1.7990 ca        1 3XS     -0.122900
     10 C11         0.2680   -1.7010   -1.5620 ce        1 3XS      0.441800
     11 N12         0.2330   -2.9780   -1.8310 n2        1 3XS     -0.495400
     12 N13        -0.8630   -3.7110   -1.5280 nu        1 3XS     -0.476000
     13 C14        -1.4330   -3.6180   -0.2190 cc        1 3XS      0.445300
     14 S18        -1.1770   -2.2820    0.8460 ss        1 3XS      0.256700
     15 C17        -2.1860   -2.9400    1.9600 cc        1 3XS     -0.349400
     16 C16        -2.6990   -4.1730    1.5300 cd        1 3XS      0.352800
     17 N15        -2.2640   -4.5740    0.2740 nd        1 3XS     -0.683000
     18 C19        -3.6140   -4.9910    2.3190 ca        1 3XS     -0.048500
     19 C24        -4.5080   -5.8710    1.7010 ca        1 3XS     -0.133000
     20 C23        -5.3860   -6.6310    2.4940 ca        1 3XS      0.107100
     21 O25        -6.2300   -7.4680    1.7780 os        1 3XS     -0.330900
     22 C26        -7.1250   -8.2550    2.5490 c3        1 3XS      0.118700
     23 C22        -5.3820   -6.5250    3.8880 ca        1 3XS     -0.220000
     24 C21        -4.4810   -5.6460    4.4900 ca        1 3XS     -0.108000
     25 C20        -3.6050   -4.8880    3.7230 ca        1 3XS     -0.158000
     26 H2          2.9830    1.8200   -0.3590 ha        1 3XS      0.148000
     27 H3          4.4980    1.4890   -2.3320 ha        1 3XS      0.111000
     28 H4          4.0340   -0.3430   -3.9610 ha        1 3XS      0.111000
     29 H5          2.0740   -1.8450   -3.6210 ha        1 3XS      0.130000
     30 H6         -0.5610   -1.1350   -1.0680 h4        1 3XS      0.022800
     31 H7         -0.6640   -4.6730   -1.7760 hn        1 3XS      0.412800
     32 H8         -2.4340   -2.4810    2.9150 h4        1 3XS      0.168000
     33 H9         -4.5340   -5.9800    0.6070 ha        1 3XS      0.166000
     34 H10        -7.6910   -8.8400    1.7810 h1        1 3XS      0.035367
     35 H11        -6.5650   -8.9400    3.2310 h1        1 3XS      0.035367
     36 H12        -7.8190   -7.6060    3.1380 h1        1 3XS      0.035367
     37 H13        -6.0670   -7.1160    4.5080 ha        1 3XS      0.123000
     38 H14        -4.4660   -5.5570    5.5860 ha        1 3XS      0.120000
     39 H15        -2.8940   -4.2060    4.2120 ha        1 3XS      0.138000
@<TRIPOS>BOND
     1    1    2 1   
     2    2    3 1   
     3    2    4 1   
     4    4    5 ar  
     5    4    9 ar  
     6    5    6 ar  
     7    5   26 1   
     8    6    7 ar  
     9    6   27 1   
    10    7    8 ar  
    11    7   28 1   
    12    8    9 ar  
    13    8   29 1   
    14    9   10 1   
    15   10   11 2   
    16   10   30 1   
    17   11   12 1   
    18   12   13 1   
    19   12   31 1   
    20   13   14 1   
    21   13   17 2   
    22   14   15 1   
    23   15   16 2   
    24   15   32 1   
    25   16   17 1   
    26   16   18 1   
    27   18   19 ar  
    28   18   25 ar  
    29   19   20 ar  
    30   19   33 1   
    31   20   21 1   
    32   20   23 ar  
    33   21   22 1   
    34   22   34 1   
    35   22   35 1   
    36   22   36 1   
    37   23   24 ar  
    38   23   37 1   
    39   24   25 ar  
    40   24   38 1   
    41   25   39 1   
@<TRIPOS>SUBSTRUCTURE
     1 3XS         1 TEMP              0 ****  ****    0 ROOT
