@<TRIPOS>MOLECULE
3XS
   39    41     1     0     0
SMALL
bcc


@<TRIPOS>ATOM
      1 O9          0.3690   -0.5980    0.9930 o         1 3XS     -0.818800
      2 C7          0.8250    0.4100    0.3560 c         1 3XS      0.912200
      3 O8          0.6100    1.5950    0.7200 o         1 3XS     -0.818800
      4 C3          1.6910    0.1780   -0.8690 ca        1 3XS     -0.095600
      5 C4          2.7910    1.0170   -1.0780 ca        1 3XS     -0.113000
      6 C5          3.6240    0.8400   -2.1800 ca        1 3XS     -0.142000
      7 C6          3.3640   -0.1820   -3.0950 ca        1 3XS     -0.161000
      8 C1          2.2700   -1.0230   -2.9060 ca        1 3XS     -0.113000
      9 C2          1.4320   -0.8450   -1.7990 ca        1 3XS     -0.122900
     10 C11         0.2610   -1.6930   -1.5620 ce        1 3XS      0.441800
     11 N12         0.2270   -2.9700   -1.8340 n2        1 3XS     -0.495400
     12 N13        -0.8670   -3.7050   -1.5300 nh        1 3XS     -0.476000
     13 C14        -1.4350   -3.6150   -0.2200 cc        1 3XS      0.445300
     14 S18        -1.1790   -2.2810    0.8480 ss        1 3XS      0.256700
     15 C17        -2.1850   -2.9430    1.9610 cc        1 3XS     -0.349400
     16 C16        -2.6970   -4.1770    1.5300 cd        1 3XS      0.352800
     17 N15        -2.2630   -4.5740    0.2730 nd        1 3XS     -0.683000
     18 C19        -3.6090   -4.9970    2.3190 ca        1 3XS     -0.048500
     19 C24        -4.5020   -5.8780    1.7010 ca        1 3XS     -0.133000
     20 C23        -5.3770   -6.6420    2.4930 ca        1 3XS      0.107100
     21 O25        -6.2210   -7.4780    1.7770 os        1 3XS     -0.330900
     22 C26        -7.1120   -8.2700    2.5490 c3        1 3XS      0.118700
     23 C22        -5.3710   -6.5380    3.8870 ca        1 3XS     -0.220000
     24 C21        -4.4710   -5.6580    4.4900 ca        1 3XS     -0.108000
     25 C20        -3.5980   -4.8970    3.7230 ca        1 3XS     -0.158000
     26 H2          2.9730    1.8290   -0.3560 ha        1 3XS      0.148000
     27 H3          4.4850    1.5050   -2.3320 ha        1 3XS      0.111000
     28 H4          4.0210   -0.3240   -3.9640 ha        1 3XS      0.111000
     29 H5          2.0640   -1.8290   -3.6240 ha        1 3XS      0.130000
     30 H6         -0.5680   -1.1290   -1.0650 h4        1 3XS      0.022800
     31 H7         -0.6670   -4.6650   -1.7810 hn        1 3XS      0.412800
     32 H8         -2.4320   -2.4870    2.9180 h4        1 3XS      0.168000
     33 H9         -4.5300   -5.9850    0.6060 ha        1 3XS      0.166000
     34 H10        -6.5480   -8.9550    3.2280 h1        1 3XS      0.035367
     35 H11        -7.6780   -8.8550    1.7810 h1        1 3XS      0.035367
     36 H12        -7.8060   -7.6240    3.1400 h1        1 3XS      0.035367
     37 H13        -6.0540   -7.1320    4.5080 ha        1 3XS      0.123000
     38 H14        -4.4540   -5.5710    5.5860 ha        1 3XS      0.120000
     39 H15        -2.8870   -4.2150    4.2120 ha        1 3XS      0.138000
@<TRIPOS>BOND
     1    1    2 1   
     2    2    3 1   
     3    2    4 1   
     4    4    5 ar  
     5    4    9 ar  
     6    5    6 ar  
     7    5   26 1   
     8    6    7 ar  
     9    6   27 1   
    10    7    8 ar  
    11    7   28 1   
    12    8    9 ar  
    13    8   29 1   
    14    9   10 1   
    15   10   11 2   
    16   10   30 1   
    17   11   12 1   
    18   12   13 1   
    19   12   31 1   
    20   13   14 1   
    21   13   17 2   
    22   14   15 1   
    23   15   16 2   
    24   15   32 1   
    25   16   17 1   
    26   16   18 1   
    27   18   19 ar  
    28   18   25 ar  
    29   19   20 ar  
    30   19   33 1   
    31   20   21 1   
    32   20   23 ar  
    33   21   22 1   
    34   22   34 1   
    35   22   35 1   
    36   22   36 1   
    37   23   24 ar  
    38   23   37 1   
    39   24   25 ar  
    40   24   38 1   
    41   25   39 1   
@<TRIPOS>SUBSTRUCTURE
     1 3XS         1 TEMP              0 ****  ****    0 ROOT
