@<TRIPOS>MOLECULE
3XS
   40    43     1     0     0
SMALL
bcc


@<TRIPOS>ATOM
      1 O9          0.4640   -1.8130    0.7740 os        1 3XS     -0.511900
      2 C7          1.5500   -1.0710    0.6730 c         1 3XS      0.761200
      3 O8          2.3420   -0.9890    1.6240 o         1 3XS     -0.670500
      4 C3          1.7340   -0.3680   -0.6330 ca        1 3XS     -0.101600
      5 C4          2.5580    0.7540   -0.7230 ca        1 3XS     -0.082000
      6 C5          2.7200    1.4070   -1.9470 ca        1 3XS     -0.122000
      7 C6          2.0670    0.9390   -3.0860 ca        1 3XS     -0.118000
      8 C1          1.2440   -0.1880   -3.0140 ca        1 3XS     -0.113000
      9 C2          1.0750   -0.8310   -1.7900 ca        1 3XS     -0.142900
     10 C11         0.1890   -1.9960   -1.6090 ce        1 3XS      0.586800
     11 N12         0.6440   -3.2040   -1.7860 n2        1 3XS     -0.570400
     12 N13        -0.0870   -4.3220   -1.3500 n4        1 3XS     -0.320100
     13 C14        -0.6080   -4.2680    0.0090 c2        1 3XS      0.130500
     14 S18         0.1330   -3.5300    1.3310 s4        1 3XS      0.263500
     15 C17        -1.1060   -3.8280    2.2770 c2        1 3XS     -0.313300
     16 C16        -2.1660   -4.5010    1.5650 ce        1 3XS      0.136400
     17 N15        -1.8950   -4.7460    0.2680 ne        1 3XS     -0.547300
     18 C19        -3.4290   -4.8710    2.2020 ca        1 3XS      0.018200
     19 C24        -4.1070   -6.0290    1.8140 ca        1 3XS     -0.132000
     20 C23        -5.3130   -6.3660    2.4550 ca        1 3XS      0.115100
     21 O25        -5.9010   -7.5320    1.9960 os        1 3XS     -0.329900
     22 C26        -7.1160   -7.9110    2.6290 c3        1 3XS      0.114700
     23 C22        -5.8420   -5.5610    3.4690 ca        1 3XS     -0.203000
     24 C21        -5.1520   -4.4050    3.8400 ca        1 3XS     -0.102000
     25 C20        -3.9590   -4.0570    3.2170 ca        1 3XS     -0.149000
     26 H2          3.0790    1.1070    0.1820 ha        1 3XS      0.166000
     27 H3          3.3700    2.2920   -2.0110 ha        1 3XS      0.141000
     28 H4          2.2000    1.4540   -4.0490 ha        1 3XS      0.139000
     29 H5          0.7370   -0.5610   -3.9150 ha        1 3XS      0.138000
     30 H6         -0.8200   -1.7400   -1.2000 h4        1 3XS      0.052800
     31 H7          0.5980   -5.0950   -1.3910 hn        1 3XS      0.445800
     32 H8         -1.2240   -3.5480    3.3230 h4        1 3XS      0.185000
     33 H9         -3.7180   -6.6800    1.0190 ha        1 3XS      0.158000
     34 H10        -7.9020   -7.1330    2.4730 h1        1 3XS      0.042367
     35 H11        -7.3950   -8.8630    2.1100 h1        1 3XS      0.042367
     36 H12        -6.9550   -8.0900    3.7200 h1        1 3XS      0.042367
     37 H13        -6.7820   -5.8220    3.9720 ha        1 3XS      0.134000
     38 H14        -5.5620   -3.7640    4.6340 ha        1 3XS      0.130000
     39 H15        -3.4280   -3.1400    3.5140 ha        1 3XS      0.139000
     40 H132       -0.8580   -4.5400   -2.0050 hn        1 3XS      0.445800
@<TRIPOS>BOND
     1    1    2 1   
     2    1   14 1   
     3    2    3 2   
     4    2    4 1   
     5    4    5 ar  
     6    4    9 ar  
     7    5    6 ar  
     8    5   26 1   
     9    6    7 ar  
    10    6   27 1   
    11    7    8 ar  
    12    7   28 1   
    13    8    9 ar  
    14    8   29 1   
    15    9   10 1   
    16   10   11 2   
    17   10   30 1   
    18   11   12 1   
    19   12   13 1   
    20   12   31 1   
    21   12   40 1   
    22   13   14 1   
    23   13   17 2   
    24   14   15 1   
    25   15   16 2   
    26   15   32 1   
    27   16   17 1   
    28   16   18 1   
    29   18   19 ar  
    30   18   25 ar  
    31   19   20 ar  
    32   19   33 1   
    33   20   21 1   
    34   20   23 ar  
    35   21   22 1   
    36   22   34 1   
    37   22   35 1   
    38   22   36 1   
    39   23   24 ar  
    40   23   37 1   
    41   24   25 ar  
    42   24   38 1   
    43   25   39 1   
@<TRIPOS>SUBSTRUCTURE
     1 3XS         1 TEMP              0 ****  ****    0 ROOT
