@<TRIPOS>MOLECULE
3XT
   46    47     1     0     0
SMALL
bcc


@<TRIPOS>ATOM
      1 C11        -0.3950    0.8990   -0.8230 c3        1 3XT     -0.107400
      2 C10         1.0030    0.5030   -1.2620 c3        1 3XT     -0.094900
      3 C9          1.6660   -0.4160   -0.2590 c3        1 3XT     -0.102400
      4 C8          1.6520    0.1570    1.1410 c3        1 3XT     -0.094900
      5 C1         -5.4860    1.3420    0.0890 c2        1 3XT      0.374200
      6 C2         -4.3100    1.6050    1.0160 c3        1 3XT     -0.005500
      7 N1         -6.4970    0.6080    0.2940 n2        1 3XT     -0.636100
      8 C7          0.2590    0.5550    1.5780 c3        1 3XT     -0.107400
      9 C4         -1.8210    1.8140    1.1300 c         1 3XT      0.525100
     10 C6         -0.4020    1.5400    0.5760 c3        1 3XT      0.097200
     11 C15         0.4630    5.1440   -0.4840 ca        1 3XT     -0.296600
     12 C16         1.7920    5.3410   -0.0330 ca        1 3XT     -0.068000
     13 C17         2.4760    6.5020   -0.3310 ca        1 3XT      0.049900
     14 C18         1.8560    7.5650   -1.1180 ca        1 3XT      0.292600
     15 C19         0.5110    7.3340   -1.5570 ca        1 3XT     -0.232000
     16 C20        -0.1530    6.1760   -1.2500 ca        1 3XT      0.043000
     17 O14        -1.4940    3.7360   -0.5240 o         1 3XT     -0.592100
     18 N3         -3.0060    1.4720    0.2880 n4        1 3XT     -0.646800
     19 N12         0.3460    2.8570    0.5780 n4        1 3XT     -0.684800
     20 N21         2.5170    8.6950   -1.4100 nh        1 3XT     -0.767200
     21 F22         3.7460    6.6710    0.1100 f         1 3XT     -0.105900
     22 H1         -0.8480    1.5950   -1.5790 hc        1 3XT      0.087950
     23 H2         -1.0100   -0.0420   -0.7790 hc        1 3XT      0.087950
     24 H3          0.9220   -0.0300   -2.2510 hc        1 3XT      0.077450
     25 H4          1.6380    1.4080   -1.4460 hc        1 3XT      0.077450
     26 H5          2.7290   -0.6030   -0.5730 hc        1 3XT      0.088700
     27 H6          1.1460   -1.4120   -0.2610 hc        1 3XT      0.088700
     28 H7          2.0370   -0.6190    1.8610 hc        1 3XT      0.077450
     29 H8          2.3550    1.0290    1.2140 hc        1 3XT      0.077450
     30 H9         -5.4680    1.9300   -0.8560 h4        1 3XT      0.045800
     31 H10        -4.3870    2.6610    1.4150 hx        1 3XT      0.127700
     32 H11        -4.2880    0.8980    1.8950 hx        1 3XT      0.127700
     33 H12        -6.5790    0.0840    1.1410 hn        1 3XT      0.428400
     34 H13        -0.3910   -0.3600    1.6220 hc        1 3XT      0.087950
     35 H14         0.2800    1.0050    2.6070 hc        1 3XT      0.087950
     36 H15         2.3230    4.5900    0.5750 ha        1 3XT      0.139000
     37 H16         0.0010    8.1120   -2.1540 ha        1 3XT      0.184000
     38 H17        -1.1920    6.0290   -1.6010 ha        1 3XT      0.173000
     39 H18        -3.0060    2.1180   -0.5230 hn        1 3XT      0.481300
     40 H19         0.4600    3.1690    1.5510 hn        1 3XT      0.475800
     41 H20         3.4530    8.8350   -1.0910 hn        1 3XT      0.478800
     42 H21         2.0850    9.4170   -1.9460 hn        1 3XT      0.478800
     43 O5         -2.0130    2.3000    2.2360 o         1 3XT     -0.386100
     44 C13        -0.3200    3.9880   -0.2190 c         1 3XT      0.608700
     45 H32        -2.9140    0.5120   -0.0670 hn        1 3XT      0.481300
     46 H122        1.2800    2.6750    0.1810 hn        1 3XT      0.475800
@<TRIPOS>BOND
     1    1    2 1   
     2    1   10 1   
     3    1   22 1   
     4    1   23 1   
     5    2    3 1   
     6    2   24 1   
     7    2   25 1   
     8    3    4 1   
     9    3   26 1   
    10    3   27 1   
    11    4    8 1   
    12    4   28 1   
    13    4   29 1   
    14    5    6 1   
    15    5    7 2   
    16    5   30 1   
    17    6   18 1   
    18    6   31 1   
    19    6   32 1   
    20    7   33 1   
    21    8   10 1   
    22    8   34 1   
    23    8   35 1   
    24    9   10 1   
    25    9   18 1   
    26    9   43 2   
    27   10   19 1   
    28   11   12 ar  
    29   11   16 ar  
    30   11   44 1   
    31   12   13 ar  
    32   12   36 1   
    33   13   14 ar  
    34   13   21 1   
    35   14   15 ar  
    36   14   20 1   
    37   15   16 ar  
    38   15   37 1   
    39   16   38 1   
    40   17   44 2   
    41   18   39 1   
    42   18   45 1   
    43   19   40 1   
    44   19   44 1   
    45   19   46 1   
    46   20   41 1   
    47   20   42 1   
@<TRIPOS>SUBSTRUCTURE
     1 3XT         1 TEMP              0 ****  ****    0 ROOT
