@<TRIPOS>MOLECULE
3XV
   54    57     1     0     0
SMALL
bcc


@<TRIPOS>ATOM
      1 C2         -0.2850   -0.4980    0.2970 ca        1 3XV      0.711900
      2 C4          1.7590   -0.0200    1.2230 ca        1 3XV      0.377800
      3 C5          1.2210   -0.0600    2.5100 ca        1 3XV     -0.345600
      4 C6         -0.1930   -0.3610    2.6210 ca        1 3XV      0.719200
      5 CAT         9.2050   -0.2820   -3.0500 c3        1 3XV      0.176800
      6 CAU         9.7070   -0.5650   -4.4650 c3        1 3XV     -0.035100
      7 CAV         9.5990    0.6210   -5.3520 ca        1 3XV     -0.069300
      8 CBB        10.3480    0.6820   -6.5340 ca        1 3XV     -0.121000
      9 CBA        10.2320    1.7790   -7.3830 ca        1 3XV     -0.115000
     10 CAZ         9.3680    2.8270   -7.0580 ca        1 3XV     -0.121000
     11 CAY         8.6210    2.7740   -5.8840 ca        1 3XV     -0.124000
     12 CAW         8.7340    1.6730   -5.0270 ca        1 3XV     -0.093300
     13 CAX         7.9290    1.6710   -3.7630 c3        1 3XV      0.222100
     14 NAS         7.9190    0.4040   -3.0430 n3        1 3XV     -0.755600
     15 CAR         7.3290    0.5120   -1.7240 c3        1 3XV      0.149800
     16 CAB         5.7920    0.3630   -1.7890 c3        1 3XV      0.126100
     17 OAA         5.3840   -0.9290   -2.2040 oh        1 3XV     -0.640800
     18 CAC         5.2330    0.5500   -0.3640 c3        1 3XV      0.098800
     19 NAD         3.7800    0.2230   -0.2950 n4        1 3XV     -0.652800
     20 CAE         3.2120    0.2850    1.0990 c         1 3XV      0.460600
     21 OAF         3.9760    0.5730    2.0080 o         1 3XV     -0.415100
     22 N3          1.0300   -0.2370    0.0910 nb        1 3XV     -0.775000
     23 N1         -0.9400   -0.5720    1.4760 nb        1 3XV     -0.724000
     24 NAJ        -0.8180   -0.4600    3.8360 nh        1 3XV     -0.827900
     25 CAK        -0.1620   -0.2470    5.0860 cy        1 3XV      0.141500
     26 CAL        -0.9530   -0.6890    6.3660 cy        1 3XV      0.104900
     27 OAM        -0.9180    0.6670    6.8840 os        1 3XV     -0.395600
     28 CAN        -0.2190    1.1870    5.7230 cy        1 3XV      0.104900
     29 H1         -0.9030   -0.6730   -0.6140 h5        1 3XV      0.084100
     30 H2          1.8430    0.1380    3.3940 ha        1 3XV      0.182000
     31 H5          9.1170   -1.4090   -4.9150 hc        1 3XV      0.065700
     32 H6         10.7760   -0.9020   -4.3920 hc        1 3XV      0.065700
     33 H7         11.0290   -0.1440   -6.7890 ha        1 3XV      0.140000
     34 H8         10.8240    1.8220   -8.3100 ha        1 3XV      0.143000
     35 H9          9.2770    3.6940   -7.7290 ha        1 3XV      0.142000
     36 H10         7.9410    3.6000   -5.6280 ha        1 3XV      0.130000
     37 H11         6.8550    1.9110   -4.0160 h1        1 3XV      0.039200
     38 H12         8.3190    2.5120   -3.1100 h1        1 3XV      0.039200
     39 H14         7.7250   -0.3110   -1.0630 h1        1 3XV      0.055700
     40 H15         7.5550    1.4990   -1.2240 h1        1 3XV      0.055700
     41 H16         5.3460    1.1290   -2.4850 h1        1 3XV      0.064700
     42 H17         5.9220   -1.1850   -2.9680 ho        1 3XV      0.469000
     43 H18         5.7740   -0.1340    0.3510 hx        1 3XV      0.114200
     44 H19         5.3810    1.6150   -0.0330 hx        1 3XV      0.114200
     45 H20         3.6410   -0.7310   -0.6720 hn        1 3XV      0.483300
     46 H21        -1.8090   -0.5960    3.8570 hn        1 3XV      0.473800
     47 H22         0.8750   -0.6700    5.0620 h1        1 3XV      0.081700
     48 H23        -2.0050   -1.0160    6.2180 h1        1 3XV      0.076450
     49 H24        -0.3920   -1.3760    7.0350 h1        1 3XV      0.076450
     50 H25         0.7690    1.5990    6.0210 h1        1 3XV      0.076450
     51 H26        -0.8500    1.9380    5.2030 h1        1 3XV      0.076450
     52 H3          9.9880    0.3150   -2.4980 h1        1 3XV      0.040700
     53 HAD2        3.2500    0.8650   -0.8990 hn        1 3XV      0.483300
     54 H4          9.0800   -1.2660   -2.5140 h1        1 3XV      0.040700
@<TRIPOS>BOND
     1    1   22 ar  
     2    1   23 ar  
     3    1   29 1   
     4    2    3 ar  
     5    2   20 1   
     6    2   22 ar  
     7    3    4 ar  
     8    3   30 1   
     9    4   23 ar  
    10    4   24 1   
    11    5    6 1   
    12    5   14 1   
    13    5   52 1   
    14    5   54 1   
    15    6    7 1   
    16    6   31 1   
    17    6   32 1   
    18    7    8 ar  
    19    7   12 ar  
    20    8    9 ar  
    21    8   33 1   
    22    9   10 ar  
    23    9   34 1   
    24   10   11 ar  
    25   10   35 1   
    26   11   12 ar  
    27   11   36 1   
    28   12   13 1   
    29   13   14 1   
    30   13   37 1   
    31   13   38 1   
    32   14   15 1   
    33   15   16 1   
    34   15   39 1   
    35   15   40 1   
    36   16   17 1   
    37   16   18 1   
    38   16   41 1   
    39   17   42 1   
    40   18   19 1   
    41   18   43 1   
    42   18   44 1   
    43   19   20 1   
    44   19   45 1   
    45   19   53 1   
    46   20   21 2   
    47   24   25 1   
    48   24   46 1   
    49   25   26 1   
    50   25   28 1   
    51   25   47 1   
    52   26   27 1   
    53   26   48 1   
    54   26   49 1   
    55   27   28 1   
    56   28   50 1   
    57   28   51 1   
@<TRIPOS>SUBSTRUCTURE
     1 3XV         1 TEMP              0 ****  ****    0 ROOT
