@<TRIPOS>MOLECULE
3XV
   54    57     1     0     0
SMALL
bcc


@<TRIPOS>ATOM
      1 C2         -0.2840   -0.5000    0.2920 ca        1 3XV      0.711900
      2 C4          1.7590   -0.0200    1.2200 ca        1 3XV      0.377800
      3 C5          1.2180   -0.0570    2.5060 ca        1 3XV     -0.345600
      4 C6         -0.1960   -0.3590    2.6150 ca        1 3XV      0.719200
      5 CAT         9.2110   -0.2810   -3.0420 c3        1 3XV      0.176800
      6 CAU         9.7170   -0.5640   -4.4560 c3        1 3XV     -0.035100
      7 CAV         9.6090    0.6220   -5.3430 ca        1 3XV     -0.069300
      8 CBB        10.3600    0.6840   -6.5240 ca        1 3XV     -0.121000
      9 CBA        10.2450    1.7810   -7.3730 ca        1 3XV     -0.115000
     10 CAZ         9.3790    2.8270   -7.0510 ca        1 3XV     -0.121000
     11 CAY         8.6290    2.7740   -5.8780 ca        1 3XV     -0.124000
     12 CAW         8.7420    1.6730   -5.0210 ca        1 3XV     -0.093300
     13 CAX         7.9350    1.6710   -3.7580 c3        1 3XV      0.222100
     14 NAS         7.9250    0.4040   -3.0380 n3        1 3XV     -0.755600
     15 CAR         7.3330    0.5120   -1.7190 c3        1 3XV      0.149800
     16 CAB         5.7960    0.3620   -1.7870 c3        1 3XV      0.126100
     17 OAA         5.3890   -0.9310   -2.2010 oh        1 3XV     -0.640800
     18 CAC         5.2350    0.5500   -0.3630 c3        1 3XV      0.098800
     19 NAD         3.7820    0.2220   -0.2950 ny        1 3XV     -0.652800
     20 CAE         3.2120    0.2860    1.0970 c         1 3XV      0.460600
     21 OAF         3.9740    0.5760    2.0080 o         1 3XV     -0.415100
     22 N3          1.0320   -0.2390    0.0880 nb        1 3XV     -0.775000
     23 N1         -0.9400   -0.5720    1.4700 nb        1 3XV     -0.724000
     24 NAJ        -0.8220   -0.4550    3.8290 nu        1 3XV     -0.827900
     25 CAK        -0.1690   -0.2390    5.0800 cy        1 3XV      0.141500
     26 CAL        -0.9630   -0.6790    6.3600 cy        1 3XV      0.104900
     27 OAM        -0.9300    0.6790    6.8750 os        1 3XV     -0.395600
     28 CAN        -0.2290    1.1960    5.7140 cy        1 3XV      0.104900
     29 H1         -0.9000   -0.6780   -0.6200 h5        1 3XV      0.084100
     30 H2          1.8390    0.1430    3.3900 ha        1 3XV      0.183000
     31 H5          9.1280   -1.4080   -4.9070 hc        1 3XV      0.065700
     32 H6         10.7860   -0.9000   -4.3810 hc        1 3XV      0.065700
     33 H7         11.0430   -0.1410   -6.7770 ha        1 3XV      0.140000
     34 H8         10.8380    1.8240   -8.2990 ha        1 3XV      0.143000
     35 H9          9.2880    3.6940   -7.7220 ha        1 3XV      0.142000
     36 H10         7.9480    3.5990   -5.6230 ha        1 3XV      0.130000
     37 H11         6.8610    1.9090   -4.0140 h1        1 3XV      0.039200
     38 H12         8.3210    2.5120   -3.1050 h1        1 3XV      0.039200
     39 H14         7.5580    1.4990   -1.2200 h1        1 3XV      0.055700
     40 H15         7.7280   -0.3100   -1.0570 h1        1 3XV      0.055700
     41 H16         5.3510    1.1270   -2.4840 h1        1 3XV      0.064700
     42 H17         5.9290   -1.1870   -2.9640 ho        1 3XV      0.469000
     43 H18         5.3820    1.6160   -0.0320 hx        1 3XV      0.114200
     44 H19         5.7750   -0.1330    0.3540 hx        1 3XV      0.114200
     45 H20         3.6440   -0.7330   -0.6710 hn        1 3XV      0.483800
     46 H21        -1.8140   -0.5910    3.8490 hn        1 3XV      0.473800
     47 H22         0.8690   -0.6610    5.0590 h1        1 3XV      0.081700
     48 H23        -0.4020   -1.3640    7.0310 h1        1 3XV      0.076450
     49 H24        -2.0140   -1.0060    6.2100 h1        1 3XV      0.076450
     50 H25        -0.8590    1.9460    5.1910 h1        1 3XV      0.076450
     51 H26         0.7580    1.6110    6.0120 h1        1 3XV      0.076450
     52 H3          9.0870   -1.2640   -2.5060 h1        1 3XV      0.040700
     53 HAD2        3.2530    0.8630   -0.9010 hn        1 3XV      0.483800
     54 H4          9.9930    0.3170   -2.4880 h1        1 3XV      0.040700
@<TRIPOS>BOND
     1    1   22 ar  
     2    1   23 ar  
     3    1   29 1   
     4    2    3 ar  
     5    2   20 1   
     6    2   22 ar  
     7    3    4 ar  
     8    3   30 1   
     9    4   23 ar  
    10    4   24 1   
    11    5    6 1   
    12    5   14 1   
    13    5   52 1   
    14    5   54 1   
    15    6    7 1   
    16    6   31 1   
    17    6   32 1   
    18    7    8 ar  
    19    7   12 ar  
    20    8    9 ar  
    21    8   33 1   
    22    9   10 ar  
    23    9   34 1   
    24   10   11 ar  
    25   10   35 1   
    26   11   12 ar  
    27   11   36 1   
    28   12   13 1   
    29   13   14 1   
    30   13   37 1   
    31   13   38 1   
    32   14   15 1   
    33   15   16 1   
    34   15   39 1   
    35   15   40 1   
    36   16   17 1   
    37   16   18 1   
    38   16   41 1   
    39   17   42 1   
    40   18   19 1   
    41   18   43 1   
    42   18   44 1   
    43   19   20 1   
    44   19   45 1   
    45   19   53 1   
    46   20   21 2   
    47   24   25 1   
    48   24   46 1   
    49   25   26 1   
    50   25   28 1   
    51   25   47 1   
    52   26   27 1   
    53   26   48 1   
    54   26   49 1   
    55   27   28 1   
    56   28   50 1   
    57   28   51 1   
@<TRIPOS>SUBSTRUCTURE
     1 3XV         1 TEMP              0 ****  ****    0 ROOT
