@<TRIPOS>MOLECULE
3XW
   67    72     1     0     0
SMALL
bcc


@<TRIPOS>ATOM
      1 C4          1.4410    1.2450    2.5220 c2        1 3XW     -0.240000
      2 C5          2.3030    0.4110    1.7280 c2        1 3XW     -0.173000
      3 C6          2.7420   -0.8120    2.3200 c2        1 3XW     -0.038000
      4 N1          2.3440   -1.1610    3.5580 n2        1 3XW     -0.174000
      5 N3          1.0520    0.9040    3.7800 n2        1 3XW     -0.133000
      6 FAC         0.1030    2.0540   -2.1180 f         1 3XW     -0.165000
      7 CBN         1.4230    2.4180   -2.1710 c3        1 3XW      0.416000
      8 FAD         2.0870    1.2850   -2.5670 f         1 3XW     -0.165000
      9 FAE         1.5040    3.2580   -3.2550 f         1 3XW     -0.165000
     10 CBD         1.9040    2.1970    0.3020 c2        1 3XW     -0.378000
     11 SAZ         1.0110    2.6350    1.6700 ss        1 3XW      0.615000
     12 CAM         2.5530    0.9930    0.4480 c2        1 3XW     -0.099000
     13 C2          1.5260   -0.2760    4.2200 c2        1 3XW     -0.009000
     14 NAX         3.7560   -1.6770    1.5810 ny        1 3XW      0.186000
     15 CBK         5.1200   -1.4650    1.8430 c2        1 3XW     -0.559000
     16 CAO         5.7180   -2.0570    3.0640 c3        1 3XW     -0.076000
     17 CAQ         7.1600   -1.5690    3.2210 c3        1 3XW     -0.065500
     18 CAN         5.8480   -0.3380    1.2150 c3        1 3XW     -0.076000
     19 CAP         6.5410    0.5660    2.2390 c3        1 3XW     -0.065500
     20 NBL         7.3460   -0.1250    3.2390 n3        1 3XW     -0.248000
     21 CAR         7.2060    0.4340    4.5810 c3        1 3XW     -0.028000
     22 CBE         7.4390    1.9160    4.6640 ca        1 3XW     -0.110000
     23 CBB         8.7280    2.4480    4.5960 ca        1 3XW      0.019000
     24 CAA         9.9150    1.5860    4.3960 c3        1 3XW     -0.183000
     25 CAH         6.3190    2.7540    4.8560 ca        1 3XW     -0.089000
     26 CAI         6.4330    4.1260    4.9870 ca        1 3XW     -0.161000
     27 CBJ         7.7220    4.6820    4.9200 ca        1 3XW      0.033000
     28 CBG         8.8780    3.8380    4.7270 ca        1 3XW     -0.106000
     29 CAL        10.0260    4.7130    4.7070 c2        1 3XW     -0.114000
     30 CBC         9.5550    6.0150    4.8830 c2        1 3XW      0.006000
     31 CAF        10.3320    7.1940    4.9350 c1        1 3XW     -0.069000
     32 NAB        10.9940    8.1500    4.9790 n1        1 3XW     -0.046000
     33 NBM         8.1400    6.0180    4.9640 na        1 3XW     -0.148000
     34 CAS         7.3370    7.1390    5.3770 c3        1 3XW      0.062000
     35 CBA         7.2100    7.3450    6.8330 c2        1 3XW     -0.234000
     36 CAJ         7.9370    8.2280    7.6510 c2        1 3XW     -0.090000
     37 NAU         7.4220    8.0770    8.9370 na        1 3XW     -0.162000
     38 NAY         6.4420    7.1710    8.9930 n2        1 3XW     -0.081000
     39 CAK         6.2770    6.6960    7.7320 c2        1 3XW     -0.148000
     40 H1          3.0440    3.3570   -1.0820 hc        1 3XW      0.135500
     41 H2          1.3880    4.0180   -0.7100 hc        1 3XW      0.135500
     42 H4          3.1780    0.5330   -0.3250 ha        1 3XW      0.168000
     43 H5          1.2210   -0.5870    5.2420 h5        1 3XW      0.201000
     44 H6          3.5330   -2.6480    1.8190 hn        1 3XW      0.229500
     45 H7          3.5740   -1.5030    0.5910 hn        1 3XW      0.229500
     46 H8          5.1280   -1.7890    3.9850 hc        1 3XW      0.065250
     47 H9          5.7290   -3.1780    2.9980 hc        1 3XW      0.065250
     48 H10         7.5920   -2.0140    4.1600 h1        1 3XW      0.079000
     49 H11         7.7640   -1.9500    2.3480 h1        1 3XW      0.079000
     50 H12         6.6240   -0.7720    0.5250 hc        1 3XW      0.065250
     51 H13         5.1790    0.3120    0.5900 hc        1 3XW      0.065250
     52 H14         7.2450    1.2580    1.6930 h1        1 3XW      0.079000
     53 H15         5.7520    1.2100    2.7280 h1        1 3XW      0.079000
     54 H17         6.1890    0.2030    5.0190 h1        1 3XW      0.074500
     55 H18         7.9740   -0.0820    5.2300 h1        1 3XW      0.074500
     56 H19         9.9900    0.8330    5.2200 hc        1 3XW      0.091667
     57 H20        10.8560    2.1890    4.3830 hc        1 3XW      0.091667
     58 H21         9.8330    1.0330    3.4260 hc        1 3XW      0.091667
     59 H22         5.3180    2.2940    4.9070 ha        1 3XW      0.132000
     60 H23         5.5500    4.7600    5.1430 ha        1 3XW      0.133000
     61 H24        11.0630    4.4140    4.5720 ha        1 3XW      0.165000
     62 H25         7.7890    8.0640    4.9100 h1        1 3XW      0.108500
     63 H26         6.3060    6.9840    4.9400 h1        1 3XW      0.108500
     64 H27         8.7440    8.9230    7.4190 h4        1 3XW      0.185000
     65 H28         7.7160    8.5490    9.7600 hn        1 3XW      0.275000
     66 H29         5.5410    5.9310    7.4860 h4        1 3XW      0.183000
     67 CAT         1.9760    3.0750   -0.8720 c3        1 3XW     -0.128000
@<TRIPOS>BOND
     1    1    2 1   
     2    1    5 1   
     3    1   11 1   
     4    2    3 1   
     5    2   12 1   
     6    3    4 1   
     7    3   14 1   
     8    4   13 1   
     9    5   13 1   
    10    6    7 1   
    11    7    8 1   
    12    7    9 1   
    13    7   67 1   
    14   10   11 1   
    15   10   12 1   
    16   10   67 1   
    17   12   42 1   
    18   13   43 1   
    19   14   15 1   
    20   14   44 1   
    21   14   45 1   
    22   15   16 1   
    23   15   18 1   
    24   16   17 1   
    25   16   46 1   
    26   16   47 1   
    27   17   20 1   
    28   17   48 1   
    29   17   49 1   
    30   18   19 1   
    31   18   50 1   
    32   18   51 1   
    33   19   20 1   
    34   19   52 1   
    35   19   53 1   
    36   20   21 1   
    37   21   22 1   
    38   21   54 1   
    39   21   55 1   
    40   22   23 1   
    41   22   25 1   
    42   23   24 1   
    43   23   28 1   
    44   24   56 1   
    45   24   57 1   
    46   24   58 1   
    47   25   26 1   
    48   25   59 1   
    49   26   27 1   
    50   26   60 1   
    51   27   28 1   
    52   27   33 1   
    53   28   29 1   
    54   29   30 1   
    55   29   61 1   
    56   30   31 1   
    57   30   33 1   
    58   31   32 1   
    59   33   34 1   
    60   34   35 1   
    61   34   62 1   
    62   34   63 1   
    63   35   36 1   
    64   35   39 1   
    65   36   37 1   
    66   36   64 1   
    67   37   38 1   
    68   37   65 1   
    69   38   39 1   
    70   39   66 1   
    71   40   67 1   
    72   41   67 1   
@<TRIPOS>SUBSTRUCTURE
     1 3XW         1 TEMP              0 ****  ****    0 ROOT
