@<TRIPOS>MOLECULE
3XW
   67    72     1     0     0
SMALL
bcc


@<TRIPOS>ATOM
      1 C4          1.4080    1.3980    2.4090 c2        1 3XW     -0.240000
      2 C5          2.2610    0.4980    1.6820 c2        1 3XW     -0.173000
      3 C6          2.6260   -0.7170    2.3380 c2        1 3XW     -0.038000
      4 N1          2.1690   -0.9980    3.5730 n2        1 3XW     -0.174000
      5 N3          0.9600    1.1260    3.6650 n2        1 3XW     -0.133000
      6 FAC         0.2750    2.0710   -2.3060 f         1 3XW     -0.165000
      7 CBN         1.6100    2.3770   -2.3240 c3        1 3XW      0.416000
      8 FAD         2.2400    1.2030   -2.6490 f         1 3XW     -0.165000
      9 FAE         1.7660    3.1680   -3.4360 f         1 3XW     -0.165000
     10 CBD         1.9910    2.2390    0.1720 c2        1 3XW     -0.378000
     11 SAZ         1.0700    2.7690    1.4870 ss        1 3XW      0.615000
     12 CAM         2.5820    1.0160    0.3900 c2        1 3XW     -0.099000
     13 C2          1.3670   -0.0540    4.1680 c2        1 3XW     -0.009000
     14 NAX         3.6280   -1.6530    1.6730 n4        1 3XW      0.186000
     15 CBK         4.9900   -1.4870    1.9780 c2        1 3XW     -0.559000
     16 CAO         5.5180   -2.0520    3.2430 c3        1 3XW     -0.076000
     17 CAQ         6.9730   -1.6190    3.4340 c3        1 3XW     -0.065500
     18 CAN         5.7880   -0.4180    1.3340 c3        1 3XW     -0.076000
     19 CAP         6.4820    0.4980    2.3460 c3        1 3XW     -0.065500
     20 NBL         7.2210   -0.1850    3.4020 n3        1 3XW     -0.248000
     21 CAR         7.0580    0.4340    4.7140 c3        1 3XW     -0.028000
     22 CBE         7.3510    1.9070    4.7480 ca        1 3XW     -0.110000
     23 CBB         8.6640    2.3820    4.7050 ca        1 3XW      0.019000
     24 CAA         9.8190    1.4640    4.5820 c3        1 3XW     -0.183000
     25 CAH         6.2620    2.7980    4.8660 ca        1 3XW     -0.089000
     26 CAI         6.4310    4.1690    4.9470 ca        1 3XW     -0.161000
     27 CBJ         7.7450    4.6670    4.9050 ca        1 3XW      0.033000
     28 CBG         8.8700    3.7680    4.7870 ca        1 3XW     -0.106000
     29 CAL        10.0540    4.5930    4.7750 c2        1 3XW     -0.114000
     30 CBC         9.6340    5.9200    4.8820 c2        1 3XW      0.006000
     31 CAF        10.4580    7.0670    4.9150 c1        1 3XW     -0.069000
     32 NAB        11.1600    7.9950    4.9470 n1        1 3XW     -0.046000
     33 NBM         8.2190    5.9860    4.9120 na        1 3XW     -0.148000
     34 CAS         7.4510    7.1540    5.2500 c3        1 3XW      0.062000
     35 CBA         7.2830    7.4250    6.6920 c2        1 3XW     -0.234000
     36 CAJ         8.0180    8.3110    7.5000 c2        1 3XW     -0.090000
     37 NAU         7.4540    8.2340    8.7710 na        1 3XW     -0.162000
     38 NAY         6.4340    7.3720    8.8280 n2        1 3XW     -0.081000
     39 CAK         6.2930    6.8530    7.5820 c2        1 3XW     -0.148000
     40 H1          3.2290    3.2930   -1.2120 hc        1 3XW      0.135500
     41 H2          1.5900    4.0360   -0.9290 hc        1 3XW      0.135500
     42 H4          3.2150    0.4990   -0.3390 ha        1 3XW      0.168000
     43 H5          1.0120   -0.3100    5.1900 h5        1 3XW      0.201000
     44 H6          3.3560   -2.6030    1.9400 hn        1 3XW      0.229500
     45 H7          3.4900   -1.5120    0.6700 hn        1 3XW      0.229500
     46 H8          4.9070   -1.7220    4.1300 hc        1 3XW      0.065250
     47 H9          5.4820   -3.1750    3.2220 hc        1 3XW      0.065250
     48 H10         7.3510   -2.0430    4.4050 h1        1 3XW      0.079000
     49 H11         7.5900   -2.0610    2.6000 h1        1 3XW      0.079000
     50 H12         6.5680   -0.9110    0.6910 hc        1 3XW      0.065250
     51 H13         5.1700    0.2340    0.6590 hc        1 3XW      0.065250
     52 H14         7.2330    1.1370    1.8010 h1        1 3XW      0.079000
     53 H15         5.7040    1.1930    2.7800 h1        1 3XW      0.079000
     54 H17         6.0160    0.2640    5.1240 h1        1 3XW      0.074500
     55 H18         7.7790   -0.0860    5.4110 h1        1 3XW      0.074500
     56 H19         9.7470    0.8760    3.6320 hc        1 3XW      0.091667
     57 H20        10.7850    2.0250    4.5810 hc        1 3XW      0.091667
     58 H21         9.8320    0.7420    5.4380 hc        1 3XW      0.091667
     59 H22         5.2420    2.3840    4.8980 ha        1 3XW      0.132000
     60 H23         5.5720    4.8440    5.0450 ha        1 3XW      0.133000
     61 H24        11.0810    4.2460    4.6890 ha        1 3XW      0.165000
     62 H25         7.9580    8.0400    4.7640 h1        1 3XW      0.108500
     63 H26         6.4290    7.0250    4.7830 h1        1 3XW      0.108500
     64 H27         8.8620    8.9610    7.2690 h4        1 3XW      0.185000
     65 H28         7.7390    8.7270    9.5850 hn        1 3XW      0.275000
     66 H29         5.5330    6.1100    7.3400 h4        1 3XW      0.183000
     67 CAT         2.1430    3.0640   -1.0320 c3        1 3XW     -0.128000
@<TRIPOS>BOND
     1    1    2 1   
     2    1    5 1   
     3    1   11 1   
     4    2    3 1   
     5    2   12 1   
     6    3    4 1   
     7    3   14 1   
     8    4   13 1   
     9    5   13 1   
    10    6    7 1   
    11    7    8 1   
    12    7    9 1   
    13    7   67 1   
    14   10   11 1   
    15   10   12 1   
    16   10   67 1   
    17   12   42 1   
    18   13   43 1   
    19   14   15 1   
    20   14   44 1   
    21   14   45 1   
    22   15   16 1   
    23   15   18 1   
    24   16   17 1   
    25   16   46 1   
    26   16   47 1   
    27   17   20 1   
    28   17   48 1   
    29   17   49 1   
    30   18   19 1   
    31   18   50 1   
    32   18   51 1   
    33   19   20 1   
    34   19   52 1   
    35   19   53 1   
    36   20   21 1   
    37   21   22 1   
    38   21   54 1   
    39   21   55 1   
    40   22   23 1   
    41   22   25 1   
    42   23   24 1   
    43   23   28 1   
    44   24   56 1   
    45   24   57 1   
    46   24   58 1   
    47   25   26 1   
    48   25   59 1   
    49   26   27 1   
    50   26   60 1   
    51   27   28 1   
    52   27   33 1   
    53   28   29 1   
    54   29   30 1   
    55   29   61 1   
    56   30   31 1   
    57   30   33 1   
    58   31   32 1   
    59   33   34 1   
    60   34   35 1   
    61   34   62 1   
    62   34   63 1   
    63   35   36 1   
    64   35   39 1   
    65   36   37 1   
    66   36   64 1   
    67   37   38 1   
    68   37   65 1   
    69   38   39 1   
    70   39   66 1   
    71   40   67 1   
    72   41   67 1   
@<TRIPOS>SUBSTRUCTURE
     1 3XW         1 TEMP              0 ****  ****    0 ROOT
