@<TRIPOS>MOLECULE
3XX
   18    18     1     0     0
SMALL
bcc


@<TRIPOS>ATOM
      1 OAC        -0.0850    0.4590    0.1670 o         1 3XX     -0.521100
      2 CAI         1.1290    0.2630    0.1250 c         1 3XX      0.556500
      3 CAH         2.0870    0.2900    1.2590 cc        1 3XX     -0.115100
      4 OAD         1.7720    0.5440    2.5630 oh        1 3XX     -0.467100
      5 CAG         3.3410    0.0210    0.7890 cd        1 3XX      0.085900
      6 CAB         4.6510   -0.0830    1.4350 c3        1 3XX     -0.041900
      7 OAF         3.3300   -0.1960   -0.6040 os        1 3XX     -0.244200
      8 CAJ         1.9870   -0.0560   -1.0480 cc        1 3XX     -0.066100
      9 CAE         1.7130   -0.2170   -2.3490 c2        1 3XX     -0.075200
     10 CAA         0.3640   -0.0960   -2.9260 c3        1 3XX     -0.083900
     11 H1          0.8120    0.6980    2.5810 ho        1 3XX      0.435000
     12 H2          5.0790   -1.1060    1.2780 hc        1 3XX      0.068033
     13 H3          5.3590    0.6640    0.9960 hc        1 3XX      0.068033
     14 H4          4.5410    0.1090    2.5310 hc        1 3XX      0.068033
     15 H5          2.5310   -0.4550   -3.0520 ha        1 3XX      0.144000
     16 H6          0.0800   -1.0580   -3.4240 hc        1 3XX      0.063367
     17 H7         -0.4070    0.1460   -2.1520 hc        1 3XX      0.063367
     18 H8          0.3570    0.7120   -3.7020 hc        1 3XX      0.063367
@<TRIPOS>BOND
     1    1    2 2   
     2    2    3 1   
     3    2    8 1   
     4    3    4 1   
     5    3    5 2   
     6    4   11 1   
     7    5    6 1   
     8    5    7 1   
     9    6   12 1   
    10    6   13 1   
    11    6   14 1   
    12    7    8 1   
    13    8    9 2   
    14    9   10 1   
    15    9   15 1   
    16   10   16 1   
    17   10   17 1   
    18   10   18 1   
@<TRIPOS>SUBSTRUCTURE
     1 3XX         1 TEMP              0 ****  ****    0 ROOT
