@<TRIPOS>MOLECULE
3XX
   18    14     1     0     0
SMALL
bcc


@<TRIPOS>ATOM
      1 OAC        -2.7290   -0.4160    0.2730 o         1 3XX     -0.278000
      2 CAI        -1.5600   -0.0960    0.3580 c1        1 3XX      0.274000
      3 CAH        -0.7780   -0.1540    1.5070 c1        1 3XX     -0.138000
      4 OAD        -1.3010   -0.7160    2.6860 o         1 3XX     -0.222000
      5 CAG         0.5570   -0.2070    1.2630 c1        1 3XX      0.044000
      6 CAB         1.5350    0.3230    2.2880 c2        1 3XX     -0.181000
      7 OAF         0.8910   -0.1930   -0.0970 os        1 3XX     -0.152000
      8 CAJ        -0.4920   -0.1180   -0.8280 c2        1 3XX     -0.091000
      9 CAE        -0.7000    0.3120   -2.0890 c1        1 3XX     -0.075000
     10 CAA         0.4130    0.2280   -3.1100 c2        1 3XX     -0.181000
     11 H1         -1.4640   -1.5810    2.5550 ho        1 3XX      0.234000
     12 H2          1.6330   -0.3290    3.0130 ha        1 3XX      0.102167
     13 H3          2.4050    0.4720    1.8630 ha        1 3XX      0.102167
     14 H4          1.2000    1.1690    2.6520 ha        1 3XX      0.102167
     15 H5         -1.5690    0.6760   -2.3430 ha        1 3XX      0.152000
     16 H6          0.8260   -0.6600   -3.0700 ha        1 3XX      0.102167
     17 H7          0.0460    0.3770   -4.0060 ha        1 3XX      0.102167
     18 H8          1.0880    0.9110   -2.9150 ha        1 3XX      0.102167
@<TRIPOS>BOND
     1    1    2 1   
     2    2    8 1   
     3    3    5 1   
     4    4   11 1   
     5    5    7 1   
     6    6   12 1   
     7    6   13 1   
     8    6   14 1   
     9    7    8 1   
    10    8    9 1   
    11    9   15 1   
    12   10   16 1   
    13   10   17 1   
    14   10   18 1   
@<TRIPOS>SUBSTRUCTURE
     1 3XX         1 TEMP              0 ****  ****    0 ROOT
