@<TRIPOS>MOLECULE
3XX
   18    18     1     0     0
SMALL
bcc


@<TRIPOS>ATOM
      1 OAC         0.9500   -1.9700   -0.1400 o         1 3XX     -0.521100
      2 CAI         0.3210   -0.9160   -0.0640 c         1 3XX      0.556500
      3 CAH        -1.1530   -0.7470   -0.0090 cc        1 3XX     -0.115100
      4 OAD        -2.0720   -1.7570   -0.0350 oh        1 3XX     -0.467100
      5 CAG        -1.4460    0.5850    0.0710 cd        1 3XX      0.085900
      6 CAB        -2.7040    1.3300    0.1500 c3        1 3XX     -0.041900
      7 OAF        -0.2730    1.3680    0.0770 os        1 3XX     -0.244200
      8 CAJ         0.8330    0.4800   -0.0050 cc        1 3XX     -0.066100
      9 CAE         2.0730    0.9860   -0.0160 c2        1 3XX     -0.075200
     10 CAA         3.2950    0.1690   -0.0980 c3        1 3XX     -0.083900
     11 H1         -1.5620   -2.5820   -0.0950 ho        1 3XX      0.435000
     12 H2         -2.7940    2.0300   -0.7190 hc        1 3XX      0.068033
     13 H3         -3.5620    0.6120    0.1380 hc        1 3XX      0.068033
     14 H4         -2.7370    1.9330    1.0920 hc        1 3XX      0.068033
     15 H5          2.2140    2.0810    0.0380 ha        1 3XX      0.144000
     16 H6          3.9360    0.3590    0.8010 hc        1 3XX      0.063367
     17 H7          3.0690   -0.9250   -0.1490 hc        1 3XX      0.063367
     18 H8          3.8800    0.4560   -1.0090 hc        1 3XX      0.063367
@<TRIPOS>BOND
     1    1    2 2   
     2    2    3 1   
     3    2    8 1   
     4    3    4 1   
     5    3    5 2   
     6    4   11 1   
     7    5    6 1   
     8    5    7 1   
     9    6   12 1   
    10    6   13 1   
    11    6   14 1   
    12    7    8 1   
    13    8    9 2   
    14    9   10 1   
    15    9   15 1   
    16   10   16 1   
    17   10   17 1   
    18   10   18 1   
@<TRIPOS>SUBSTRUCTURE
     1 3XX         1 TEMP              0 ****  ****    0 ROOT
