@<TRIPOS>MOLECULE
3XX
   18    18     1     0     0
SMALL
bcc


@<TRIPOS>ATOM
      1 OAC        -0.0770    0.5110    0.1530 o         1 3XX     -0.521100
      2 CAI         1.1330    0.2930    0.1180 c         1 3XX      0.556500
      3 CAH         2.0920    0.3390    1.2500 cc        1 3XX     -0.115100
      4 OAD         1.7800    0.6370    2.5460 oh        1 3XX     -0.467100
      5 CAG         3.3410    0.0330    0.7890 cd        1 3XX      0.085900
      6 CAB         4.6490   -0.0730    1.4390 c3        1 3XX     -0.041900
      7 OAF         3.3260   -0.2250   -0.5970 os        1 3XX     -0.244200
      8 CAJ         1.9860   -0.0750   -1.0450 cc        1 3XX     -0.066100
      9 CAE         1.7080   -0.2710   -2.3410 c2        1 3XX     -0.075200
     10 CAA         0.3620   -0.1450   -2.9220 c3        1 3XX     -0.083900
     11 H1          0.8230    0.8070    2.5590 ho        1 3XX      0.435000
     12 H2          5.0610   -1.1060    1.3110 hc        1 3XX      0.068033
     13 H3          5.3680    0.6520    0.9800 hc        1 3XX      0.068033
     14 H4          4.5420    0.1510    2.5290 hc        1 3XX      0.068033
     15 H5          2.5230   -0.5440   -3.0350 ha        1 3XX      0.144000
     16 H6          0.0610   -1.1170   -3.3900 hc        1 3XX      0.063367
     17 H7         -0.4050    0.1340   -2.1560 hc        1 3XX      0.063367
     18 H8          0.3690    0.6390   -3.7220 hc        1 3XX      0.063367
@<TRIPOS>BOND
     1    1    2 2   
     2    2    3 1   
     3    2    8 1   
     4    3    4 1   
     5    3    5 2   
     6    4   11 1   
     7    5    6 1   
     8    5    7 1   
     9    6   12 1   
    10    6   13 1   
    11    6   14 1   
    12    7    8 1   
    13    8    9 2   
    14    9   10 1   
    15    9   15 1   
    16   10   16 1   
    17   10   17 1   
    18   10   18 1   
@<TRIPOS>SUBSTRUCTURE
     1 3XX         1 TEMP              0 ****  ****    0 ROOT
