@<TRIPOS>MOLECULE
3XY
   54    58     1     0     0
SMALL
bcc


@<TRIPOS>ATOM
      1 C4          1.3430   -1.1950    1.5530 c2        1 3XY     -0.239000
      2 C5          2.0110   -0.0400    1.0190 c2        1 3XY     -0.174000
      3 C6          1.9330    1.1630    1.7840 c2        1 3XY     -0.043000
      4 N1          1.2440    1.2000    2.9400 n2        1 3XY     -0.176000
      5 N3          0.6590   -1.1650    2.7290 n2        1 3XY     -0.133000
      6 FAB         5.1770   -2.8560   -1.0490 f         1 3XY     -0.163333
      7 CBG         4.4580   -2.2190   -2.0250 c3        1 3XY      0.417000
      8 FAC         4.9820   -0.9540   -2.0910 f         1 3XY     -0.163333
      9 FAD         4.8590   -2.8170   -3.1960 f         1 3XY     -0.163333
     10 CAY         2.4450   -1.6450   -0.6000 c2        1 3XY     -0.376000
     11 SAV         1.5340   -2.5190    0.5260 ss        1 3XY      0.612000
     12 CAK         2.6370   -0.3330   -0.2320 c2        1 3XY     -0.100000
     13 C2          0.6510    0.0300    3.3490 c2        1 3XY     -0.009000
     14 NAT         2.7190    2.3900    1.3350 n4        1 3XY      0.181000
     15 CBE         4.0160    2.6020    1.8380 c2        1 3XY     -0.538000
     16 CAM         5.1710    1.8250    1.3250 c3        1 3XY     -0.064000
     17 CAO         5.7140    0.8290    2.3540 c3        1 3XY     -0.077500
     18 CAL         4.2100    3.1570    3.2000 c3        1 3XY     -0.064000
     19 CAN         4.7780    2.1270    4.1810 c3        1 3XY     -0.077500
     20 NBF         5.9440    1.4190    3.6660 n3        1 3XY     -0.247000
     21 CAP         6.4410    0.4460    4.6330 c3        1 3XY     -0.028000
     22 CAW         7.7810   -0.1350    4.2850 ca        1 3XY     -0.102000
     23 CAI         7.9640   -1.5100    4.3160 ca        1 3XY     -0.071000
     24 CBA         9.2320   -2.0340    4.0460 ca        1 3XY     -0.105000
     25 CAJ         9.7670   -3.3700    3.9940 c2        1 3XY     -0.122000
     26 CAX        11.1230   -3.2550    3.6660 c2        1 3XY      0.010000
     27 CAE        12.0570   -4.3010    3.5020 c1        1 3XY     -0.079000
     28 NAA        12.8070   -5.1810    3.3720 n1        1 3XY     -0.029000
     29 NAU        11.4680   -1.8980    3.5130 na        1 3XY     -0.198000
     30 CBB        10.3240   -1.1370    3.7370 ca        1 3XY      0.022000
     31 CAH        10.1250    0.2560    3.7050 ca        1 3XY     -0.158000
     32 CAG         8.8570    0.7320    3.9810 ca        1 3XY     -0.074000
     33 H1          2.4640   -1.7520   -2.7320 hc        1 3XY      0.133000
     34 H2          2.6180   -3.3550   -1.8820 hc        1 3XY      0.133000
     35 H3          3.2180    0.3910   -0.8110 ha        1 3XY      0.168000
     36 H4          0.0970    0.0890    4.3100 h5        1 3XY      0.200000
     37 H5          2.7770    2.3030    0.3190 hn        1 3XY      0.228000
     38 H6          2.1490    3.2030    1.5880 hn        1 3XY      0.228000
     39 H7          4.9310    1.2530    0.3900 hc        1 3XY      0.079750
     40 H8          5.9770    2.5660    1.0680 hc        1 3XY      0.079750
     41 H9          4.9990   -0.0440    2.4180 h1        1 3XY      0.063750
     42 H10         6.7030    0.4300    1.9910 h1        1 3XY      0.063750
     43 H11         4.9330    4.0130    3.1060 hc        1 3XY      0.079750
     44 H12         3.2630    3.5620    3.6440 hc        1 3XY      0.079750
     45 H13         5.0960    2.6630    5.1200 h1        1 3XY      0.063750
     46 H14         3.9520    1.4090    4.4640 h1        1 3XY      0.063750
     47 H16         6.5470    0.9780    5.6230 h1        1 3XY      0.074500
     48 H17         5.7030   -0.3990    4.7840 h1        1 3XY      0.074500
     49 H18         7.1310   -2.1910    4.5480 ha        1 3XY      0.137000
     50 H19         9.2200   -4.2920    4.1750 ha        1 3XY      0.165000
     51 H20        12.3570   -1.5570    3.2620 hn        1 3XY      0.258000
     52 H21        10.9510    0.9390    3.4680 ha        1 3XY      0.136000
     53 H22         8.6680    1.8180    3.9610 ha        1 3XY      0.152000
     54 CAQ         2.9120   -2.2720   -1.8420 c3        1 3XY     -0.129000
@<TRIPOS>BOND
     1    1    2 1   
     2    1    5 1   
     3    1   11 1   
     4    2    3 1   
     5    2   12 1   
     6    3    4 1   
     7    3   14 1   
     8    4   13 1   
     9    5   13 1   
    10    6    7 1   
    11    7    8 1   
    12    7    9 1   
    13    7   54 1   
    14   10   11 1   
    15   10   12 1   
    16   10   54 1   
    17   12   35 1   
    18   13   36 1   
    19   14   15 1   
    20   14   37 1   
    21   14   38 1   
    22   15   16 1   
    23   15   18 1   
    24   16   17 1   
    25   16   39 1   
    26   16   40 1   
    27   17   20 1   
    28   17   41 1   
    29   17   42 1   
    30   18   19 1   
    31   18   43 1   
    32   18   44 1   
    33   19   20 1   
    34   19   45 1   
    35   19   46 1   
    36   20   21 1   
    37   21   22 1   
    38   21   47 1   
    39   21   48 1   
    40   22   23 1   
    41   22   32 1   
    42   23   24 1   
    43   23   49 1   
    44   24   25 1   
    45   24   30 1   
    46   25   26 1   
    47   25   50 1   
    48   26   27 1   
    49   26   29 1   
    50   27   28 1   
    51   29   30 1   
    52   29   51 1   
    53   30   31 1   
    54   31   32 1   
    55   31   52 1   
    56   32   53 1   
    57   33   54 1   
    58   34   54 1   
@<TRIPOS>SUBSTRUCTURE
     1 3XY         1 TEMP              0 ****  ****    0 ROOT
