@<TRIPOS>MOLECULE
3XY
   54    58     1     0     0
SMALL
bcc


@<TRIPOS>ATOM
      1 C4          0.9150   -0.6420    1.2320 c2        1 3XY     -0.239000
      2 C5          1.9090    0.2930    0.7800 c2        1 3XY     -0.171000
      3 C6          1.8530    1.6090    1.3280 c2        1 3XY     -0.039000
      4 N1          0.9010    1.9450    2.2210 n2        1 3XY     -0.181000
      5 N3         -0.0400   -0.3100    2.1430 n2        1 3XY     -0.132000
      6 FAB         4.8930   -3.2890    0.1460 f         1 3XY     -0.163667
      7 CBG         4.6230   -2.7440   -1.0820 c3        1 3XY      0.416000
      8 FAC         5.3990   -1.6160   -1.1530 f         1 3XY     -0.163667
      9 FAD         5.1990   -3.6120   -1.9780 f         1 3XY     -0.163667
     10 CAY         2.4550   -1.6140   -0.4230 c2        1 3XY     -0.379000
     11 SAV         1.1220   -2.1360    0.4790 ss        1 3XY      0.611000
     12 CAK         2.7860   -0.3010   -0.1790 c2        1 3XY     -0.097000
     13 C2          0.0130    0.9610    2.5820 c2        1 3XY     -0.008000
     14 NAT         2.9420    2.6160    0.9780 ny        1 3XY      0.186000
     15 CBE         4.1420    2.5700    1.7070 c2        1 3XY     -0.558000
     16 CAM         5.1660    1.5540    1.3670 c3        1 3XY     -0.075500
     17 CAO         6.3540    1.6820    2.3250 c3        1 3XY     -0.063500
     18 CAL         4.2180    3.1800    3.0560 c3        1 3XY     -0.075500
     19 CAN         4.7730    2.2070    4.1000 c3        1 3XY     -0.063500
     20 NBF         6.0410    1.5800    3.7410 n3        1 3XY     -0.252000
     21 CAP         6.1350    0.2230    4.2700 c3        1 3XY     -0.029000
     22 CAW         7.5250   -0.3440    4.2370 ca        1 3XY     -0.103000
     23 CAI         7.7690   -1.5460    3.5860 ca        1 3XY     -0.069000
     24 CBA         9.0600   -2.0810    3.6120 ca        1 3XY     -0.105000
     25 CAJ         9.6540   -3.2740    3.0630 c2        1 3XY     -0.120000
     26 CAX        11.0050   -3.2610    3.4260 c2        1 3XY      0.009000
     27 CAE        11.9870   -4.2270    3.1130 c1        1 3XY     -0.079000
     28 NAA        12.7770   -5.0370    2.8420 n1        1 3XY     -0.030000
     29 NAU        11.2900   -2.1080    4.1850 na        1 3XY     -0.199000
     30 CBB        10.1140   -1.3740    4.3050 ca        1 3XY      0.023000
     31 CAH         9.8550   -0.1530    4.9550 ca        1 3XY     -0.158000
     32 CAG         8.5650    0.3400    4.9090 ca        1 3XY     -0.073000
     33 H1          3.0520   -2.0840   -2.4190 hc        1 3XY      0.132500
     34 H2          2.6240   -3.5220   -1.3860 hc        1 3XY      0.132500
     35 H3          3.6340    0.2220   -0.6340 ha        1 3XY      0.172000
     36 H4         -0.7550    1.2640    3.3250 h5        1 3XY      0.200000
     37 H5          2.5290    3.5460    1.0980 hn        1 3XY      0.229000
     38 H6          3.1460    2.4430   -0.0080 hn        1 3XY      0.229000
     39 H7          5.5420    1.6960    0.3180 hc        1 3XY      0.065500
     40 H8          4.7480    0.5090    1.4250 hc        1 3XY      0.065500
     41 H9          7.1220    0.9050    2.0550 h1        1 3XY      0.079250
     42 H10         6.8180    2.6990    2.1790 h1        1 3XY      0.079250
     43 H11         4.8910    4.0790    2.9940 hc        1 3XY      0.065500
     44 H12         3.2190    3.5370    3.4240 hc        1 3XY      0.065500
     45 H13         4.9580    2.7680    5.0600 h1        1 3XY      0.079250
     46 H14         3.9750    1.4360    4.3090 h1        1 3XY      0.079250
     47 H16         5.4360   -0.4830    3.7300 h1        1 3XY      0.075500
     48 H17         5.8070    0.2590    5.3510 h1        1 3XY      0.075500
     49 H18         6.9660   -2.0790    3.0560 ha        1 3XY      0.140000
     50 H19         9.1460   -4.0370    2.4790 ha        1 3XY      0.166000
     51 H20        12.1730   -1.8620    4.5440 hn        1 3XY      0.257000
     52 H21        10.6540    0.3890    5.4790 ha        1 3XY      0.136000
     53 H22         8.3290    1.2970    5.4020 ha        1 3XY      0.148000
     54 CAQ         3.1120   -2.5110   -1.3800 c3        1 3XY     -0.128000
@<TRIPOS>BOND
     1    1    2 1   
     2    1    5 1   
     3    1   11 1   
     4    2    3 1   
     5    2   12 1   
     6    3    4 1   
     7    3   14 1   
     8    4   13 1   
     9    5   13 1   
    10    6    7 1   
    11    7    8 1   
    12    7    9 1   
    13    7   54 1   
    14   10   11 1   
    15   10   12 1   
    16   10   54 1   
    17   12   35 1   
    18   13   36 1   
    19   14   15 1   
    20   14   37 1   
    21   14   38 1   
    22   15   16 1   
    23   15   18 1   
    24   16   17 1   
    25   16   39 1   
    26   16   40 1   
    27   17   20 1   
    28   17   41 1   
    29   17   42 1   
    30   18   19 1   
    31   18   43 1   
    32   18   44 1   
    33   19   20 1   
    34   19   45 1   
    35   19   46 1   
    36   20   21 1   
    37   21   22 1   
    38   21   47 1   
    39   21   48 1   
    40   22   23 1   
    41   22   32 1   
    42   23   24 1   
    43   23   49 1   
    44   24   25 1   
    45   24   30 1   
    46   25   26 1   
    47   25   50 1   
    48   26   27 1   
    49   26   29 1   
    50   27   28 1   
    51   29   30 1   
    52   29   51 1   
    53   30   31 1   
    54   31   32 1   
    55   31   52 1   
    56   32   53 1   
    57   33   54 1   
    58   34   54 1   
@<TRIPOS>SUBSTRUCTURE
     1 3XY         1 TEMP              0 ****  ****    0 ROOT
