@<TRIPOS>MOLECULE
3Y2
   46    47     1     0     0
SMALL
bcc


@<TRIPOS>ATOM
      1 C1          1.6670   -0.1980   -1.4670 c2        1 3Y2      0.374200
      2 C2          2.7140    0.4720   -0.5910 c3        1 3Y2     -0.006500
      3 C4          3.5690    0.6990    1.7470 c         1 3Y2      0.528100
      4 C6          3.7200    0.1610    3.1890 c3        1 3Y2      0.099200
      5 C7          2.7570   -0.9910    3.5310 c3        1 3Y2     -0.107400
      6 C8          3.0430   -1.5840    4.8990 c3        1 3Y2     -0.095400
      7 C9          4.4790   -2.0480    5.0190 c3        1 3Y2     -0.102400
      8 C10         5.4660   -0.9620    4.6540 c3        1 3Y2     -0.095400
      9 C11         5.1780   -0.3640    3.2940 c3        1 3Y2     -0.107400
     10 N3          2.5450    0.0870    0.8480 n4        1 3Y2     -0.646800
     11 N1          0.9570    0.3240   -2.3770 n2        1 3Y2     -0.635100
     12 O5          4.2560    1.6090    1.3080 o         1 3Y2     -0.387100
     13 N12         3.5290    1.3320    4.1300 n4        1 3Y2     -0.676800
     14 O14         1.5870    1.7650    2.9580 o         1 3Y2     -0.636100
     15 C15         1.8640    2.9870    5.0350 ca        1 3Y2     -0.310600
     16 C16         0.5800    3.6550    5.0360 ca        1 3Y2      0.347600
     17 C17         0.2750    4.5420    6.1300 ca        1 3Y2     -0.234000
     18 C18         1.1780    4.7760    7.1360 ca        1 3Y2      0.139400
     19 C19         2.4600    4.1390    7.1140 ca        1 3Y2     -0.133000
     20 C20         2.7750    3.2860    6.1020 ca        1 3Y2     -0.080000
     21 N21        -0.3470    3.4810    4.0730 nh        1 3Y2     -0.799200
     22 CL2         0.8080    5.8110    8.4020 cl        1 3Y2      0.040600
     23 H1          1.5730   -1.2970   -1.3190 h4        1 3Y2      0.043800
     24 H2          3.7410    0.1430   -0.9280 hx        1 3Y2      0.127700
     25 H3          2.6680    1.5980   -0.6540 hx        1 3Y2      0.127700
     26 H4          1.6920   -0.6420    3.4810 hc        1 3Y2      0.087700
     27 H5          2.9100   -1.8090    2.7760 hc        1 3Y2      0.087700
     28 H6          2.7950   -0.8560    5.7140 hc        1 3Y2      0.078200
     29 H7          2.3580   -2.4660    5.0480 hc        1 3Y2      0.078200
     30 H8          4.6410   -2.9400    4.3560 hc        1 3Y2      0.089200
     31 H9          4.6720   -2.3870    6.0730 hc        1 3Y2      0.089200
     32 H10         5.4800   -0.1640    5.4430 hc        1 3Y2      0.078200
     33 H11         6.5040   -1.4000    4.6300 hc        1 3Y2      0.078200
     34 H12         5.9050    0.4600    3.0610 hc        1 3Y2      0.087700
     35 H13         5.3030   -1.1570    2.5070 hc        1 3Y2      0.087700
     36 H14         1.6170    0.4050    1.1800 hn        1 3Y2      0.480300
     37 H15         1.0260    1.3010   -2.5740 hn        1 3Y2      0.428400
     38 H16         3.6080    0.9630    5.0900 hn        1 3Y2      0.477800
     39 H17        -0.7110    5.0450    6.1470 ha        1 3Y2      0.190000
     40 H18         3.1800    4.3580    7.9230 ha        1 3Y2      0.191000
     41 H19         3.7810    2.8400    6.1190 ha        1 3Y2      0.122000
     42 H20        -1.2180    3.9640    4.1300 hn        1 3Y2      0.469300
     43 H21        -0.1910    2.8950    3.2860 hn        1 3Y2      0.469300
     44 C13         2.1940    2.0790    3.9980 c         1 3Y2      0.596700
     45 H32         2.5790   -0.9380    0.9280 hn        1 3Y2      0.480300
     46 H122        4.2920    2.0050    3.9740 hn        1 3Y2      0.477800
@<TRIPOS>BOND
     1    1    2 1   
     2    1   11 2   
     3    1   23 1   
     4    2   10 1   
     5    2   24 1   
     6    2   25 1   
     7    3    4 1   
     8    3   10 1   
     9    3   12 2   
    10    4    5 1   
    11    4    9 1   
    12    4   13 1   
    13    5    6 1   
    14    5   26 1   
    15    5   27 1   
    16    6    7 1   
    17    6   28 1   
    18    6   29 1   
    19    7    8 1   
    20    7   30 1   
    21    7   31 1   
    22    8    9 1   
    23    8   32 1   
    24    8   33 1   
    25    9   34 1   
    26    9   35 1   
    27   10   36 1   
    28   10   45 1   
    29   11   37 1   
    30   13   38 1   
    31   13   44 1   
    32   13   46 1   
    33   14   44 2   
    34   15   16 ar  
    35   15   20 ar  
    36   15   44 1   
    37   16   17 ar  
    38   16   21 1   
    39   17   18 ar  
    40   17   39 1   
    41   18   19 ar  
    42   18   22 1   
    43   19   20 ar  
    44   19   40 1   
    45   20   41 1   
    46   21   42 1   
    47   21   43 1   
@<TRIPOS>SUBSTRUCTURE
     1 3Y2         1 TEMP              0 ****  ****    0 ROOT
