@<TRIPOS>MOLECULE
3Y2
   46    43     1     0     0
SMALL
bcc


@<TRIPOS>ATOM
      1 C1         -2.0020    0.9120    0.8630 c1        1 3Y2      0.003000
      2 C2          1.2620    1.9520   -0.0980 c2        1 3Y2      0.081000
      3 C4          4.8970    0.0260    0.9350 c2        1 3Y2      0.244000
      4 C6          5.4530   -0.8030    2.0470 c2        1 3Y2     -0.334000
      5 C7          6.6700   -1.4040    1.8710 c2        1 3Y2      0.137000
      6 C8          4.5830   -2.1800    6.7940 c3        1 3Y2     -0.228000
      7 C9          4.4400   -1.1730    5.6820 c3        1 3Y2     -0.153000
      8 C10         4.9930   -1.7340    4.3770 c3        1 3Y2     -0.247000
      9 C11         4.6830   -0.9060    3.2270 c2        1 3Y2      0.262000
     10 N3          0.7110    1.2910    0.8590 n8        1 3Y2     -0.167000
     11 N1         -3.1590    0.7600    0.8240 n2        1 3Y2     -0.248000
     12 O5          3.7980    0.5740    1.0170 o         1 3Y2     -0.296000
     13 N12         0.2310    0.8310    5.1630 nt        1 3Y2     -0.388000
     14 O14         1.8870    0.7210    3.6200 o         1 3Y2     -0.514000
     15 C15         1.3370    2.8890    4.5300 c2        1 3Y2     -0.167000
     16 C16         2.0590    3.8020    3.5290 c3        1 3Y2     -0.045000
     17 C17         3.0810    4.5990    4.2850 c1        1 3Y2      0.000000
     18 C18         2.8680    5.0160    5.6840 c3        1 3Y2     -0.132000
     19 C19         1.4380    4.7320    6.1460 c2        1 3Y2     -0.088000
     20 C20         1.0210    3.6060    5.6060 c1        1 3Y2     -0.120000
     21 N21         2.5560    3.1530    2.3330 n8        1 3Y2     -0.343000
     22 Cl2         3.2100    6.7240    5.8280 cl        1 3Y2      0.029000
     23 H1         -0.3400    1.1360    0.9110 hn        1 3Y2      0.310000
     24 H2          0.6470    2.3840   -0.9160 h4        1 3Y2      0.185500
     25 H3          2.3620    2.1040   -0.1410 h4        1 3Y2      0.185500
     26 H4          7.2400   -1.2940    0.9270 ha        1 3Y2      0.179000
     27 H5          5.6520   -2.4670    6.9410 hc        1 3Y2      0.102000
     28 H6          7.1550   -2.0210    2.6500 ha        1 3Y2      0.179000
     29 H7          3.9940   -3.1040    6.5770 hc        1 3Y2      0.102000
     30 H8          4.2060   -1.7400    7.7510 hc        1 3Y2      0.102000
     31 H9          5.0010   -0.2380    5.9450 hc        1 3Y2      0.105000
     32 H10         3.3600   -0.8970    5.5470 hc        1 3Y2      0.105000
     33 H11         4.4870   -2.7410    4.1860 hc        1 3Y2      0.177500
     34 H12         6.0900   -1.9610    4.4900 hc        1 3Y2      0.177500
     35 H13         3.7320   -0.3060    3.2680 ha        1 3Y2      0.231000
     36 H14         5.5450    0.1100    0.0350 h4        1 3Y2      0.151000
     37 H15        -4.1260    0.6350    0.7860 hn        1 3Y2      0.328000
     38 H16         0.1180   -0.1540    5.1350 hn        1 3Y2      0.248000
     39 H17         1.3230    4.6020    3.1670 h1        1 3Y2      0.168000
     40 H18         3.6280    4.4810    6.3230 h1        1 3Y2      0.187000
     41 H19         0.8850    5.4620    6.7490 ha        1 3Y2      0.211000
     42 H20         3.0470    2.3090    2.5700 hn        1 3Y2      0.165000
     43 H21         3.1960    3.7790    1.8730 hn        1 3Y2      0.165000
     44 C13         1.1900    1.4320    4.4020 c2        1 3Y2      0.391000
     45 H32         1.2620    0.9200    1.6230 hn        1 3Y2      0.310000
     46 H122       -0.2930    1.3520    5.8260 hn        1 3Y2      0.248000
@<TRIPOS>BOND
     1    1   11 1   
     2    2   10 1   
     3    2   24 1   
     4    2   25 1   
     5    3    4 1   
     6    3   12 1   
     7    3   36 1   
     8    4    5 1   
     9    4    9 1   
    10    5   26 1   
    11    5   28 1   
    12    6    7 1   
    13    6   27 1   
    14    6   29 1   
    15    6   30 1   
    16    7    8 1   
    17    7   31 1   
    18    7   32 1   
    19    8    9 1   
    20    8   33 1   
    21    8   34 1   
    22    9   35 1   
    23   10   23 1   
    24   10   45 1   
    25   11   37 1   
    26   13   38 1   
    27   13   44 1   
    28   13   46 1   
    29   14   44 1   
    30   15   16 1   
    31   15   20 1   
    32   15   44 1   
    33   16   17 1   
    34   16   21 1   
    35   16   39 1   
    36   17   18 1   
    37   18   19 1   
    38   18   22 1   
    39   18   40 1   
    40   19   20 1   
    41   19   41 1   
    42   21   42 1   
    43   21   43 1   
@<TRIPOS>SUBSTRUCTURE
     1 3Y2         1 TEMP              0 ****  ****    0 ROOT
