@<TRIPOS>MOLECULE
3Y4
   69    73     1     0     0
SMALL
bcc


@<TRIPOS>ATOM
      1 C17         1.5520    0.3940    0.4250 c3        1 3Y4     -0.034100
      2 C16         2.3990    0.4570    1.6500 ca        1 3Y4     -0.062300
      3 C20         0.6100    1.5900    0.3210 c3        1 3Y4     -0.131400
      4 C23        -0.7420    1.1450   -0.1600 c         1 3Y4      0.581100
      5 C12         0.2800   -1.5790    3.9530 cc        1 3Y4      0.417400
      6 C27        -2.8520    2.5010   -0.2250 c3        1 3Y4      0.126200
      7 C33        -4.8080    0.7880    1.9800 ca        1 3Y4     -0.125500
      8 CL1         6.1370    1.5870    2.4340 cl        1 3Y4     -0.035400
      9 C2          4.5650    0.9950    2.6210 ca        1 3Y4      0.035400
     10 C3          4.1280    0.5570    3.8770 ca        1 3Y4     -0.100000
     11 C5          2.8330    0.0750    4.0270 ca        1 3Y4     -0.113000
     12 C7          1.9610    0.0180    2.9200 ca        1 3Y4     -0.014200
     13 N8          0.6460   -0.4960    3.1260 na        1 3Y4      0.015500
     14 N9         -0.4970    0.0150    2.6170 nc        1 3Y4     -0.288800
     15 N10        -1.4740   -0.6810    3.0700 nd        1 3Y4     -0.066000
     16 N11        -1.0790   -1.6570    3.8830 nd        1 3Y4     -0.346000
     17 C14         3.7050    0.9430    1.5210 ca        1 3Y4     -0.110000
     18 O24        -0.9900    0.4220   -1.1140 o         1 3Y4     -0.439100
     19 N25        -1.9490    1.6330    0.6130 n4        1 3Y4     -0.661800
     20 C29        -4.2160    2.6900    0.4630 c3        1 3Y4     -0.051100
     21 C32        -4.8790    1.3830    0.7140 ca        1 3Y4     -0.161300
     22 C35        -5.4490   -0.4270    2.2200 ca        1 3Y4     -0.111500
     23 C37        -6.1650   -1.0530    1.1990 ca        1 3Y4     -0.100000
     24 C39        -6.2440   -0.4600   -0.0620 ca        1 3Y4     -0.111500
     25 C41        -5.6040    0.7540   -0.3050 ca        1 3Y4     -0.125500
     26 C43        -2.2130    3.8330   -0.5040 cc        1 3Y4      0.309800
     27 N44        -2.7810    4.7920   -1.3500 na        1 3Y4     -0.270900
     28 C46        -1.9150    5.8870   -1.3800 cc        1 3Y4     -0.063600
     29 C47        -0.8260    5.5340   -0.5290 cd        1 3Y4      0.376300
     30 CL2         0.5290    6.4560   -0.1970 cl        1 3Y4     -0.077000
     31 N49        -1.0250    4.2640    0.0030 nd        1 3Y4     -0.683000
     32 C50        -2.1660    7.0840   -2.1530 ca        1 3Y4     -0.103000
     33 C51        -2.6960    7.0000   -3.4490 ca        1 3Y4     -0.067000
     34 C53        -2.9370    8.1420   -4.1990 ca        1 3Y4     -0.176500
     35 C55        -2.6500    9.4190   -3.6620 ca        1 3Y4      0.121600
     36 C56        -2.1130    9.4980   -2.3520 ca        1 3Y4     -0.176500
     37 C58        -1.8780    8.3460   -1.6160 ca        1 3Y4     -0.067000
     38 N60        -2.8710   10.6060   -4.3640 n         1 3Y4     -0.449100
     39 C62        -3.4120   10.6950   -5.6380 c         1 3Y4      0.748100
     40 O63        -3.8120    9.7970   -6.3930 o         1 3Y4     -0.564000
     41 O64        -3.4860   12.0070   -6.0560 os        1 3Y4     -0.436900
     42 C65        -4.0340   12.2000   -7.3650 c3        1 3Y4      0.136700
     43 H1          2.2130    0.3810   -0.4860 hc        1 3Y4      0.080200
     44 H2          0.9800   -0.5730    0.3990 hc        1 3Y4      0.080200
     45 H3          0.5570    2.1460    1.2950 hc        1 3Y4      0.114700
     46 H4          0.9960    2.3210   -0.4470 hc        1 3Y4      0.114700
     47 H5          0.9770   -2.2140    4.5130 h5        1 3Y4      0.108100
     48 H6         -3.0050    1.9440   -1.2030 hx        1 3Y4      0.121700
     49 H8          4.8030    0.5940    4.7480 ha        1 3Y4      0.174000
     50 H9          2.4980   -0.2580    5.0240 ha        1 3Y4      0.158000
     51 H10         4.0610    1.2840    0.5340 ha        1 3Y4      0.165000
     52 H11        -1.6430    2.1510    1.4450 hn        1 3Y4      0.479300
     53 H12        -4.0900    3.2650    1.4190 hc        1 3Y4      0.086700
     54 H13        -4.8530    3.3150   -0.2200 hc        1 3Y4      0.086700
     55 H14        -5.3900   -0.8900    3.2180 ha        1 3Y4      0.154000
     56 H15        -6.6740   -2.0110    1.3910 ha        1 3Y4      0.154000
     57 H16        -6.8170   -0.9480   -0.8660 ha        1 3Y4      0.154000
     58 H17        -5.6800    1.2230   -1.2970 ha        1 3Y4      0.134500
     59 H18        -3.6390    4.7210   -1.8360 hn        1 3Y4      0.322700
     60 H20        -2.9120    6.0180   -3.8980 ha        1 3Y4      0.140500
     61 H21        -3.3500    8.0420   -5.2180 ha        1 3Y4      0.168500
     62 H22        -1.8760   10.4760   -1.9020 ha        1 3Y4      0.168500
     63 H23        -1.4630    8.4290   -0.5990 ha        1 3Y4      0.140500
     64 H24        -2.6150   11.4620   -3.9210 hn        1 3Y4      0.347500
     65 H25        -3.9960   13.3110   -7.4900 h1        1 3Y4      0.061367
     66 H26        -5.0810   11.8140   -7.3990 h1        1 3Y4      0.061367
     67 H27        -3.4030   11.6760   -8.1230 h1        1 3Y4      0.061367
     68 H252       -2.5090    0.8190    0.9220 hn        1 3Y4      0.479300
     69 H7         -4.2690    1.2880    2.7990 ha        1 3Y4      0.134500
@<TRIPOS>BOND
     1    1    2 1   
     2    1    3 1   
     3    1   43 1   
     4    1   44 1   
     5    2   12 ar  
     6    2   17 ar  
     7    3    4 1   
     8    3   45 1   
     9    3   46 1   
    10    4   18 2   
    11    4   19 1   
    12    5   13 1   
    13    5   16 2   
    14    5   47 1   
    15    6   19 1   
    16    6   20 1   
    17    6   26 1   
    18    6   48 1   
    19    7   21 ar  
    20    7   22 ar  
    21    7   69 1   
    22    8    9 1   
    23    9   10 ar  
    24    9   17 ar  
    25   10   11 ar  
    26   10   49 1   
    27   11   12 ar  
    28   11   50 1   
    29   12   13 1   
    30   13   14 1   
    31   14   15 2   
    32   15   16 1   
    33   17   51 1   
    34   19   52 1   
    35   19   68 1   
    36   20   21 1   
    37   20   53 1   
    38   20   54 1   
    39   21   25 ar  
    40   22   23 ar  
    41   22   55 1   
    42   23   24 ar  
    43   23   56 1   
    44   24   25 ar  
    45   24   57 1   
    46   25   58 1   
    47   26   27 1   
    48   26   31 2   
    49   27   28 1   
    50   27   59 1   
    51   28   29 2   
    52   28   32 1   
    53   29   30 1   
    54   29   31 1   
    55   32   33 ar  
    56   32   37 ar  
    57   33   34 ar  
    58   33   60 1   
    59   34   35 ar  
    60   34   61 1   
    61   35   36 ar  
    62   35   38 1   
    63   36   37 ar  
    64   36   62 1   
    65   37   63 1   
    66   38   39 1   
    67   38   64 1   
    68   39   40 2   
    69   39   41 1   
    70   41   42 1   
    71   42   65 1   
    72   42   66 1   
    73   42   67 1   
@<TRIPOS>SUBSTRUCTURE
     1 3Y4         1 TEMP              0 ****  ****    0 ROOT
