@<TRIPOS>MOLECULE
3Y4
   69    73     1     0     0
SMALL
bcc


@<TRIPOS>ATOM
      1 C17         1.1510   -0.2410    0.2570 c3        1 3Y4     -0.035100
      2 C16         2.2130    0.0530    1.2600 ca        1 3Y4     -0.061300
      3 C20         0.3800    1.0140   -0.1390 c3        1 3Y4     -0.131400
      4 C23        -1.0720    0.6860   -0.3370 c         1 3Y4      0.586100
      5 C12         0.3270   -0.7300    4.3860 cc        1 3Y4      0.417400
      6 C27        -3.0420    2.2410   -0.4750 c3        1 3Y4      0.130200
      7 C33        -4.8280    1.1260    2.2320 ca        1 3Y4     -0.124000
      8 Cl1         6.1430    0.6840    1.0990 cl        1 3Y4     -0.034400
      9 C2          4.5720    0.4740    1.6870 ca        1 3Y4      0.035400
     10 C3          4.3260    0.5440    3.0630 ca        1 3Y4     -0.100000
     11 C5          3.0330    0.3760    3.5430 ca        1 3Y4     -0.113000
     12 C7          1.9690    0.1270    2.6500 ca        1 3Y4     -0.015200
     13 N8          0.6630   -0.0500    3.1950 na        1 3Y4      0.016500
     14 N9         -0.4840    0.4650    2.6990 nc        1 3Y4     -0.286800
     15 N10        -1.4380    0.1340    3.4900 nd        1 3Y4     -0.068000
     16 N11        -1.0210   -0.5850    4.5280 nd        1 3Y4     -0.347000
     17 C14         3.5230    0.2310    0.7980 ca        1 3Y4     -0.110000
     18 O24        -1.5420   -0.1860   -1.0530 o         1 3Y4     -0.438100
     19 N25        -2.0840    1.5090    0.4350 ny        1 3Y4     -0.666800
     20 C29        -4.3480    2.5910    0.2570 c3        1 3Y4     -0.054100
     21 C32        -4.9750    1.3860    0.8640 ca        1 3Y4     -0.162300
     22 C35        -5.4410    0.0110    2.8030 ca        1 3Y4     -0.113000
     23 C37        -6.2060   -0.8470    2.0120 ca        1 3Y4     -0.100000
     24 C39        -6.3600   -0.5890    0.6500 ca        1 3Y4     -0.113000
     25 C41        -5.7480    0.5250    0.0760 ca        1 3Y4     -0.124000
     26 C43        -2.3690    3.4560   -1.0460 cc        1 3Y4      0.301800
     27 N44        -3.0160    4.6510   -1.3790 na        1 3Y4     -0.267900
     28 C46        -2.0590    5.5060   -1.9290 cc        1 3Y4     -0.063600
     29 C47        -0.8320    4.7780   -1.8910 cd        1 3Y4      0.378300
     30 Cl2         0.6690    5.3180   -2.3900 cl        1 3Y4     -0.075000
     31 N49        -1.0410    3.5160   -1.3490 nd        1 3Y4     -0.679000
     32 C50        -2.3530    6.8370   -2.4130 ca        1 3Y4     -0.104000
     33 C51        -1.7770    7.2950   -3.6060 ca        1 3Y4     -0.066000
     34 C53        -2.0430    8.5710   -4.0830 ca        1 3Y4     -0.177000
     35 C55        -2.9040    9.4350   -3.3670 ca        1 3Y4      0.122600
     36 C56        -3.4840    8.9660   -2.1600 ca        1 3Y4     -0.177000
     37 C58        -3.2090    7.6880   -1.6990 ca        1 3Y4     -0.066000
     38 N60        -3.2120   10.7280   -3.7940 ns        1 3Y4     -0.449100
     39 C62        -2.7270   11.3300   -4.9460 c         1 3Y4      0.748100
     40 O63        -1.9680   10.8780   -5.8150 o         1 3Y4     -0.560000
     41 O64        -3.2070   12.6160   -5.0740 os        1 3Y4     -0.437900
     42 C65        -2.7620   13.3190   -6.2410 c3        1 3Y4      0.136700
     43 H1          0.4580   -1.0350    0.6460 hc        1 3Y4      0.079200
     44 H2          1.6230   -0.6760   -0.6690 hc        1 3Y4      0.079200
     45 H3          0.5370    1.8360    0.6080 hc        1 3Y4      0.114700
     46 H4          0.7550    1.4040   -1.1300 hc        1 3Y4      0.114700
     47 H5          1.0320   -1.2650    5.0310 h5        1 3Y4      0.108100
     48 H6         -3.2840    1.5230   -1.3230 hx        1 3Y4      0.131700
     49 H8          5.1520    0.7350    3.7700 ha        1 3Y4      0.174000
     50 H9          2.8520    0.4430    4.6290 ha        1 3Y4      0.158000
     51 H10         3.7270    0.1710   -0.2850 ha        1 3Y4      0.166000
     52 H11        -1.5960    2.1830    1.0340 hn        1 3Y4      0.474800
     53 H12        -5.0530    3.0270   -0.5030 hc        1 3Y4      0.082200
     54 H13        -4.1560    3.3730    1.0390 hc        1 3Y4      0.082200
     55 H14        -5.3220   -0.1870    3.8800 ha        1 3Y4      0.155000
     56 H15        -6.6940   -1.7250    2.4650 ha        1 3Y4      0.154000
     57 H16        -6.9700   -1.2610    0.0260 ha        1 3Y4      0.155000
     58 H17        -5.8810    0.7310   -0.9970 ha        1 3Y4      0.137500
     59 H18        -3.9800    4.8510   -1.2830 hn        1 3Y4      0.321700
     60 H20        -1.1050    6.6370   -4.1800 ha        1 3Y4      0.140000
     61 H21        -1.5740    8.9020   -5.0270 ha        1 3Y4      0.168000
     62 H22        -4.1550    9.6140   -1.5740 ha        1 3Y4      0.168000
     63 H23        -3.6600    7.3550   -0.7520 ha        1 3Y4      0.140000
     64 H24        -3.8180   11.2750   -3.2200 hn        1 3Y4      0.346500
     65 H25        -3.0950   12.7790   -7.1590 h1        1 3Y4      0.061367
     66 H26        -1.6500   13.4110   -6.2270 h1        1 3Y4      0.061367
     67 H27        -3.2630   14.3140   -6.1390 h1        1 3Y4      0.061367
     68 H252       -2.6420    0.8760    1.0340 hn        1 3Y4      0.474800
     69 H7         -4.2460    1.8100    2.8690 ha        1 3Y4      0.137500
@<TRIPOS>BOND
     1    1    2 1   
     2    1    3 1   
     3    1   43 1   
     4    1   44 1   
     5    2   12 ar  
     6    2   17 ar  
     7    3    4 1   
     8    3   45 1   
     9    3   46 1   
    10    4   18 2   
    11    4   19 1   
    12    5   13 1   
    13    5   16 2   
    14    5   47 1   
    15    6   19 1   
    16    6   20 1   
    17    6   26 1   
    18    6   48 1   
    19    7   21 ar  
    20    7   22 ar  
    21    7   69 1   
    22    8    9 1   
    23    9   10 ar  
    24    9   17 ar  
    25   10   11 ar  
    26   10   49 1   
    27   11   12 ar  
    28   11   50 1   
    29   12   13 1   
    30   13   14 1   
    31   14   15 2   
    32   15   16 1   
    33   17   51 1   
    34   19   52 1   
    35   19   68 1   
    36   20   21 1   
    37   20   53 1   
    38   20   54 1   
    39   21   25 ar  
    40   22   23 ar  
    41   22   55 1   
    42   23   24 ar  
    43   23   56 1   
    44   24   25 ar  
    45   24   57 1   
    46   25   58 1   
    47   26   27 1   
    48   26   31 2   
    49   27   28 1   
    50   27   59 1   
    51   28   29 2   
    52   28   32 1   
    53   29   30 1   
    54   29   31 1   
    55   32   33 ar  
    56   32   37 ar  
    57   33   34 ar  
    58   33   60 1   
    59   34   35 ar  
    60   34   61 1   
    61   35   36 ar  
    62   35   38 1   
    63   36   37 ar  
    64   36   62 1   
    65   37   63 1   
    66   38   39 1   
    67   38   64 1   
    68   39   40 2   
    69   39   41 1   
    70   41   42 1   
    71   42   65 1   
    72   42   66 1   
    73   42   67 1   
@<TRIPOS>SUBSTRUCTURE
     1 3Y4         1 TEMP              0 ****  ****    0 ROOT
