@<TRIPOS>MOLECULE
3Y5
   66    71     1     0     0
SMALL
bcc


@<TRIPOS>ATOM
      1 N14        -1.3080   -0.8050    0.9420 nc        1 3Y5     -0.778000
      2 C13        -0.3020   -0.9060   -0.0020 cc        1 3Y5      0.425800
      3 C18         3.4010   -1.5040    0.2740 ca        1 3Y5     -0.040000
      4 C17         1.4800    0.5120    0.9210 ca        1 3Y5     -0.144000
      5 C16         1.1060   -0.6850    0.2970 ca        1 3Y5     -0.128500
      6 C19         2.0490   -1.6750   -0.0270 ca        1 3Y5     -0.137000
      7 C20        -3.0220   -0.6380    3.3140 c         1 3Y5      0.544100
      8 C23        -1.5130    0.1390    5.1490 c3        1 3Y5      0.195100
      9 C24        -0.9090    1.4630    5.4570 ca        1 3Y5     -0.172300
     10 C12        -0.8860   -1.2440   -1.2650 cd        1 3Y5     -0.065200
     11 C27         0.3100    3.8570    6.2940 ca        1 3Y5     -0.052000
     12 C1         -6.7690    0.5590    1.1770 ca        1 3Y5     -0.130000
     13 C2         -6.2670   -0.6960    0.8030 ca        1 3Y5     -0.193300
     14 C3         -7.0090   -1.8500    1.0830 ca        1 3Y5     -0.130000
     15 C4         -8.2360   -1.7500    1.7380 ca        1 3Y5     -0.105000
     16 C5         -8.7300   -0.5000    2.1130 ca        1 3Y5     -0.083000
     17 C6         -7.9960    0.6550    1.8310 ca        1 3Y5     -0.105000
     18 C7         -4.9870   -0.7930    0.0530 c3        1 3Y5     -0.054100
     19 C8         -3.8100   -1.1070    0.9890 c3        1 3Y5      0.147200
     20 N9         -3.7940   -0.1080    2.1560 n4        1 3Y5     -0.639800
     21 C10        -2.4850   -1.0660    0.2950 cd        1 3Y5      0.282800
     22 N11        -2.2640   -1.3280   -1.0570 na        1 3Y5     -0.239900
     23 CL         -0.1630   -1.4950   -2.7370 cl        1 3Y5      0.085600
     24 N21        -1.6820   -0.0730    3.6480 n4        1 3Y5     -0.625800
     25 O22        -3.4900   -1.5450    3.9870 o         1 3Y5     -0.345100
     26 C25        -1.6630    2.6620    5.5300 ca        1 3Y5      0.015800
     27 C26        -1.0400    3.8520    5.9530 ca        1 3Y5     -0.110000
     28 C28         1.0660    2.6800    6.2030 ca        1 3Y5      0.030400
     29 C29         0.4530    1.4930    5.7830 ca        1 3Y5     -0.076000
     30 CL2         2.7000    2.6870    6.5960 cl        1 3Y5      0.025600
     31 N31        -3.0420    2.6950    5.1760 na        1 3Y5      0.005500
     32 C32        -4.0620    3.5220    5.6960 cc        1 3Y5      0.460400
     33 N33        -5.1810    3.2310    4.9680 nd        1 3Y5     -0.314000
     34 N34        -4.8350    2.3050    4.0840 nd        1 3Y5     -0.036000
     35 N35        -3.5980    1.9760    4.1720 nc        1 3Y5     -0.383800
     36 C36         3.7950   -0.3330    0.8980 ca        1 3Y5     -0.200900
     37 C37         2.8310    0.6890    1.2190 ca        1 3Y5     -0.063200
     38 N38         3.5130    1.7040    1.9410 na        1 3Y5      0.009900
     39 N39         4.8490    1.4480    1.9620 nc        1 3Y5     -0.593100
     40 C40         5.0820    0.2300    1.3910 cd        1 3Y5      0.593800
     41 N41         6.3040   -0.3680    1.1920 nh        1 3Y5     -0.874800
     42 H53         4.1330   -2.2850    0.0130 ha        1 3Y5      0.163000
     43 H52         0.7440    1.2970    1.1340 ha        1 3Y5      0.122000
     44 H54         1.7190   -2.5980   -0.5290 ha        1 3Y5      0.150000
     45 H56        -0.8440   -0.7000    5.5110 hx        1 3Y5      0.130700
     46 H57        -2.5160    0.0130    5.6530 hx        1 3Y5      0.130700
     47 H59         0.7830    4.7980    6.6340 ha        1 3Y5      0.198000
     48 H42        -6.2260    1.4780    0.9090 ha        1 3Y5      0.138500
     49 H43        -6.6390   -2.8380    0.7670 ha        1 3Y5      0.138500
     50 H44        -8.8240   -2.6600    1.9440 ha        1 3Y5      0.167000
     51 H45        -9.7080   -0.4210    2.6190 ha        1 3Y5      0.170000
     52 H46        -8.3940    1.6440    2.1110 ha        1 3Y5      0.167000
     53 H48        -4.7900    0.1520   -0.5210 hc        1 3Y5      0.100700
     54 H47        -5.0470   -1.6400   -0.6880 hc        1 3Y5      0.100700
     55 H49        -3.9710   -2.1270    1.4620 hx        1 3Y5      0.136700
     56 H50        -4.7900    0.0250    2.4630 hn        1 3Y5      0.506800
     57 H51        -2.9490   -1.5620   -1.7370 hn        1 3Y5      0.341700
     58 H55        -0.9720   -0.7580    3.3180 hn        1 3Y5      0.500300
     59 H58        -1.6090    4.7960    6.0190 ha        1 3Y5      0.177000
     60 H60         1.0530    0.5670    5.7300 ha        1 3Y5      0.174000
     61 H61        -3.9550    4.2320    6.5290 h5        1 3Y5      0.128100
     62 H62         3.2920    2.6630    1.7430 hn        1 3Y5      0.289700
     63 H63         7.0920    0.0350    1.6490 hn        1 3Y5      0.431800
     64 H64         6.2940   -1.3590    1.1280 hn        1 3Y5      0.431800
     65 H92        -3.4360    0.7970    1.8220 hn        1 3Y5      0.506800
     66 H212       -1.5020    0.8130    3.1510 hn        1 3Y5      0.500300
@<TRIPOS>BOND
     1    1    2 1   
     2    1   21 2   
     3    2    5 1   
     4    2   10 2   
     5    3    6 ar  
     6    3   36 ar  
     7    3   42 1   
     8    4    5 ar  
     9    4   37 ar  
    10    4   43 1   
    11    5    6 ar  
    12    6   44 1   
    13    7   20 1   
    14    7   24 1   
    15    7   25 2   
    16    8    9 1   
    17    8   24 1   
    18    8   45 1   
    19    8   46 1   
    20    9   26 ar  
    21    9   29 ar  
    22   10   22 1   
    23   10   23 1   
    24   11   27 ar  
    25   11   28 ar  
    26   11   47 1   
    27   12   13 ar  
    28   12   17 ar  
    29   12   48 1   
    30   13   14 ar  
    31   13   18 1   
    32   14   15 ar  
    33   14   49 1   
    34   15   16 ar  
    35   15   50 1   
    36   16   17 ar  
    37   16   51 1   
    38   17   52 1   
    39   18   19 1   
    40   18   53 1   
    41   18   54 1   
    42   19   20 1   
    43   19   21 1   
    44   19   55 1   
    45   20   56 1   
    46   20   65 1   
    47   21   22 1   
    48   22   57 1   
    49   24   58 1   
    50   24   66 1   
    51   26   27 ar  
    52   26   31 1   
    53   27   59 1   
    54   28   29 ar  
    55   28   30 1   
    56   29   60 1   
    57   31   32 1   
    58   31   35 1   
    59   32   33 2   
    60   32   61 1   
    61   33   34 1   
    62   34   35 2   
    63   36   37 ar  
    64   36   40 1   
    65   37   38 1   
    66   38   39 1   
    67   38   62 1   
    68   39   40 2   
    69   40   41 1   
    70   41   63 1   
    71   41   64 1   
@<TRIPOS>SUBSTRUCTURE
     1 3Y5         1 TEMP              0 ****  ****    0 ROOT
