@<TRIPOS>MOLECULE
3Y5
   66    71     1     0     0
SMALL
bcc


@<TRIPOS>ATOM
      1 N14        -1.3250   -0.8400    0.9660 nc        1 3Y5     -0.778000
      2 C13        -0.3110   -0.9860    0.0350 cc        1 3Y5      0.425800
      3 C18         3.3710   -1.6830    0.3650 ca        1 3Y5     -0.040000
      4 C17         1.5000    0.3970    0.9560 ca        1 3Y5     -0.144000
      5 C16         1.0990   -0.7990    0.3470 ca        1 3Y5     -0.128500
      6 C19         2.0180   -1.8210    0.0500 ca        1 3Y5     -0.137000
      7 C20        -3.0600   -0.5830    3.3140 c         1 3Y5      0.544100
      8 C23        -1.5500    0.1820    5.1540 c3        1 3Y5      0.195100
      9 C24        -0.9110    1.4930    5.4460 ca        1 3Y5     -0.172300
     10 C12        -0.8900   -1.3290   -1.2280 cd        1 3Y5     -0.065200
     11 C27         0.3670    3.8640    6.2570 ca        1 3Y5     -0.052000
     12 C1         -6.7470    0.6810    1.1130 ca        1 3Y5     -0.130000
     13 C2         -6.2760   -0.5940    0.7670 ca        1 3Y5     -0.193300
     14 C3         -7.0540   -1.7220    1.0580 ca        1 3Y5     -0.130000
     15 C4         -8.2850   -1.5760    1.6970 ca        1 3Y5     -0.105000
     16 C5         -8.7480   -0.3060    2.0450 ca        1 3Y5     -0.083000
     17 C6         -7.9780    0.8220    1.7510 ca        1 3Y5     -0.105000
     18 C7         -4.9910   -0.7390    0.0340 c3        1 3Y5     -0.054100
     19 C8         -3.8350   -1.0700    0.9880 c3        1 3Y5      0.147200
     20 N9         -3.8030   -0.0510    2.1390 ny        1 3Y5     -0.639800
     21 C10        -2.5010   -1.0790    0.3090 cd        1 3Y5      0.282800
     22 N11        -2.2720   -1.3700   -1.0350 na        1 3Y5     -0.239900
     23 Cl         -0.1580   -1.6270   -2.6870 cl        1 3Y5      0.085600
     24 N21        -1.7080   -0.0520    3.6550 ny        1 3Y5     -0.625800
     25 O22        -3.5630   -1.4640    3.9970 o         1 3Y5     -0.345100
     26 C25        -1.6310    2.7140    5.4900 ca        1 3Y5      0.015800
     27 C26        -0.9780    3.8920    5.9000 ca        1 3Y5     -0.110000
     28 C28         1.0890    2.6650    6.1940 ca        1 3Y5      0.030400
     29 C29         0.4470    1.4890    5.7880 ca        1 3Y5     -0.076000
     30 Cl2         2.7190    2.6310    6.6060 cl        1 3Y5      0.025600
     31 N31        -3.0040    2.7810    5.1190 na        1 3Y5      0.005500
     32 C32        -4.0060    3.6450    5.6130 cc        1 3Y5      0.460400
     33 N33        -5.1250    3.3740    4.8760 nd        1 3Y5     -0.314000
     34 N34        -4.7950    2.4240    4.0120 nd        1 3Y5     -0.036000
     35 N35        -3.5700    2.0600    4.1210 nc        1 3Y5     -0.383800
     36 C36         3.7900   -0.5130    0.9750 ca        1 3Y5     -0.200900
     37 C37         2.8510    0.5410    1.2680 ca        1 3Y5     -0.063200
     38 N38         3.5530    1.5480    1.9810 na        1 3Y5      0.009900
     39 N39         4.8820    1.2540    2.0230 nc        1 3Y5     -0.593100
     40 C40         5.0860    0.0210    1.4740 cd        1 3Y5      0.593800
     41 N41         6.2930   -0.6130    1.3000 nv        1 3Y5     -0.874800
     42 H53         4.0830   -2.4880    0.1260 ha        1 3Y5      0.163000
     43 H52         0.7840    1.2060    1.1470 ha        1 3Y5      0.122000
     44 H54         1.6680   -2.7420   -0.4400 ha        1 3Y5      0.150000
     45 H56        -0.9090   -0.6700    5.5380 hx        1 3Y5      0.130700
     46 H57        -2.5620    0.0930    5.6480 hx        1 3Y5      0.130700
     47 H59         0.8640    4.7970    6.5860 ha        1 3Y5      0.198000
     48 H42        -6.1750    1.5800    0.8360 ha        1 3Y5      0.138500
     49 H43        -6.7070   -2.7250    0.7630 ha        1 3Y5      0.138500
     50 H44        -8.9000   -2.4660    1.9120 ha        1 3Y5      0.167000
     51 H45        -9.7280   -0.1920    2.5370 ha        1 3Y5      0.170000
     52 H46        -8.3510    1.8270    2.0100 ha        1 3Y5      0.167000
     53 H48        -5.0660   -1.5970   -0.6940 hc        1 3Y5      0.100700
     54 H47        -4.7620    0.1900   -0.5540 hc        1 3Y5      0.100700
     55 H49        -4.0290   -2.0770    1.4770 hx        1 3Y5      0.136700
     56 H50        -3.4150    0.8370    1.7930 hn        1 3Y5      0.506800
     57 H51        -2.9560   -1.5970   -1.7190 hn        1 3Y5      0.341700
     58 H55        -1.0150   -0.7630    3.3450 hn        1 3Y5      0.500300
     59 H58        -1.5210    4.8540    5.9420 ha        1 3Y5      0.177000
     60 H60         1.0210    0.5450    5.7580 ha        1 3Y5      0.174000
     61 H61        -3.8870    4.3660    6.4350 h5        1 3Y5      0.128100
     62 H62         3.3620    2.5100    1.7640 hn        1 3Y5      0.289700
     63 H63         7.0870   -0.2260    1.7590 hn        1 3Y5      0.431800
     64 H64         6.2560   -1.6050    1.2520 hn        1 3Y5      0.431800
     65 H92        -4.7980    0.1160    2.4310 hn        1 3Y5      0.506800
     66 H212       -1.4970    0.8200    3.1450 hn        1 3Y5      0.500300
@<TRIPOS>BOND
     1    1    2 1   
     2    1   21 2   
     3    2    5 1   
     4    2   10 2   
     5    3    6 ar  
     6    3   36 ar  
     7    3   42 1   
     8    4    5 ar  
     9    4   37 ar  
    10    4   43 1   
    11    5    6 ar  
    12    6   44 1   
    13    7   20 1   
    14    7   24 1   
    15    7   25 2   
    16    8    9 1   
    17    8   24 1   
    18    8   45 1   
    19    8   46 1   
    20    9   26 ar  
    21    9   29 ar  
    22   10   22 1   
    23   10   23 1   
    24   11   27 ar  
    25   11   28 ar  
    26   11   47 1   
    27   12   13 ar  
    28   12   17 ar  
    29   12   48 1   
    30   13   14 ar  
    31   13   18 1   
    32   14   15 ar  
    33   14   49 1   
    34   15   16 ar  
    35   15   50 1   
    36   16   17 ar  
    37   16   51 1   
    38   17   52 1   
    39   18   19 1   
    40   18   53 1   
    41   18   54 1   
    42   19   20 1   
    43   19   21 1   
    44   19   55 1   
    45   20   56 1   
    46   20   65 1   
    47   21   22 1   
    48   22   57 1   
    49   24   58 1   
    50   24   66 1   
    51   26   27 ar  
    52   26   31 1   
    53   27   59 1   
    54   28   29 ar  
    55   28   30 1   
    56   29   60 1   
    57   31   32 1   
    58   31   35 1   
    59   32   33 2   
    60   32   61 1   
    61   33   34 1   
    62   34   35 2   
    63   36   37 ar  
    64   36   40 1   
    65   37   38 1   
    66   38   39 1   
    67   38   62 1   
    68   39   40 2   
    69   40   41 1   
    70   41   63 1   
    71   41   64 1   
@<TRIPOS>SUBSTRUCTURE
     1 3Y5         1 TEMP              0 ****  ****    0 ROOT
