@<TRIPOS>MOLECULE
3YH
   54    57     1     0     0
SMALL
bcc


@<TRIPOS>ATOM
      1 N1         -0.7370    1.7460   -0.3990 n2        1 3YH     -0.667100
      2 C2          0.0290    0.7610   -0.1980 ce        1 3YH      0.630800
      3 N3         -0.1620   -0.3100    0.8830 nz        1 3YH     -0.890600
      4 C4          1.2480    0.4610   -0.9860 ca        1 3YH     -0.225900
      5 C5          2.5130    0.5700   -0.3910 ca        1 3YH     -0.092000
      6 C6          3.6470    0.3050   -1.1510 ca        1 3YH     -0.119000
      7 C7          3.5310   -0.0670   -2.4930 ca        1 3YH     -0.039000
      8 C8          2.2680   -0.1610   -3.0890 ca        1 3YH     -0.132500
      9 C9          1.1170    0.1120   -2.3330 ca        1 3YH     -0.039000
     10 C10         2.1150   -0.5970   -4.4720 cc        1 3YH      0.400800
     11 C11         2.8570   -0.1780   -5.6700 cc        1 3YH     -0.385200
     12 C12         3.9720    0.7750   -5.7790 c         1 3YH      0.726700
     13 O13         4.8770    0.8480   -4.9310 o         1 3YH     -0.573100
     14 N14         3.9520    1.5680   -6.9290 ns        1 3YH     -0.468100
     15 C15         4.8930    2.5290   -7.3130 ca        1 3YH      0.109600
     16 C16         4.6080    3.3330   -8.4470 ca        1 3YH     -0.173000
     17 C17         5.5080    4.2960   -8.8800 ca        1 3YH     -0.073500
     18 C18         6.7250    4.4900   -8.2110 cp        1 3YH     -0.209000
     19 C19         7.0090    3.7050   -7.0840 ca        1 3YH     -0.073500
     20 C20         6.1230    2.7310   -6.6440 ca        1 3YH     -0.173000
     21 C21         7.6300    5.5860   -8.5780 cp        1 3YH      0.125000
     22 C22         7.7600    6.6540   -7.6860 ca        1 3YH     -0.145000
     23 C23         8.6160    7.7190   -7.9660 ca        1 3YH      0.003000
     24 C24         9.3720    7.7120   -9.1430 ca        1 3YH     -0.139000
     25 C25         9.2560    6.6530  -10.0270 ca        1 3YH      0.000000
     26 C26         8.3770    5.5680   -9.7820 ca        1 3YH     -0.532500
     27 S27         8.2690    4.4410  -10.9220 sy        1 3YH      1.491200
     28 O28         7.0070    4.0270  -11.2860 o         1 3YH     -0.571300
     29 O29         9.2770    4.4860  -11.8640 o         1 3YH     -0.571300
     30 N30         8.8370    2.9500   -9.8850 nz        1 3YH     -0.785500
     31 N39         1.1880   -1.5100   -4.8520 nd        1 3YH     -0.335300
     32 O40         1.2780   -1.7130   -6.1480 os        1 3YH     -0.070100
     33 C41         2.2860   -0.9150   -6.6980 cd        1 3YH      0.313600
     34 HN1        -1.5630    1.9380    0.1240 hn        1 3YH      0.469400
     35 HN3        -0.9030   -0.0780    1.5490 hn        1 3YH      0.460133
     36 HN3A       -0.3900   -1.1990    0.4260 hn        1 3YH      0.460133
     37 H5          2.6180    0.8860    0.6590 ha        1 3YH      0.143000
     38 H6          4.6470    0.3910   -0.6940 ha        1 3YH      0.170000
     39 H7          4.4410   -0.2790   -3.0860 ha        1 3YH      0.190000
     40 H9          0.1200    0.0540   -2.8000 ha        1 3YH      0.167000
     41 HN14        3.1310    1.5200   -7.4960 hn        1 3YH      0.331500
     42 H16         3.6600    3.2140   -8.9980 ha        1 3YH      0.173000
     43 H17         5.2560    4.9080   -9.7640 ha        1 3YH      0.157000
     44 H19         7.9390    3.8770   -6.5170 ha        1 3YH      0.157000
     45 H20         6.3840    2.1350   -5.7520 ha        1 3YH      0.173000
     46 H22         7.1680    6.6550   -6.7550 ha        1 3YH      0.173000
     47 H23         8.6980    8.5640   -7.2600 ha        1 3YH      0.175000
     48 H24        10.0570    8.5490   -9.3680 ha        1 3YH      0.181000
     49 H25         9.8640    6.6550  -10.9540 ha        1 3YH      0.179000
     50 HN30        8.3000    2.1210  -10.1330 hn        1 3YH      0.458133
     51 HN3B        8.7080    3.1130   -8.8870 hn        1 3YH      0.458133
     52 H41         2.4390   -1.0300   -7.7700 h4        1 3YH      0.087100
     53 H33         0.7220   -0.4240    1.3910 hn        1 3YH      0.460133
     54 H303        9.8200    2.7430  -10.0530 hn        1 3YH      0.458133
@<TRIPOS>BOND
     1    1    2 2   
     2    1   34 1   
     3    2    3 1   
     4    2    4 1   
     5    3   35 1   
     6    3   36 1   
     7    3   53 1   
     8    4    5 ar  
     9    4    9 ar  
    10    5    6 ar  
    11    5   37 1   
    12    6    7 ar  
    13    6   38 1   
    14    7    8 ar  
    15    7   39 1   
    16    8    9 ar  
    17    8   10 1   
    18    9   40 1   
    19   10   11 1   
    20   10   31 2   
    21   11   12 1   
    22   11   33 2   
    23   12   13 2   
    24   12   14 1   
    25   14   15 1   
    26   14   41 1   
    27   15   16 ar  
    28   15   20 ar  
    29   16   17 ar  
    30   16   42 1   
    31   17   18 ar  
    32   17   43 1   
    33   18   19 ar  
    34   18   21 1   
    35   19   20 ar  
    36   19   44 1   
    37   20   45 1   
    38   21   22 ar  
    39   21   26 ar  
    40   22   23 ar  
    41   22   46 1   
    42   23   24 ar  
    43   23   47 1   
    44   24   25 ar  
    45   24   48 1   
    46   25   26 ar  
    47   25   49 1   
    48   26   27 1   
    49   27   28 2   
    50   27   29 2   
    51   27   30 1   
    52   30   50 1   
    53   30   51 1   
    54   30   54 1   
    55   31   32 1   
    56   32   33 1   
    57   33   52 1   
@<TRIPOS>SUBSTRUCTURE
     1 3YH         1 TEMP              0 ****  ****    0 ROOT
