@<TRIPOS>MOLECULE
3YH
   52    41     1     0     0
SMALL
bcc


@<TRIPOS>ATOM
      1 N1         -2.8740   -1.4110    5.1140 n1        1 3YH     -0.299000
      2 C2         -2.6970   -2.6880    4.8900 c1        1 3YH      0.134000
      3 N3         -3.1420   -3.6440    5.8420 n2        1 3YH     -0.679500
      4 C4         -2.0170   -3.1470    3.6160 c2        1 3YH     -0.056000
      5 C5         -0.7230   -3.6420    3.6610 c2        1 3YH     -0.105000
      6 C6         -0.0990   -4.0580    2.4950 c1        1 3YH     -0.131000
      7 C7         -0.7690   -3.9780    1.2840 c1        1 3YH     -0.081500
      8 C8         -2.0630   -3.4830    1.2380 c1        1 3YH     -0.096000
      9 C9         -2.6870   -3.0670    2.4050 c1        1 3YH     -0.052000
     10 C10        -2.7690   -3.4990    0.0440 c1        1 3YH     -0.041000
     11 C11        -2.6450   -2.5870   -0.9840 c1        1 3YH     -0.235000
     12 C12        -1.6650   -1.4340   -1.0370 c1        1 3YH      0.387000
     13 O13        -0.8930   -1.2500   -0.1160 o         1 3YH     -0.349000
     14 N14        -1.6050   -0.6040   -2.1900 n3        1 3YH     -0.317000
     15 C15        -0.6440    0.4400   -2.2650 c2        1 3YH      0.092000
     16 C16        -0.9870    1.7270   -1.8800 c2        1 3YH     -0.185000
     17 C17        -0.0400    2.7390   -1.9230 c1        1 3YH     -0.065000
     18 C18         1.2500    2.4640   -2.3520 c1        1 3YH     -0.096000
     19 C19         1.5920    1.1770   -2.7370 c1        1 3YH     -0.081500
     20 C20         0.6450    0.1650   -2.6940 c1        1 3YH     -0.154000
     21 C21         2.2020    3.4720   -2.3770 c1        1 3YH      0.096000
     22 C22         2.2200    4.3830   -3.4230 c1        1 3YH     -0.103500
     23 C23         3.2000    5.3610   -3.4730 c1        1 3YH     -0.103500
     24 C24         4.1630    5.4300   -2.4780 c1        1 3YH     -0.103500
     25 C25         4.1460    4.5190   -1.4330 c1        1 3YH     -0.103500
     26 C26         3.1650    3.5400   -1.3820 c1        1 3YH     -0.790000
     27 S27         3.1290    2.3890   -0.0300 s4        1 3YH      2.075800
     28 O28         1.7910    1.9350    0.2320 o         1 3YH     -0.540900
     29 O29         3.7790    1.1550   -0.3780 o         1 3YH     -0.540900
     30 N30         3.8050    3.0620    1.3090 n2        1 3YH     -0.679500
     31 N39        -3.6890   -4.4170   -0.3210 n2        1 3YH     -0.007000
     32 O40        -4.1510   -4.0820   -1.5880 os        1 3YH     -0.052000
     33 C41        -3.5060   -2.9590   -1.9860 c1        1 3YH      0.001000
     34 HN1        -3.2840   -1.1340    5.8820 DU        1 3YH      0.180500
     35 HN3        -2.6080   -4.3510    6.0630 hn        1 3YH      0.221000
     36 HN3A       -3.9540   -3.5400    6.2490 hn        1 3YH      0.221000
     37 H5         -0.2520   -3.6980    4.5140 ha        1 3YH      0.137000
     38 H6          0.8120   -4.4060    2.5270 ha        1 3YH      0.149000
     39 H7         -0.3290   -4.2700    0.4630 ha        1 3YH      0.158000
     40 H9         -3.5980   -2.7190    2.3730 ha        1 3YH      0.165000
     41 HN14       -2.2070   -0.7190   -2.8660 hn        1 3YH      0.245000
     42 H16        -1.8950    1.9210   -1.5780 ha        1 3YH      0.138000
     43 H17        -0.2810    3.6450   -1.6520 ha        1 3YH      0.138000
     44 H19         2.5000    0.9830   -3.0390 ha        1 3YH      0.158000
     45 H20         0.8860   -0.7420   -2.9650 ha        1 3YH      0.175000
     46 H22         1.5420    4.3340   -4.1230 ha        1 3YH      0.139000
     47 H23         3.2120    6.0020   -4.2090 ha        1 3YH      0.139000
     48 H24         4.8540    6.1190   -2.5140 ha        1 3YH      0.139000
     49 H25         4.8240    4.5680   -0.7330 ha        1 3YH      0.139000
     50 HN30        4.4430    3.7100    1.2220 hn        1 3YH      0.221000
     51 HN3B        3.5450    2.7840    2.1410 hn        1 3YH      0.221000
     52 H41        -3.6320   -2.4960   -2.8370 DU        1 3YH      0.180500
@<TRIPOS>BOND
     1    1    2 1   
     2    2    4 1   
     3    3   35 1   
     4    3   36 1   
     5    4    5 1   
     6    4    9 1   
     7    5    6 1   
     8    5   37 1   
     9    6   38 1   
    10    7    8 1   
    11    7   39 1   
    12    9   40 1   
    13   10   11 1   
    14   10   31 1   
    15   11   33 1   
    16   12   13 1   
    17   12   14 1   
    18   14   15 1   
    19   14   41 1   
    20   15   16 1   
    21   15   20 1   
    22   16   17 1   
    23   16   42 1   
    24   17   43 1   
    25   18   19 1   
    26   19   44 1   
    27   20   45 1   
    28   21   26 1   
    29   22   23 1   
    30   22   46 1   
    31   23   47 1   
    32   24   25 1   
    33   24   48 1   
    34   25   49 1   
    35   26   27 1   
    36   27   28 1   
    37   27   29 1   
    38   30   50 1   
    39   30   51 1   
    40   31   32 1   
    41   32   33 1   
@<TRIPOS>SUBSTRUCTURE
     1 3YH         1 TEMP              0 ****  ****    0 ROOT
