@<TRIPOS>MOLECULE
3YH
   55    58     1     0     0
SMALL
bcc


@<TRIPOS>ATOM
      1 N1         -1.4870   -0.4610   -0.8640 n2        1 3YH     -0.662100
      2 C2         -0.3750   -0.9540   -0.5150 ce        1 3YH      0.615800
      3 N3         -0.1800   -2.1150    0.4570 n4        1 3YH     -0.882600
      4 C4          0.9330   -0.4620   -1.0240 ca        1 3YH     -0.204900
      5 C5          1.8750    0.0840   -0.1430 ca        1 3YH     -0.074000
      6 C6          3.0760    0.5800   -0.6460 ca        1 3YH     -0.110000
      7 C7          3.3380    0.5450   -2.0170 ca        1 3YH     -0.052000
      8 C8          2.3860    0.0210   -2.9010 ca        1 3YH     -0.170500
      9 C9          1.1750   -0.4890   -2.4020 ca        1 3YH     -0.027000
     10 C10         2.6540   -0.0750   -4.3310 cc        1 3YH      0.439800
     11 C11         3.1900    0.9440   -5.2590 cc        1 3YH     -0.457200
     12 C12         3.6310    2.2720   -4.9300 c         1 3YH      0.628700
     13 O13         4.2260    2.6810   -3.9450 o         1 3YH     -0.409100
     14 N14         3.2550    3.3540   -5.9490 n4        1 3YH     -0.553200
     15 C15         4.3760    3.8040   -6.7820 ca        1 3YH     -0.040400
     16 C16         4.2750    3.7230   -8.1840 ca        1 3YH     -0.090500
     17 C17         5.2990    4.2370   -8.9750 ca        1 3YH     -0.078500
     18 C18         6.4290    4.8290   -8.3890 cp        1 3YH     -0.039000
     19 C19         6.5280    4.8890   -6.9930 ca        1 3YH     -0.078500
     20 C20         5.5120    4.3780   -6.1850 ca        1 3YH     -0.090500
     21 C21         7.4340    5.4820   -9.2490 cp        1 3YH      0.091000
     22 C22         7.2990    6.8600   -9.4330 ca        1 3YH     -0.135000
     23 C23         8.1360    7.5560  -10.3100 ca        1 3YH      0.017000
     24 C24         9.1160    6.8610  -11.0260 ca        1 3YH     -0.117000
     25 C25         9.2650    5.4980  -10.8320 ca        1 3YH     -0.021000
     26 C26         8.4570    4.7680   -9.9220 ca        1 3YH     -0.518500
     27 S27         8.7450    3.1860   -9.8080 sy        1 3YH      1.483200
     28 O28         8.0510    2.5260   -8.8120 o         1 3YH     -0.566300
     29 O29         9.0510    2.5580  -10.9930 o         1 3YH     -0.566300
     30 N30        10.4810    3.2780   -9.0350 n4        1 3YH     -0.793500
     31 N39         2.4060   -1.1920   -5.0530 nd        1 3YH     -0.297300
     32 O40         2.7380   -0.9870   -6.3150 os        1 3YH     -0.034100
     33 C41         3.2180    0.2990   -6.4970 cd        1 3YH      0.365600
     34 HN1        -2.3770   -0.7770   -0.5400 hn        1 3YH      0.480400
     35 HN3        -1.0440   -2.3650    0.9490 hn        1 3YH      0.467133
     36 HN3A        0.5330   -1.8590    1.1490 hn        1 3YH      0.467133
     37 H5          1.6750    0.1490    0.9390 ha        1 3YH      0.156000
     38 H6          3.8270    1.0030    0.0440 ha        1 3YH      0.181000
     39 H7          4.3010    0.9280   -2.3960 ha        1 3YH      0.167000
     40 H9          0.4200   -0.9030   -3.0910 ha        1 3YH      0.173000
     41 HN14        2.4990    3.0080   -6.5520 hn        1 3YH      0.472300
     42 H16         3.3910    3.2840   -8.6780 ha        1 3YH      0.174500
     43 H17         5.1960    4.1980  -10.0740 ha        1 3YH      0.177000
     44 H19         7.4040    5.3600   -6.5150 ha        1 3YH      0.177000
     45 H20         5.6100    4.4420   -5.0860 ha        1 3YH      0.174500
     46 H22         6.5080    7.4100   -8.8920 ha        1 3YH      0.177000
     47 H23         8.0120    8.6460  -10.4470 ha        1 3YH      0.193000
     48 H24         9.7610    7.3960  -11.7480 ha        1 3YH      0.197000
     49 H25        10.0230    4.9560  -11.4320 ha        1 3YH      0.168000
     50 HN30       10.4980    2.8260   -8.1210 hn        1 3YH      0.465467
     51 HN3B       10.8160    4.2320   -8.9160 hn        1 3YH      0.465467
     52 H41         3.5370    0.5420   -7.5130 h4        1 3YH      0.095100
     53 H33         0.1520   -2.9350   -0.0640 hn        1 3YH      0.467133
     54 H142        2.9110    4.1750   -5.4260 hn        1 3YH      0.472300
     55 H303       11.1560    2.7880   -9.6270 hn        1 3YH      0.465467
@<TRIPOS>BOND
     1    1    2 2   
     2    1   34 1   
     3    2    3 1   
     4    2    4 1   
     5    3   35 1   
     6    3   36 1   
     7    3   53 1   
     8    4    5 ar  
     9    4    9 ar  
    10    5    6 ar  
    11    5   37 1   
    12    6    7 ar  
    13    6   38 1   
    14    7    8 ar  
    15    7   39 1   
    16    8    9 ar  
    17    8   10 1   
    18    9   40 1   
    19   10   11 1   
    20   10   31 2   
    21   11   12 1   
    22   11   33 2   
    23   12   13 2   
    24   12   14 1   
    25   14   15 1   
    26   14   41 1   
    27   14   54 1   
    28   15   16 ar  
    29   15   20 ar  
    30   16   17 ar  
    31   16   42 1   
    32   17   18 ar  
    33   17   43 1   
    34   18   19 ar  
    35   18   21 1   
    36   19   20 ar  
    37   19   44 1   
    38   20   45 1   
    39   21   22 ar  
    40   21   26 ar  
    41   22   23 ar  
    42   22   46 1   
    43   23   24 ar  
    44   23   47 1   
    45   24   25 ar  
    46   24   48 1   
    47   25   26 ar  
    48   25   49 1   
    49   26   27 1   
    50   27   28 2   
    51   27   29 2   
    52   27   30 1   
    53   30   50 1   
    54   30   51 1   
    55   30   55 1   
    56   31   32 1   
    57   32   33 1   
    58   33   52 1   
@<TRIPOS>SUBSTRUCTURE
     1 3YH         1 TEMP              0 ****  ****    0 ROOT
