@<TRIPOS>MOLECULE
3YH
   52    55     1     0     0
SMALL
bcc


@<TRIPOS>ATOM
      1 N1         -8.6030   -1.4500   -0.7990 n2        1 3YH     -0.832100
      2 C2         -7.5830   -2.0400   -0.2500 ce        1 3YH      0.641800
      3 N3         -7.7390   -3.1480    0.6030 nh        1 3YH     -0.895800
      4 C4         -6.1650   -1.5730   -0.3950 ca        1 3YH     -0.193900
      5 C5         -5.1980   -2.4120   -0.9550 ca        1 3YH     -0.096000
      6 C6         -3.8890   -1.9560   -1.1050 ca        1 3YH     -0.132000
      7 C7         -3.5410   -0.6710   -0.6940 ca        1 3YH     -0.081000
      8 C8         -4.5080    0.1740   -0.1310 ca        1 3YH     -0.141500
      9 C9         -5.8260   -0.2820    0.0170 ca        1 3YH     -0.064000
     10 C10        -4.1540    1.5220    0.2860 cc        1 3YH      0.422800
     11 C11        -2.8540    1.9940    0.7880 cc        1 3YH     -0.380200
     12 C12        -1.6350    1.2060    1.0440 c         1 3YH      0.710700
     13 O13        -1.6460    0.1570    1.7080 o         1 3YH     -0.557100
     14 N14        -0.4750    1.7510    0.4990 n         1 3YH     -0.474100
     15 C15         0.8290    1.2410    0.6020 ca        1 3YH      0.077600
     16 C16         1.8380    1.8040   -0.2190 ca        1 3YH     -0.175500
     17 C17         3.1480    1.3510   -0.1420 ca        1 3YH     -0.083500
     18 C18         3.4980    0.3270    0.7480 cp        1 3YH     -0.130000
     19 C19         2.5050   -0.2260    1.5670 ca        1 3YH     -0.083500
     20 C20         1.1870    0.2120    1.4980 ca        1 3YH     -0.175500
     21 C21         4.8880   -0.1210    0.8920 cp        1 3YH      0.086000
     22 C22         5.4920    0.0490    2.1470 ca        1 3YH     -0.149000
     23 C23         6.8080   -0.3490    2.3610 ca        1 3YH     -0.071000
     24 C24         7.5340   -0.9300    1.3210 ca        1 3YH     -0.152000
     25 C25         6.9330   -1.1090    0.0800 ca        1 3YH     -0.032000
     26 C26         5.6090   -0.7090   -0.1610 ca        1 3YH     -0.359500
     27 S27         5.0080   -0.9670   -1.7320 sy        1 3YH      1.526200
     28 O28         4.7640    0.2870   -2.3290 o         1 3YH     -0.662800
     29 O29         5.9060   -1.8130   -2.4240 o         1 3YH     -0.662800
     30 N30         3.6400   -1.7530   -1.4850 n3        1 3YH     -1.024700
     31 N39        -4.9990    2.5810    0.2610 nd        1 3YH     -0.350300
     32 O40        -4.3700    3.6540    0.7000 os        1 3YH     -0.099100
     33 C41        -3.0450    3.3420    1.0310 cd        1 3YH      0.292600
     34 HN1        -8.3750   -0.6160   -1.2960 hn        1 3YH      0.397400
     35 HN3        -8.6320   -3.5910    0.5830 hn        1 3YH      0.401800
     36 HN3A       -6.9720   -3.7800    0.5880 hn        1 3YH      0.401800
     37 H5         -5.4670   -3.4270   -1.2850 ha        1 3YH      0.136000
     38 H6         -3.1250   -2.6140   -1.5460 ha        1 3YH      0.141000
     39 H7         -2.5020   -0.3240   -0.8000 ha        1 3YH      0.139000
     40 H9         -6.5950    0.3690    0.4640 ha        1 3YH      0.160000
     41 HN14       -0.5800    2.5460   -0.0930 hn        1 3YH      0.322500
     42 H16         1.5980    2.6080   -0.9320 ha        1 3YH      0.158000
     43 H17         3.9150    1.7950   -0.8030 ha        1 3YH      0.160500
     44 H19         2.7700   -1.0210    2.2820 ha        1 3YH      0.160500
     45 H20         0.4330   -0.2540    2.1540 ha        1 3YH      0.158000
     46 H22         4.9140    0.5060    2.9650 ha        1 3YH      0.143000
     47 H23         7.2740   -0.2040    3.3480 ha        1 3YH      0.138000
     48 H24         8.5750   -1.2480    1.4810 ha        1 3YH      0.143000
     49 H25         7.5080   -1.5810   -0.7390 ha        1 3YH      0.166000
     50 HN30        2.8310   -1.3420   -1.0890 hn        1 3YH      0.451300
     51 HN3B        3.5280   -2.7160   -1.6810 hn        1 3YH      0.451300
     52 H41        -2.4500    4.1660    1.4140 h4        1 3YH      0.074100
@<TRIPOS>BOND
     1    1    2 2   
     2    1   34 1   
     3    2    3 1   
     4    2    4 1   
     5    3   35 1   
     6    3   36 1   
     7    4    5 ar  
     8    4    9 ar  
     9    5    6 ar  
    10    5   37 1   
    11    6    7 ar  
    12    6   38 1   
    13    7    8 ar  
    14    7   39 1   
    15    8    9 ar  
    16    8   10 1   
    17    9   40 1   
    18   10   11 1   
    19   10   31 2   
    20   11   12 1   
    21   11   33 2   
    22   12   13 2   
    23   12   14 1   
    24   14   15 1   
    25   14   41 1   
    26   15   16 ar  
    27   15   20 ar  
    28   16   17 ar  
    29   16   42 1   
    30   17   18 ar  
    31   17   43 1   
    32   18   19 ar  
    33   18   21 1   
    34   19   20 ar  
    35   19   44 1   
    36   20   45 1   
    37   21   22 ar  
    38   21   26 ar  
    39   22   23 ar  
    40   22   46 1   
    41   23   24 ar  
    42   23   47 1   
    43   24   25 ar  
    44   24   48 1   
    45   25   26 ar  
    46   25   49 1   
    47   26   27 1   
    48   27   28 2   
    49   27   29 2   
    50   27   30 1   
    51   30   50 1   
    52   30   51 1   
    53   31   32 1   
    54   32   33 1   
    55   33   52 1   
@<TRIPOS>SUBSTRUCTURE
     1 3YH         1 TEMP              0 ****  ****    0 ROOT
