@<TRIPOS>MOLECULE
3YM
   27    24     1     0     0
SMALL
bcc


@<TRIPOS>ATOM
      1 CAN        -0.4330   -1.4720   -3.7420 c3        1 3YM      0.117700
      2 OAM        -0.2340   -0.2120   -3.1400 os        1 3YM     -0.316400
      3 CAJ         0.3680   -0.2790   -1.8740 c1        1 3YM      0.042600
      4 CD2        -0.4040   -0.2030   -0.7480 c1        1 3YM     -0.056500
      5 CAK         1.7760   -0.2790   -1.7640 c1        1 3YM      0.049600
      6 OAL         2.5480   -0.1910   -2.8910 oh        1 3YM     -0.493600
      7 CAI         2.3780   -0.2030   -0.5110 c1        1 3YM     -0.090500
      8 CD1         1.5840   -0.1250    0.6500 c1        1 3YM     -0.090500
      9 CG          0.2180   -0.1250    0.5470 c1        1 3YM     -0.018100
     10 CB         -0.6630   -0.1680    1.8330 c3        1 3YM     -0.066300
     11 CA         -1.1400    1.2320    2.1750 c3        1 3YM      0.020500
     12 C          -2.5860    1.1870    2.4910 c         1 3YM      0.887600
     13 O          -3.3900    2.0040    1.9280 o         1 3YM     -0.840800
     14 N          -0.4160    1.7200    3.3170 n3        1 3YM     -0.889800
     15 H1         -1.0790   -2.0280   -3.1690 h1        1 3YM      0.033700
     16 H11         0.4610   -1.9580   -3.8240 h1        1 3YM      0.033700
     17 H3         -0.8010   -1.3520   -4.5930 h1        1 3YM      0.033700
     18 H4         -1.3320   -0.3150   -0.8130 ha        1 3YM      0.096500
     19 H5          3.2680   -0.8710   -2.8510 ho        1 3YM      0.406000
     20 H6          3.3260   -0.2040   -0.4390 ha        1 3YM      0.075000
     21 H7          2.0140   -0.1270    1.5450 ha        1 3YM      0.075000
     22 H8         -1.4560   -0.7540    1.6670 hc        1 3YM      0.060200
     23 H9         -0.1250   -0.5360    2.6030 hc        1 3YM      0.060200
     24 H10        -0.9950    1.8030    1.4370 h1        1 3YM      0.047700
     25 H          -0.2210    1.0380    3.8630 hn        1 3YM      0.330300
     26 H2          0.3680    2.1260    3.0360 hn        1 3YM      0.330300
     27 OXT        -3.0340    0.2910    3.2670 o         1 3YM     -0.840800
@<TRIPOS>BOND
     1    1    2 1   
     2    1   15 1   
     3    1   16 1   
     4    1   17 1   
     5    2    3 1   
     6    3    5 3   
     7    4    9 3   
     8    4   18 1   
     9    5    6 1   
    10    6   19 1   
    11    7    8 3   
    12    7   20 1   
    13    8   21 1   
    14    9   10 1   
    15   10   11 1   
    16   10   22 1   
    17   10   23 1   
    18   11   12 1   
    19   11   14 1   
    20   11   24 1   
    21   12   13 1   
    22   12   27 1   
    23   14   25 1   
    24   14   26 1   
@<TRIPOS>SUBSTRUCTURE
     1 3YM         1 TEMP              0 ****  ****    0 ROOT
