@<TRIPOS>MOLECULE
3YM
   27    27     1     0     0
SMALL
bcc


@<TRIPOS>ATOM
      1 CAN        -2.4290    2.6940   -0.6640 c3        1 3YM      0.121700
      2 OAM        -3.0970    1.5260   -0.1990 os        1 3YM     -0.362900
      3 CAJ        -2.2670    0.4480    0.0880 ca        1 3YM      0.033100
      4 CD2        -0.9000    0.5520    0.3410 ca        1 3YM     -0.155000
      5 CAK        -2.9090   -0.8080    0.1400 ca        1 3YM      0.078100
      6 OAL        -4.2620   -0.9650   -0.0830 oh        1 3YM     -0.514100
      7 CAI        -2.1650   -1.9520    0.4490 ca        1 3YM     -0.141000
      8 CD1        -0.7990   -1.8380    0.6970 ca        1 3YM     -0.129000
      9 CG         -0.1560   -0.5960    0.6460 ca        1 3YM     -0.030300
     10 CB          1.3000   -0.4680    0.9260 c3        1 3YM     -0.035100
     11 CA          2.1160   -0.1030   -0.3210 c3        1 3YM      0.022500
     12 C           3.4560    0.5580    0.1510 c         1 3YM      0.886600
     13 O           4.5380    0.1100   -0.3220 o         1 3YM     -0.840800
     14 N           2.2830   -1.2170   -1.2440 n3        1 3YM     -0.886800
     15 H1         -1.8810    3.1830    0.1780 h1        1 3YM      0.041367
     16 H11        -1.7240    2.4500   -1.4950 h1        1 3YM      0.041367
     17 H3         -3.2600    3.3500   -1.0250 h1        1 3YM      0.041367
     18 H4         -0.3870    1.5250    0.2980 ha        1 3YM      0.153000
     19 H5         -4.6060   -0.1110   -0.3830 ho        1 3YM      0.423000
     20 H6         -2.6700   -2.9260    0.4850 ha        1 3YM      0.134000
     21 H7         -0.2140   -2.7410    0.9250 ha        1 3YM      0.132000
     22 H8          1.4630    0.3600    1.6730 hc        1 3YM      0.061200
     23 H9          1.6900   -1.4160    1.3810 hc        1 3YM      0.061200
     24 H10         1.5540    0.6990   -0.8840 h1        1 3YM      0.041700
     25 H           2.9790   -0.9410   -1.9170 hn        1 3YM      0.331300
     26 H2          2.6760   -1.9930   -0.7400 hn        1 3YM      0.331300
     27 OXT         3.3710    1.5220    0.9620 o         1 3YM     -0.840800
@<TRIPOS>BOND
     1    1    2 1   
     2    1   15 1   
     3    1   16 1   
     4    1   17 1   
     5    2    3 1   
     6    3    4 ar  
     7    3    5 ar  
     8    4    9 ar  
     9    4   18 1   
    10    5    6 1   
    11    5    7 ar  
    12    6   19 1   
    13    7    8 ar  
    14    7   20 1   
    15    8    9 ar  
    16    8   21 1   
    17    9   10 1   
    18   10   11 1   
    19   10   22 1   
    20   10   23 1   
    21   11   12 1   
    22   11   14 1   
    23   11   24 1   
    24   12   13 1   
    25   12   27 1   
    26   14   25 1   
    27   14   26 1   
@<TRIPOS>SUBSTRUCTURE
     1 3YM         1 TEMP              0 ****  ****    0 ROOT
