@<TRIPOS>MOLECULE
3YN
   56    58     1     0     0
SMALL
bcc


@<TRIPOS>ATOM
      1 O4P        -1.3530   -0.4440   -2.4240 o         1 3YN     -0.863000
      2 P2         -0.3350   -0.0850   -1.4300 p5        1 3YN      1.599800
      3 O3P        -0.5980    0.2810   -0.0240 o         1 3YN     -0.863000
      4 O1          0.4490    1.2860   -2.0020 os        1 3YN     -0.551200
      5 C1          1.3320    1.8790   -1.1380 c3        1 3YN      0.401900
      6 C2          0.8100    3.2250   -0.6020 c3        1 3YN     -0.167400
      7 C3          1.8790    3.9400    0.2080 c3        1 3YN      0.058100
      8 O3          2.0250    3.4040    1.5150 oh        1 3YN     -0.609800
      9 C4          3.2250    3.9100   -0.5130 c         1 3YN      0.529100
     10 O4          3.9780    4.8910   -0.4820 o         1 3YN     -0.570100
     11 C5          3.5850    2.6450   -1.2740 c3        1 3YN      0.064100
     12 O5          2.4700    2.1370   -1.9850 os        1 3YN     -0.414600
     13 C6          4.2070    1.6270   -0.3330 c3        1 3YN     -0.145100
     14 OPP         0.9120   -1.1420   -1.4320 os        1 3YN     -0.813800
     15 P           2.1430   -2.1690   -1.3680 p5        1 3YN      1.627800
     16 O1P         1.7420   -3.5120   -0.8850 o         1 3YN     -0.896500
     17 O2P         3.3620   -1.4980   -0.8780 o         1 3YN     -0.896500
     18 O5'         2.4210   -2.4910   -2.9940 os        1 3YN     -0.566200
     19 C5'         3.4210   -3.4130   -3.2360 c3        1 3YN      0.210400
     20 C4'         2.8260   -4.7850   -3.6080 c3        1 3YN      0.056100
     21 O4'         3.6650   -5.4000   -4.6150 os        1 3YN     -0.427600
     22 C3'         2.7060   -5.7700   -2.4260 c3        1 3YN      0.151100
     23 O3'         1.3580   -6.0420   -2.1160 oh        1 3YN     -0.640800
     24 C2'         3.3550   -7.0700   -2.9180 c3        1 3YN     -0.129400
     25 C1'         4.1180   -6.6840   -4.2000 c3        1 3YN      0.303500
     26 N11         5.5850   -6.6620   -4.0290 n         1 3YN     -0.375000
     27 C21         6.3600   -7.6720   -4.6430 c         1 3YN      0.804500
     28 O21         5.8470   -8.6290   -5.2690 o         1 3YN     -0.673500
     29 N31         7.7590   -7.6060   -4.5210 n         1 3YN     -0.593500
     30 C41         8.4250   -6.5670   -3.8450 c         1 3YN      0.720700
     31 O41         9.6700   -6.6040   -3.8010 o         1 3YN     -0.654500
     32 C51         7.5720   -5.5300   -3.2530 cc        1 3YN     -0.292400
     33 C5A         8.2340   -4.4200   -2.5410 c3        1 3YN     -0.022900
     34 C61         6.2140   -5.6160   -3.3810 cd        1 3YN      0.075600
     35 H2          1.6200    1.1910   -0.2900 h2        1 3YN      0.056700
     36 H3         -0.0860    3.0290    0.0430 hc        1 3YN      0.073700
     37 H4          0.4990    3.8620   -1.4660 hc        1 3YN      0.073700
     38 H5          1.5890    5.0160    0.3840 h1        1 3YN      0.058700
     39 H6          1.8460    2.4540    1.4640 ho        1 3YN      0.429000
     40 H7          4.3180    2.9030   -2.0940 h1        1 3YN      0.071700
     41 H8          4.0770    0.5890   -0.7510 hc        1 3YN      0.065700
     42 H9          5.2930    1.8450   -0.2080 hc        1 3YN      0.065700
     43 H10         3.7210    1.6550    0.6720 hc        1 3YN      0.065700
     44 H12         4.0340   -3.0540   -4.1120 h1        1 3YN      0.014200
     45 H13         4.0900   -3.5100   -2.3330 h1        1 3YN      0.014200
     46 H14         1.8250   -4.6350   -4.0980 h1        1 3YN      0.100700
     47 H15         3.2330   -5.3720   -1.5160 h1        1 3YN      0.079700
     48 H16         1.0360   -5.2750   -1.6020 ho        1 3YN      0.486000
     49 H17         2.5660   -7.8190   -3.1780 hc        1 3YN      0.065200
     50 H18         4.0130   -7.5120   -2.1340 hc        1 3YN      0.065200
     51 H19         3.9040   -7.3900   -5.0560 h2        1 3YN      0.098700
     52 H20         8.2850   -8.3290   -4.9570 hn        1 3YN      0.335500
     53 H21         8.9500   -3.8990   -3.2240 hc        1 3YN      0.047700
     54 H22         8.8160   -4.8160   -1.6710 hc        1 3YN      0.047700
     55 H23         7.4870   -3.6780   -2.1670 hc        1 3YN      0.047700
     56 H24         5.5290   -4.8400   -2.9710 h4        1 3YN      0.203000
@<TRIPOS>BOND
     1    1    2 1   
     2    2    3 1   
     3    2    4 1   
     4    2   14 1   
     5    4    5 1   
     6    5    6 1   
     7    5   12 1   
     8    5   35 1   
     9    6    7 1   
    10    6   36 1   
    11    6   37 1   
    12    7    8 1   
    13    7    9 1   
    14    7   38 1   
    15    8   39 1   
    16    9   10 2   
    17    9   11 1   
    18   11   12 1   
    19   11   13 1   
    20   11   40 1   
    21   13   41 1   
    22   13   42 1   
    23   13   43 1   
    24   14   15 1   
    25   15   16 1   
    26   15   17 1   
    27   15   18 1   
    28   18   19 1   
    29   19   20 1   
    30   19   44 1   
    31   19   45 1   
    32   20   21 1   
    33   20   22 1   
    34   20   46 1   
    35   21   25 1   
    36   22   23 1   
    37   22   24 1   
    38   22   47 1   
    39   23   48 1   
    40   24   25 1   
    41   24   49 1   
    42   24   50 1   
    43   25   26 1   
    44   25   51 1   
    45   26   27 1   
    46   26   34 1   
    47   27   28 2   
    48   27   29 1   
    49   29   30 1   
    50   29   52 1   
    51   30   31 2   
    52   30   32 1   
    53   32   33 1   
    54   32   34 2   
    55   33   53 1   
    56   33   54 1   
    57   33   55 1   
    58   34   56 1   
@<TRIPOS>SUBSTRUCTURE
     1 3YN         1 TEMP              0 ****  ****    0 ROOT
