@<TRIPOS>MOLECULE
3YN
   56    58     1     0     0
SMALL
bcc


@<TRIPOS>ATOM
      1 O4P        -1.2270   -0.2330   -2.8340 o         1 3YN     -0.863000
      2 P2         -0.2960    0.0540   -1.7360 p5        1 3YN      1.599800
      3 O3P        -0.6790    0.3870   -0.3500 o         1 3YN     -0.863000
      4 O1          0.5900    1.4090   -2.1840 os        1 3YN     -0.551200
      5 C1          1.4070    1.9390   -1.2200 c3        1 3YN      0.401900
      6 C2          0.8870    3.2880   -0.6890 c3        1 3YN     -0.167400
      7 C3          1.8990    3.9330    0.2430 c3        1 3YN      0.058100
      8 O3          1.8990    3.3510    1.5380 oh        1 3YN     -0.609800
      9 C4          3.3060    3.8710   -0.3480 c         1 3YN      0.529100
     10 O4          4.0890    4.8190   -0.2120 o         1 3YN     -0.570100
     11 C5          3.6910    2.6170   -1.1160 c3        1 3YN      0.064100
     12 O5          2.6300    2.1770   -1.9460 os        1 3YN     -0.414600
     13 C6          4.1800    1.5460   -0.1570 c3        1 3YN     -0.145100
     14 OPP         0.9050   -1.0520   -1.6570 os        1 3YN     -0.813800
     15 P           2.0840   -2.1290   -1.5130 p5        1 3YN      1.627800
     16 O1P         1.5890   -3.4700   -1.1170 o         1 3YN     -0.896500
     17 O2P         3.2750   -1.5240   -0.8860 o         1 3YN     -0.896500
     18 O5'         2.5060   -2.4110   -3.1150 os        1 3YN     -0.566200
     19 C5'         3.4890   -3.3650   -3.2940 c3        1 3YN      0.210400
     20 C4'         2.8820   -4.7000   -3.7680 c3        1 3YN      0.056100
     21 O4'         3.7900   -5.3170   -4.7120 os        1 3YN     -0.427600
     22 C3'         2.6120   -5.7160   -2.6380 c3        1 3YN      0.151100
     23 O3'         1.2320   -5.9430   -2.4670 oh        1 3YN     -0.640800
     24 C2'         3.2570   -7.0250   -3.1110 c3        1 3YN     -0.129400
     25 C1'         4.1540   -6.6300   -4.3010 c3        1 3YN      0.303500
     26 N11         5.5970   -6.6730   -3.9890 n         1 3YN     -0.375000
     27 C21         6.3900   -7.6930   -4.5620 c         1 3YN      0.804500
     28 O21         5.9040   -8.6080   -5.2690 o         1 3YN     -0.673500
     29 N31         7.7720   -7.6870   -4.3060 ns        1 3YN     -0.593500
     30 C41         8.4070   -6.6970   -3.5330 c         1 3YN      0.720700
     31 O41         9.6400   -6.7860   -3.3720 o         1 3YN     -0.654500
     32 C51         7.5410   -5.6460   -2.9890 cc        1 3YN     -0.292400
     33 C5A         8.1710   -4.5880   -2.1780 c3        1 3YN     -0.022900
     34 C61         6.1990   -5.6730   -3.2480 cd        1 3YN      0.075600
     35 H2          1.5870    1.2140   -0.3730 h2        1 3YN      0.056700
     36 H3         -0.0730    3.1070   -0.1390 hc        1 3YN      0.073700
     37 H4          0.6840    3.9630   -1.5560 hc        1 3YN      0.073700
     38 H5          1.6340    5.0140    0.4280 h1        1 3YN      0.058700
     39 H6          1.6910    2.4110    1.4370 ho        1 3YN      0.429000
     40 H7          4.5080    2.8700   -1.8540 h1        1 3YN      0.071700
     41 H8          4.0520    0.5280   -0.6210 hc        1 3YN      0.065700
     42 H9          5.2570    1.7150    0.0780 hc        1 3YN      0.065700
     43 H10         3.6030    1.5620    0.7980 hc        1 3YN      0.065700
     44 H12         4.1960   -3.0050   -4.0940 h1        1 3YN      0.014200
     45 H13         4.0640   -3.5170   -2.3350 h1        1 3YN      0.014200
     46 H14         1.9390   -4.4940   -4.3450 h1        1 3YN      0.100700
     47 H15         3.0640   -5.3670   -1.6690 h1        1 3YN      0.079700
     48 H16         0.8900   -5.1790   -1.9590 ho        1 3YN      0.486000
     49 H17         2.4690   -7.7330   -3.4700 hc        1 3YN      0.065200
     50 H18         3.8190   -7.5180   -2.2840 hc        1 3YN      0.065200
     51 H19         3.9970   -7.3000   -5.1970 h2        1 3YN      0.098700
     52 H20         8.3110   -8.4160   -4.7150 hn        1 3YN      0.335500
     53 H21         7.4190   -3.8290   -1.8490 hc        1 3YN      0.047700
     54 H22         8.6530   -5.0340   -1.2710 hc        1 3YN      0.047700
     55 H23         8.9680   -4.0730   -2.7720 hc        1 3YN      0.047700
     56 H24         5.5070   -4.8850   -2.8780 h4        1 3YN      0.203000
@<TRIPOS>BOND
     1    1    2 1   
     2    2    3 1   
     3    2    4 1   
     4    2   14 1   
     5    4    5 1   
     6    5    6 1   
     7    5   12 1   
     8    5   35 1   
     9    6    7 1   
    10    6   36 1   
    11    6   37 1   
    12    7    8 1   
    13    7    9 1   
    14    7   38 1   
    15    8   39 1   
    16    9   10 2   
    17    9   11 1   
    18   11   12 1   
    19   11   13 1   
    20   11   40 1   
    21   13   41 1   
    22   13   42 1   
    23   13   43 1   
    24   14   15 1   
    25   15   16 1   
    26   15   17 1   
    27   15   18 1   
    28   18   19 1   
    29   19   20 1   
    30   19   44 1   
    31   19   45 1   
    32   20   21 1   
    33   20   22 1   
    34   20   46 1   
    35   21   25 1   
    36   22   23 1   
    37   22   24 1   
    38   22   47 1   
    39   23   48 1   
    40   24   25 1   
    41   24   49 1   
    42   24   50 1   
    43   25   26 1   
    44   25   51 1   
    45   26   27 1   
    46   26   34 1   
    47   27   28 2   
    48   27   29 1   
    49   29   30 1   
    50   29   52 1   
    51   30   31 2   
    52   30   32 1   
    53   32   33 1   
    54   32   34 2   
    55   33   53 1   
    56   33   54 1   
    57   33   55 1   
    58   34   56 1   
@<TRIPOS>SUBSTRUCTURE
     1 3YN         1 TEMP              0 ****  ****    0 ROOT
