@<TRIPOS>MOLECULE
3YO
   62    67     1     0     0
SMALL
bcc


@<TRIPOS>ATOM
      1 C1          0.5920    1.1780    0.3280 c3        1 3YO     -0.063800
      2 C2          1.2530   -0.1500    0.2750 ca        1 3YO     -0.059300
      3 C3          1.7640   -0.7460    1.4350 ca        1 3YO     -0.112900
      4 C4          2.4250   -1.9770    1.3770 ca        1 3YO     -0.086000
      5 C5          2.5510   -2.6480    0.1710 ca        1 3YO     -0.162000
      6 C6          2.0160   -2.0930   -1.0050 ca        1 3YO      0.148900
      7 C7          1.3740   -0.8220   -0.9700 ca        1 3YO      0.010600
      8 N8          0.8250   -0.2580   -2.1390 ns        1 3YO     -0.474100
      9 C9          1.5540   -0.0730   -3.3180 c         1 3YO      0.703300
     10 O10         2.7210   -0.4820   -3.4430 o         1 3YO     -0.558100
     11 C11         0.8470    0.6150   -4.4130 cc        1 3YO     -0.176600
     12 C12         1.5000    1.1450   -5.5000 cd        1 3YO     -0.045200
     13 C13         0.5860    1.7590   -6.4250 ca        1 3YO     -0.099800
     14 C14         0.8720    2.4040   -7.6370 ca        1 3YO     -0.077000
     15 C15        -0.1700    2.9300   -8.3820 ca        1 3YO     -0.136000
     16 C16        -1.5000    2.8220   -7.9330 ca        1 3YO     -0.108000
     17 C17        -1.8010    2.1880   -6.7390 ca        1 3YO     -0.103000
     18 C18        -0.7600    1.6510   -5.9720 ca        1 3YO     -0.060100
     19 S19        -0.8360    0.8300   -4.5010 ss        1 3YO      0.030500
     20 F20         2.1260   -2.7870   -2.1600 f         1 3YO     -0.119900
     21 C21         1.6200   -0.0960    2.7530 cc        1 3YO      0.412200
     22 C22         0.3000   -0.0660    3.3520 cc        1 3YO     -0.259600
     23 C23         0.1390    0.5090    4.5880 cd        1 3YO      0.063800
     24 C24         1.3520    1.0610    5.2690 c         1 3YO      0.651700
     25 O25         1.3600    1.5790    6.4010 o         1 3YO     -0.628500
     26 N26         2.5530    0.9590    4.5450 ns        1 3YO     -0.276900
     27 N28         2.6970    0.4060    3.3550 nd        1 3YO     -0.435300
     28 N29        -1.0880    0.7160    5.2340 nu        1 3YO     -0.659700
     29 C30        -2.1400   -0.1860    4.9720 cc        1 3YO      0.478200
     30 C31        -2.9260   -0.2120    3.7470 cc        1 3YO     -0.279300
     31 C32        -3.8940   -1.2000    3.9720 cd        1 3YO     -0.101600
     32 N33        -3.6670   -1.7010    5.2640 na        1 3YO      0.113400
     33 N34        -2.6270   -1.1260    5.8650 nd        1 3YO     -0.519800
     34 C35        -4.4780   -2.7770    5.8060 c3        1 3YO      0.055300
     35 C36        -5.8220   -2.8960    5.0550 c3        1 3YO      0.151800
     36 N37        -5.6760   -2.8770    3.6080 n3        1 3YO     -0.734600
     37 C38        -5.0010   -1.6830    3.1030 c3        1 3YO      0.234100
     38 C39        -6.9200   -3.1310    2.9180 c3        1 3YO      0.157100
     39 H1          1.0950    1.8940   -0.3700 hc        1 3YO      0.051700
     40 H2         -0.4860    1.0930    0.0380 hc        1 3YO      0.051700
     41 H3          0.6340    1.6160    1.3560 hc        1 3YO      0.051700
     42 H4          2.8470   -2.4160    2.2950 ha        1 3YO      0.148000
     43 H5          3.0650   -3.6200    0.1150 ha        1 3YO      0.155000
     44 H6          0.0070    0.2940   -2.0080 hn        1 3YO      0.316500
     45 H7          2.5830    1.1060   -5.6560 ha        1 3YO      0.178000
     46 H8          1.9140    2.4820   -7.9810 ha        1 3YO      0.142000
     47 H9          0.0350    3.4390   -9.3350 ha        1 3YO      0.137000
     48 H10        -2.3090    3.2490   -8.5450 ha        1 3YO      0.136000
     49 H11        -2.8420    2.1050   -6.3940 ha        1 3YO      0.139000
     50 H12        -0.5380   -0.5140    2.7980 ha        1 3YO      0.166000
     51 H27         3.4020    1.3060    4.9550 hn        1 3YO      0.363500
     52 H13        -0.9790    0.9420    6.2100 hn        1 3YO      0.439800
     53 H14        -2.7900    0.4150    2.8740 ha        1 3YO      0.171000
     54 H15        -3.9000   -3.7410    5.7120 h1        1 3YO      0.074700
     55 H16        -4.6860   -2.5850    6.8950 h1        1 3YO      0.074700
     56 H17        -6.5130   -2.0810    5.4200 h1        1 3YO      0.048700
     57 H18        -6.2740   -3.8870    5.3440 h1        1 3YO      0.048700
     58 H20        -5.7210   -0.8220    2.9550 h1        1 3YO      0.056700
     59 H21        -4.5750   -1.9530    2.0920 h1        1 3YO      0.056700
     60 H22        -7.7050   -2.3490    3.1100 h1        1 3YO      0.038367
     61 H23        -7.3170   -4.1270    3.2490 h1        1 3YO      0.038367
     62 H24        -6.7170   -3.1710    1.8160 h1        1 3YO      0.038367
@<TRIPOS>BOND
     1    1    2 1   
     2    1   39 1   
     3    1   40 1   
     4    1   41 1   
     5    2    3 ar  
     6    2    7 ar  
     7    3    4 ar  
     8    3   21 1   
     9    4    5 ar  
    10    4   42 1   
    11    5    6 ar  
    12    5   43 1   
    13    6    7 ar  
    14    6   20 1   
    15    7    8 1   
    16    8    9 1   
    17    8   44 1   
    18    9   10 2   
    19    9   11 1   
    20   11   12 2   
    21   11   19 1   
    22   12   13 1   
    23   12   45 1   
    24   13   14 ar  
    25   13   18 ar  
    26   14   15 ar  
    27   14   46 1   
    28   15   16 ar  
    29   15   47 1   
    30   16   17 ar  
    31   16   48 1   
    32   17   18 ar  
    33   17   49 1   
    34   18   19 1   
    35   21   22 1   
    36   21   27 2   
    37   22   23 2   
    38   22   50 1   
    39   23   24 1   
    40   23   28 1   
    41   24   25 2   
    42   24   26 1   
    43   26   27 1   
    44   26   51 1   
    45   28   29 1   
    46   28   52 1   
    47   29   30 1   
    48   29   33 2   
    49   30   31 2   
    50   30   53 1   
    51   31   32 1   
    52   31   37 1   
    53   32   33 1   
    54   32   34 1   
    55   34   35 1   
    56   34   54 1   
    57   34   55 1   
    58   35   36 1   
    59   35   56 1   
    60   35   57 1   
    61   36   37 1   
    62   36   38 1   
    63   37   58 1   
    64   37   59 1   
    65   38   60 1   
    66   38   61 1   
    67   38   62 1   
@<TRIPOS>SUBSTRUCTURE
     1 3YO         1 TEMP              0 ****  ****    0 ROOT
