@<TRIPOS>MOLECULE
3YO
   62    67     1     0     0
SMALL
bcc


@<TRIPOS>ATOM
      1 C1          0.5610    1.2110    0.3290 c3        1 3YO     -0.063800
      2 C2          1.2530   -0.1020    0.2920 ca        1 3YO     -0.059300
      3 C3          1.7690   -0.6750    1.4610 ca        1 3YO     -0.112900
      4 C4          2.4590   -1.8910    1.4190 ca        1 3YO     -0.086000
      5 C5          2.6100   -2.5700    0.2200 ca        1 3YO     -0.162000
      6 C6          2.0690   -2.0380   -0.9650 ca        1 3YO      0.148900
      7 C7          1.3980   -0.7820   -0.9460 ca        1 3YO      0.010600
      8 N8          0.8440   -0.2420   -2.1240 n         1 3YO     -0.474100
      9 C9          1.5760   -0.0520   -3.2990 c         1 3YO      0.703300
     10 O10         2.7530   -0.4350   -3.4130 o         1 3YO     -0.558100
     11 C11         0.8610    0.6100   -4.4060 cc        1 3YO     -0.176600
     12 C12         1.5090    1.1440   -5.4930 cd        1 3YO     -0.045200
     13 C13         0.5860    1.7290   -6.4290 ca        1 3YO     -0.099800
     14 C14         0.8660    2.3680   -7.6460 ca        1 3YO     -0.077000
     15 C15        -0.1830    2.8640   -8.4020 ca        1 3YO     -0.136000
     16 C16        -1.5130    2.7300   -7.9610 ca        1 3YO     -0.108000
     17 C17        -1.8070    2.1000   -6.7630 ca        1 3YO     -0.103000
     18 C18        -0.7590    1.5940   -5.9840 ca        1 3YO     -0.060100
     19 S19        -0.8260    0.7860   -4.5060 ss        1 3YO      0.030500
     20 F20         2.2030   -2.7400   -2.1120 f         1 3YO     -0.119900
     21 C21         1.6000   -0.0180    2.7730 cc        1 3YO      0.412200
     22 C22         0.2750   -0.0110    3.3610 cc        1 3YO     -0.259600
     23 C23         0.0920    0.5710    4.5900 cd        1 3YO      0.063800
     24 C24         1.2870    1.1550    5.2760 c         1 3YO      0.651700
     25 O25         1.2750    1.6830    6.4040 o         1 3YO     -0.628500
     26 N26         2.4970    1.0730    4.5620 n         1 3YO     -0.276900
     27 N28         2.6620    0.5130    3.3780 nd        1 3YO     -0.435300
     28 N29        -1.1430    0.7580    5.2250 nh        1 3YO     -0.659700
     29 C30        -2.1750   -0.1690    4.9620 cc        1 3YO      0.478200
     30 C31        -2.9500   -0.2220    3.7300 cc        1 3YO     -0.279300
     31 C32        -3.8980   -1.2280    3.9560 cd        1 3YO     -0.101600
     32 N33        -3.6710   -1.7140    5.2550 na        1 3YO      0.113400
     33 N34        -2.6480   -1.1120    5.8590 nd        1 3YO     -0.519800
     34 C35        -4.4630   -2.8030    5.7990 c3        1 3YO      0.055300
     35 C36        -5.7990   -2.9570    5.0380 c3        1 3YO      0.151800
     36 N37        -5.6410   -2.9460    3.5920 n3        1 3YO     -0.734600
     37 C38        -4.9880   -1.7430    3.0820 c3        1 3YO      0.234100
     38 C39        -6.8730   -3.2330    2.8950 c3        1 3YO      0.157100
     39 H1         -0.5130    1.0990    0.0330 hc        1 3YO      0.051700
     40 H2          0.5860    1.6590    1.3530 hc        1 3YO      0.051700
     41 H3          1.0510    1.9320   -0.3730 hc        1 3YO      0.051700
     42 H4          2.8850   -2.3120    2.3430 ha        1 3YO      0.148000
     43 H5          3.1470   -3.5300    0.1770 ha        1 3YO      0.155000
     44 H6          0.0130    0.2920   -2.0030 hn        1 3YO      0.316500
     45 H7          2.5940    1.1290   -5.6420 ha        1 3YO      0.178000
     46 H8          1.9070    2.4670   -7.9840 ha        1 3YO      0.142000
     47 H9          0.0170    3.3680   -9.3600 ha        1 3YO      0.137000
     48 H10        -2.3280    3.1320   -8.5820 ha        1 3YO      0.136000
     49 H11        -2.8480    1.9970   -6.4230 ha        1 3YO      0.139000
     50 H12        -0.5480   -0.4810    2.8040 ha        1 3YO      0.166000
     51 H27         3.3340    1.4420    4.9750 hn        1 3YO      0.363500
     52 H13        -1.0480    0.9940    6.1990 hn        1 3YO      0.439800
     53 H14        -2.8200    0.4010    2.8540 ha        1 3YO      0.171000
     54 H15        -3.8640   -3.7550    5.7180 h1        1 3YO      0.074700
     55 H16        -4.6850   -2.6060    6.8850 h1        1 3YO      0.074700
     56 H17        -6.2310   -3.9540    5.3320 h1        1 3YO      0.048700
     57 H18        -6.5100   -2.1530    5.3910 h1        1 3YO      0.048700
     58 H20        -5.7250   -0.8980    2.9220 h1        1 3YO      0.056700
     59 H21        -4.5480   -2.0110    2.0780 h1        1 3YO      0.056700
     60 H22        -6.6610   -3.2780    1.7940 h1        1 3YO      0.038367
     61 H23        -7.2520   -4.2340    3.2310 h1        1 3YO      0.038367
     62 H24        -7.6760   -2.4660    3.0740 h1        1 3YO      0.038367
@<TRIPOS>BOND
     1    1    2 1   
     2    1   39 1   
     3    1   40 1   
     4    1   41 1   
     5    2    3 ar  
     6    2    7 ar  
     7    3    4 ar  
     8    3   21 1   
     9    4    5 ar  
    10    4   42 1   
    11    5    6 ar  
    12    5   43 1   
    13    6    7 ar  
    14    6   20 1   
    15    7    8 1   
    16    8    9 1   
    17    8   44 1   
    18    9   10 2   
    19    9   11 1   
    20   11   12 2   
    21   11   19 1   
    22   12   13 1   
    23   12   45 1   
    24   13   14 ar  
    25   13   18 ar  
    26   14   15 ar  
    27   14   46 1   
    28   15   16 ar  
    29   15   47 1   
    30   16   17 ar  
    31   16   48 1   
    32   17   18 ar  
    33   17   49 1   
    34   18   19 1   
    35   21   22 1   
    36   21   27 2   
    37   22   23 2   
    38   22   50 1   
    39   23   24 1   
    40   23   28 1   
    41   24   25 2   
    42   24   26 1   
    43   26   27 1   
    44   26   51 1   
    45   28   29 1   
    46   28   52 1   
    47   29   30 1   
    48   29   33 2   
    49   30   31 2   
    50   30   53 1   
    51   31   32 1   
    52   31   37 1   
    53   32   33 1   
    54   32   34 1   
    55   34   35 1   
    56   34   54 1   
    57   34   55 1   
    58   35   36 1   
    59   35   56 1   
    60   35   57 1   
    61   36   37 1   
    62   36   38 1   
    63   37   58 1   
    64   37   59 1   
    65   38   60 1   
    66   38   61 1   
    67   38   62 1   
@<TRIPOS>SUBSTRUCTURE
     1 3YO         1 TEMP              0 ****  ****    0 ROOT
