@<TRIPOS>MOLECULE
3YP
   26    26     1     0     0
SMALL
bcc


@<TRIPOS>ATOM
      1 CAF         1.2540   -0.1400   -1.5730 c3        1 3YP     -0.077400
      2 CAC         2.8440   -0.2040   -1.5020 c3        1 3YP     -0.078900
      3 CAD         3.2080   -0.1030    0.0430 c3        1 3YP     -0.078900
      4 CAG         2.0580    0.2630    0.6510 c3        1 3YP     -0.077400
      5 CAK         0.8390   -0.2930   -0.2990 c3        1 3YP     -0.067700
      6 CAH        -0.4340    0.5290   -0.0570 c3        1 3YP     -0.068400
      7 CAE        -1.5020   -0.3610    0.5780 c3        1 3YP     -0.154400
      8 CAJ        -2.8090    0.4470    0.7530 c         1 3YP      0.587100
      9 OAA        -2.7850    1.6640    0.6940 o         1 3YP     -0.558100
     10 NAI        -4.0460   -0.2370    1.0420 n         1 3YP     -0.356400
     11 OAB        -5.1980    0.4880    1.2730 oh        1 3YP     -0.439100
     12 HAF1        0.9120   -0.8620   -2.1290 hc        1 3YP      0.042200
     13 HAF2        0.9630    0.7300   -1.9250 hc        1 3YP      0.042200
     14 HAC1        3.2370    0.5520   -1.9940 hc        1 3YP      0.040950
     15 HAC2        3.1630   -1.0470   -1.8680 hc        1 3YP      0.040950
     16 HAD1        3.5110   -0.9760    0.3810 hc        1 3YP      0.040950
     17 HAD2        3.8990    0.5770    0.1860 hc        1 3YP      0.040950
     18 HAG1        2.0120    1.2270    0.7220 hc        1 3YP      0.042200
     19 HAG2        2.0040   -0.1430    1.5390 hc        1 3YP      0.042200
     20 HAK         0.6700   -1.2420   -0.1100 hc        1 3YP      0.046700
     21 HAH1       -0.2310    1.2780    0.5460 hc        1 3YP      0.060200
     22 HAH2       -0.7630    0.8750   -0.9060 hc        1 3YP      0.060200
     23 HAE1       -1.1910   -0.6710    1.4520 hc        1 3YP      0.070200
     24 HAE2       -1.6700   -1.1290    0.0010 hc        1 3YP      0.070200
     25 HAI        -4.0580   -1.1480    1.1130 hn        1 3YP      0.293500
     26 HAB        -5.8870   -0.0750    1.3880 ho        1 3YP      0.435000
@<TRIPOS>BOND
     1    1    2 1   
     2    1    5 1   
     3    1   12 1   
     4    1   13 1   
     5    2    3 1   
     6    2   14 1   
     7    2   15 1   
     8    3    4 1   
     9    3   16 1   
    10    3   17 1   
    11    4    5 1   
    12    4   18 1   
    13    4   19 1   
    14    5    6 1   
    15    5   20 1   
    16    6    7 1   
    17    6   21 1   
    18    6   22 1   
    19    7    8 1   
    20    7   23 1   
    21    7   24 1   
    22    8    9 2   
    23    8   10 1   
    24   10   11 1   
    25   10   25 1   
    26   11   26 1   
@<TRIPOS>SUBSTRUCTURE
     1 3YP         1 TEMP              0 ****  ****    0 ROOT
