@<TRIPOS>MOLECULE
3YP
   27    27     1     0     0
SMALL
bcc


@<TRIPOS>ATOM
      1 CAF         0.0670    0.2350   -0.1440 c3        1 3YP     -0.077900
      2 CAC         1.3480   -0.5210    0.1780 c3        1 3YP     -0.079900
      3 CAD         1.7720   -0.1320    1.5880 c3        1 3YP     -0.079900
      4 CAG         0.7370    0.8460    2.1280 c3        1 3YP     -0.077900
      5 CAK        -0.4610    0.7930    1.1800 c3        1 3YP     -0.071700
      6 CAH        -1.1180    2.1450    0.9750 c3        1 3YP     -0.079400
      7 CAE        -1.7840    2.6060    2.2610 c3        1 3YP     -0.139400
      8 CAJ        -2.3860    3.9550    2.0800 c         1 3YP      0.599100
      9 OAA        -2.4660    4.7260    1.1510 o         1 3YP     -0.375100
     10 NAI        -3.0870    4.5390    3.3750 ny        1 3YP     -0.491300
     11 OAB        -3.8190    3.5470    3.9230 oh        1 3YP     -0.359300
     12 HAF1       -0.6920   -0.4360   -0.6180 hc        1 3YP      0.044200
     13 HAF2        0.2780    1.0670   -0.8630 hc        1 3YP      0.044200
     14 HAC1        2.1480   -0.2690   -0.5620 hc        1 3YP      0.055700
     15 HAC2        1.1750   -1.6250    0.1150 hc        1 3YP      0.055700
     16 HAD1        1.8280   -1.0390    2.2420 hc        1 3YP      0.055700
     17 HAD2        2.7880    0.3360    1.5840 hc        1 3YP      0.055700
     18 HAG1        0.4330    0.5740    3.1680 hc        1 3YP      0.044200
     19 HAG2        1.1660    1.8800    2.1600 hc        1 3YP      0.044200
     20 HAK        -1.2240    0.0790    1.5950 hc        1 3YP      0.056700
     21 HAH1       -1.8840    2.0680    0.1590 hc        1 3YP      0.072200
     22 HAH2       -0.3520    2.8990    0.6500 hc        1 3YP      0.072200
     23 HAE1       -2.6010    1.8870    2.5630 hc        1 3YP      0.119200
     24 HAE2       -1.0300    2.6350    3.0960 hc        1 3YP      0.119200
     25 HAI        -3.6780    5.3460    3.1030 hn        1 3YP      0.459800
     26 HAB        -4.3690    3.9110    4.6540 ho        1 3YP      0.474000
     27 HAI2       -2.3580    4.8580    4.0350 hn        1 3YP      0.459800
@<TRIPOS>BOND
     1    1    2 1   
     2    1    5 1   
     3    1   12 1   
     4    1   13 1   
     5    2    3 1   
     6    2   14 1   
     7    2   15 1   
     8    3    4 1   
     9    3   16 1   
    10    3   17 1   
    11    4    5 1   
    12    4   18 1   
    13    4   19 1   
    14    5    6 1   
    15    5   20 1   
    16    6    7 1   
    17    6   21 1   
    18    6   22 1   
    19    7    8 1   
    20    7   23 1   
    21    7   24 1   
    22    8    9 2   
    23    8   10 1   
    24   10   11 1   
    25   10   25 1   
    26   10   27 1   
    27   11   26 1   
@<TRIPOS>SUBSTRUCTURE
     1 3YP         1 TEMP              0 ****  ****    0 ROOT
