@<TRIPOS>MOLECULE
3YP
   26    26     1     0     0
SMALL
bcc


@<TRIPOS>ATOM
      1 CAF        -2.6550   -1.1590   -0.2650 c3        1 3YP     -0.077400
      2 CAC        -3.9330   -0.4640    0.1820 c3        1 3YP     -0.078400
      3 CAD        -3.5730    0.9710    0.5450 c3        1 3YP     -0.078400
      4 CAG        -2.0790    1.1450    0.3060 c3        1 3YP     -0.077400
      5 CAK        -1.6100   -0.0670   -0.4980 c3        1 3YP     -0.067700
      6 CAH        -0.2220   -0.5350   -0.1110 c3        1 3YP     -0.068400
      7 CAE         0.8330    0.4750   -0.5100 c3        1 3YP     -0.154400
      8 CAJ         2.2100    0.0290   -0.0790 c         1 3YP      0.587100
      9 OAA         2.4240   -0.9980    0.5830 o         1 3YP     -0.558100
     10 NAI         3.2850    0.9400   -0.3450 n         1 3YP     -0.356400
     11 OAB         4.5030    0.3900   -0.3080 oh        1 3YP     -0.439100
     12 HAF1       -2.8210   -1.7520   -1.1970 hc        1 3YP      0.042450
     13 HAF2       -2.3030   -1.8690    0.5270 hc        1 3YP      0.042450
     14 HAC1       -4.6920   -0.4780   -0.6400 hc        1 3YP      0.041200
     15 HAC2       -4.3830   -0.9950    1.0580 hc        1 3YP      0.041200
     16 HAD1       -4.1560    1.6890   -0.0850 hc        1 3YP      0.041200
     17 HAD2       -3.8270    1.1860    1.6130 hc        1 3YP      0.041200
     18 HAG1       -1.5350    1.1990    1.2830 hc        1 3YP      0.042450
     19 HAG2       -1.8680    2.0930   -0.2470 hc        1 3YP      0.042450
     20 HAK        -1.6080    0.2030   -1.5900 hc        1 3YP      0.044700
     21 HAH1       -0.0050   -1.5160   -0.6100 hc        1 3YP      0.060200
     22 HAH2       -0.1670   -0.7140    0.9960 hc        1 3YP      0.060200
     23 HAE1        0.6030    1.4680   -0.0360 hc        1 3YP      0.069700
     24 HAE2        0.8250    0.6170   -1.6230 hc        1 3YP      0.069700
     25 HAI         3.1890    1.4030   -1.2410 hn        1 3YP      0.293500
     26 HAB         4.6780    0.1930    0.6330 ho        1 3YP      0.435000
@<TRIPOS>BOND
     1    1    2 1   
     2    1    5 1   
     3    1   12 1   
     4    1   13 1   
     5    2    3 1   
     6    2   14 1   
     7    2   15 1   
     8    3    4 1   
     9    3   16 1   
    10    3   17 1   
    11    4    5 1   
    12    4   18 1   
    13    4   19 1   
    14    5    6 1   
    15    5   20 1   
    16    6    7 1   
    17    6   21 1   
    18    6   22 1   
    19    7    8 1   
    20    7   23 1   
    21    7   24 1   
    22    8    9 2   
    23    8   10 1   
    24   10   11 1   
    25   10   25 1   
    26   11   26 1   
@<TRIPOS>SUBSTRUCTURE
     1 3YP         1 TEMP              0 ****  ****    0 ROOT
