@<TRIPOS>MOLECULE
3YP
   27    27     1     0     0
SMALL
bcc


@<TRIPOS>ATOM
      1 CAF         0.0960    0.2600   -0.1510 c3        1 3YP     -0.077900
      2 CAC         1.3740   -0.4980    0.1790 c3        1 3YP     -0.079900
      3 CAD         1.7790   -0.1250    1.5990 c3        1 3YP     -0.079900
      4 CAG         0.7340    0.8440    2.1370 c3        1 3YP     -0.077900
      5 CAK        -0.4510    0.8010    1.1720 c3        1 3YP     -0.071700
      6 CAH        -1.1080    2.1540    0.9750 c3        1 3YP     -0.079400
      7 CAE        -1.7940    2.5960    2.2570 c3        1 3YP     -0.139400
      8 CAJ        -2.3950    3.9470    2.0860 c         1 3YP      0.599100
      9 OAA        -2.4620    4.7310    1.1660 o         1 3YP     -0.375100
     10 NAI        -3.1180    4.5120    3.3770 n4        1 3YP     -0.491300
     11 OAB        -3.8580    3.5110    3.8980 oh        1 3YP     -0.359300
     12 HAF1        0.3150    1.1010   -0.8570 hc        1 3YP      0.044200
     13 HAF2       -0.6550   -0.4060   -0.6440 hc        1 3YP      0.044200
     14 HAC1        1.2040   -1.6010    0.1000 hc        1 3YP      0.055700
     15 HAC2        2.1830   -0.2350   -0.5480 hc        1 3YP      0.055700
     16 HAD1        2.7930    0.3460    1.6130 hc        1 3YP      0.055700
     17 HAD2        1.8290   -1.0390    2.2420 hc        1 3YP      0.055700
     18 HAG1        0.4160    0.5580    3.1700 hc        1 3YP      0.044200
     19 HAG2        1.1600    1.8790    2.1890 hc        1 3YP      0.044200
     20 HAK        -1.2180    0.0800    1.5680 hc        1 3YP      0.056700
     21 HAH1       -0.3400    2.9130    0.6710 hc        1 3YP      0.072200
     22 HAH2       -1.8630    2.0850    0.1470 hc        1 3YP      0.072200
     23 HAE1       -1.0510    2.6160    3.1040 hc        1 3YP      0.119200
     24 HAE2       -2.6130    1.8730    2.5380 hc        1 3YP      0.119200
     25 HAI        -2.4010    4.8220    4.0540 hn        1 3YP      0.459800
     26 HAB        -4.4210    3.8650    4.6250 ho        1 3YP      0.474000
     27 HAI2       -3.7050    5.3220    3.1070 hn        1 3YP      0.459800
@<TRIPOS>BOND
     1    1    2 1   
     2    1    5 1   
     3    1   12 1   
     4    1   13 1   
     5    2    3 1   
     6    2   14 1   
     7    2   15 1   
     8    3    4 1   
     9    3   16 1   
    10    3   17 1   
    11    4    5 1   
    12    4   18 1   
    13    4   19 1   
    14    5    6 1   
    15    5   20 1   
    16    6    7 1   
    17    6   21 1   
    18    6   22 1   
    19    7    8 1   
    20    7   23 1   
    21    7   24 1   
    22    8    9 2   
    23    8   10 1   
    24   10   11 1   
    25   10   25 1   
    26   10   27 1   
    27   11   26 1   
@<TRIPOS>SUBSTRUCTURE
     1 3YP         1 TEMP              0 ****  ****    0 ROOT
