@<TRIPOS>MOLECULE
3YP
   27    27     1     0     0
SMALL
bcc


@<TRIPOS>ATOM
      1 CAF        -0.0380    0.1990   -0.0690 c3        1 3YP     -0.078400
      2 CAC         1.2910   -0.5140    0.1390 c3        1 3YP     -0.079900
      3 CAD         1.8570   -0.0560    1.4770 c3        1 3YP     -0.079900
      4 CAG         0.8620    0.9220    2.0880 c3        1 3YP     -0.078400
      5 CAK        -0.4310    0.8020    1.2820 c3        1 3YP     -0.072700
      6 CAH        -1.1430    2.1290    1.0970 c3        1 3YP     -0.077400
      7 CAE        -1.6760    2.6290    2.4300 c3        1 3YP     -0.147400
      8 CAJ        -2.2790    3.9850    2.2740 c         1 3YP      0.556100
      9 OAA        -2.2360    4.8150    1.3920 o         1 3YP     -0.372100
     10 NAI        -3.1350    4.4580    3.4970 n4        1 3YP     -0.487300
     11 OAB        -4.1870    3.6420    3.7300 oh        1 3YP     -0.352300
     12 HAF1       -0.8250   -0.5080   -0.4290 hc        1 3YP      0.044700
     13 HAF2        0.0710    1.0040   -0.8400 hc        1 3YP      0.044700
     14 HAC1        1.9980   -0.2760   -0.6950 hc        1 3YP      0.056450
     15 HAC2        1.1420   -1.6230    0.1400 hc        1 3YP      0.056450
     16 HAD1        2.0090   -0.9320    2.1560 hc        1 3YP      0.056450
     17 HAD2        2.8530    0.4350    1.3410 hc        1 3YP      0.056450
     18 HAG1        1.2640    1.9660    2.0310 hc        1 3YP      0.044700
     19 HAG2        0.6820    0.6880    3.1670 hc        1 3YP      0.044700
     20 HAK        -1.1240    0.0890    1.8080 hc        1 3YP      0.055700
     21 HAH1       -1.9910    1.9990    0.3740 hc        1 3YP      0.072200
     22 HAH2       -0.4380    2.8850    0.6600 hc        1 3YP      0.072200
     23 HAE1       -2.4420    1.9120    2.8390 hc        1 3YP      0.118200
     24 HAE2       -0.8310    2.6960    3.1740 hc        1 3YP      0.118200
     25 HAI        -3.4440    5.4400    3.3650 hn        1 3YP      0.476300
     26 HAB        -4.8220    3.7240    2.9830 ho        1 3YP      0.475000
     27 HAI2       -2.5580    4.4050    4.3590 hn        1 3YP      0.476300
@<TRIPOS>BOND
     1    1    2 1   
     2    1    5 1   
     3    1   12 1   
     4    1   13 1   
     5    2    3 1   
     6    2   14 1   
     7    2   15 1   
     8    3    4 1   
     9    3   16 1   
    10    3   17 1   
    11    4    5 1   
    12    4   18 1   
    13    4   19 1   
    14    5    6 1   
    15    5   20 1   
    16    6    7 1   
    17    6   21 1   
    18    6   22 1   
    19    7    8 1   
    20    7   23 1   
    21    7   24 1   
    22    8    9 2   
    23    8   10 1   
    24   10   11 1   
    25   10   25 1   
    26   10   27 1   
    27   11   26 1   
@<TRIPOS>SUBSTRUCTURE
     1 3YP         1 TEMP              0 ****  ****    0 ROOT
