@<TRIPOS>MOLECULE
3YR
   44    45     1     0     0
SMALL
bcc


@<TRIPOS>ATOM
      1 O2         -0.0870   -0.9870   -0.4330 o         1 3YR     -0.345000
      2 C9          2.0400   -0.7020   -1.4350 c2        1 3YR     -0.147000
      3 C8          1.6350   -1.2250   -2.6680 c2        1 3YR     -0.395000
      4 C10         1.0880   -0.5990   -0.2920 c2        1 3YR      0.385000
      5 C11         0.8390    0.0920    2.0720 c2        1 3YR     -0.039000
      6 C12        -0.4210   -0.4420    2.2900 c2        1 3YR     -0.142000
      7 C7          3.9450   -0.5340   -2.5660 c2        1 3YR     -0.280000
      8 C3          8.0020    1.9340   -4.1050 c1        1 3YR      0.193000
      9 C2          7.7650   -0.9940   -2.9210 c3        1 3YR     -0.236000
     10 C4          6.8700    1.5220   -3.7180 c1        1 3YR     -0.665000
     11 C5          5.6490    1.1230   -3.3160 c2        1 3YR      0.455000
     12 C6          5.3420   -0.2300   -2.8630 c2        1 3YR     -0.206000
     13 O1          2.8210    0.2470    3.5320 os        1 3YR     -0.224000
     14 C1          6.3140   -1.1810   -2.6580 c2        1 3YR      0.242000
     15 S           2.8900   -1.2230   -3.7440 ss        1 3YR      0.597000
     16 N4          3.3690   -0.3050   -1.3810 n2        1 3YR     -0.064000
     17 F1          5.9730   -2.3980   -2.1900 f         1 3YR     -0.074000
     18 N1          1.5630   -0.0490    0.8900 ns        1 3YR     -0.287000
     19 C15         1.5980    0.8750    3.1780 c3        1 3YR      0.094000
     20 C14         0.6470    1.2630    4.2950 c2        1 3YR     -0.212000
     21 C13        -0.3860    0.4270    4.3050 c1        1 3YR     -0.039000
     22 N2         -0.8810   -0.5380    3.6300 n2        1 3YR     -0.057000
     23 C16         2.7090   -1.0020    4.1340 c2        1 3YR     -0.058000
     24 C19         5.4290   -0.9680    7.2140 c3        1 3YR     -0.127000
     25 N3          5.9430   -1.2840    5.9080 n7        1 3YR     -0.304000
     26 C18         5.1070   -0.8420    4.8080 c3        1 3YR     -0.037000
     27 C17         3.7830   -1.5280    4.7400 c2        1 3YR     -0.196000
     28 H1          0.6200   -1.5800   -2.8640 h4        1 3YR      0.213000
     29 H2         -1.0420   -0.9340    1.5240 h4        1 3YR      0.209000
     30 H3          8.1490   -0.1210   -2.3300 hc        1 3YR      0.132667
     31 H4          8.3440   -1.9100   -2.6460 hc        1 3YR      0.132667
     32 H5          7.9280   -0.7620   -4.0060 hc        1 3YR      0.132667
     33 H6          2.5290    0.2020    0.9480 hn        1 3YR      0.264000
     34 H7          1.9480    1.8640    2.7450 h1        1 3YR      0.152000
     35 H8          0.8070    2.1730    4.8710 ha        1 3YR      0.178000
     36 H9          1.7310   -1.4990    4.0550 h4        1 3YR      0.150000
     37 H10         4.4230   -1.4480    7.3380 h1        1 3YR      0.069000
     38 H11         6.1280   -1.3860    7.9850 h1        1 3YR      0.069000
     39 H12         5.3130    0.1360    7.4000 h1        1 3YR      0.069000
     40 H14         6.8660   -0.9060    5.7940 hn        1 3YR      0.155000
     41 H15         5.6640   -1.0730    3.8520 h1        1 3YR      0.078500
     42 H16         4.9320    0.2770    4.8300 h1        1 3YR      0.078500
     43 H17         3.7080   -2.5320    5.1860 ha        1 3YR      0.151000
     44 F2          4.6180    1.9870   -3.3230 f         1 3YR     -0.063000
@<TRIPOS>BOND
     1    1    4 1   
     2    2    3 1   
     3    2    4 1   
     4    2   16 1   
     5    3   15 1   
     6    3   28 1   
     7    4   18 1   
     8    5    6 1   
     9    5   18 1   
    10    5   19 1   
    11    6   22 1   
    12    6   29 1   
    13    7   12 1   
    14    7   15 1   
    15    7   16 1   
    16    8   10 1   
    17    9   14 1   
    18    9   30 1   
    19    9   31 1   
    20    9   32 1   
    21   10   11 1   
    22   11   12 1   
    23   11   44 1   
    24   12   14 1   
    25   13   19 1   
    26   13   23 1   
    27   14   17 1   
    28   18   33 1   
    29   19   20 1   
    30   19   34 1   
    31   20   21 1   
    32   20   35 1   
    33   21   22 1   
    34   23   27 1   
    35   23   36 1   
    36   24   25 1   
    37   24   37 1   
    38   24   38 1   
    39   24   39 1   
    40   25   26 1   
    41   25   40 1   
    42   26   27 1   
    43   26   41 1   
    44   26   42 1   
    45   27   43 1   
@<TRIPOS>SUBSTRUCTURE
     1 3YR         1 TEMP              0 ****  ****    0 ROOT
