@<TRIPOS>MOLECULE
3YS
   44    45     1     0     0
SMALL
bcc


@<TRIPOS>ATOM
      1 O1          0.1520   -1.0680    0.1130 o         1 3YS     -0.291000
      2 C7          1.4970    1.3410    3.3300 c2        1 3YS     -0.290000
      3 C6          0.9230    1.4020    4.6300 c2        1 3YS     -0.021000
      4 C1          1.6220    4.5020    4.2670 c3        1 3YS     -0.265000
      5 C5          1.4560    2.3860    5.6560 c3        1 3YS      0.066000
      6 C4          3.4010    0.0820    7.3750 c1        1 3YS     -0.077000
      7 C3         -0.0820    4.2890    6.0410 c2        1 3YS     -0.104000
      8 C2          0.9490    3.7770    5.3600 c2        1 3YS     -0.186000
      9 C15         3.4470   -0.0900   -3.5710 c2        1 3YS      0.071000
     10 C14         4.1300   -0.2030   -2.2830 c1        1 3YS     -0.104000
     11 N3          3.3670   -0.2880   -1.1930 n7        1 3YS     -0.097000
     12 C16         2.0620   -0.1070   -3.6440 c2        1 3YS     -0.165000
     13 C17         1.3160   -0.1980   -2.4410 c2        1 3YS     -0.062000
     14 C13         1.9700   -0.2720   -1.2250 c2        1 3YS     -0.160000
     15 C12         1.1620   -0.3560    0.0290 c2        1 3YS      0.356000
     16 N2          1.6020    0.4310    1.1070 ns        1 3YS     -0.326000
     17 C8          1.0150    0.4730    2.3630 c2        1 3YS      0.119000
     18 C9         -0.1360   -0.4250    2.6990 c3        1 3YS     -0.204000
     19 C10        -0.6740   -0.3670    4.0350 c1        1 3YS     -0.066000
     20 C11        -0.1320    0.5650    4.9690 c2        1 3YS     -0.014000
     21 F          -0.6730    0.6090    6.2130 f         1 3YS     -0.092000
     22 N           2.8980    2.2850    5.8370 n7        1 3YS     -0.298000
     23 O           2.3880    0.0710    8.1550 oh        1 3YS     -0.107000
     24 S           3.3700    4.6140    4.5020 ss        1 3YS      0.322000
     25 C           3.7850    3.1870    5.3860 c2        1 3YS      0.082000
     26 H1          2.3450    2.0070    3.1120 ha        1 3YS      0.125000
     27 H2          1.2740    5.5680    4.1960 h1        1 3YS      0.154000
     28 H3          1.4080    4.0050    3.2840 h1        1 3YS      0.154000
     29 H6          4.1430   -0.7390    7.3950 ha        1 3YS      0.080000
     30 H7          1.0350    2.0710    6.6720 h1        1 3YS      0.158000
     31 H8          2.3010   -0.6990    8.7630 ho        1 3YS      0.217000
     32 H9         -0.5940    3.7350    6.8430 ha        1 3YS      0.146000
     33 H10        -0.4880    5.2890    5.8270 ha        1 3YS      0.146000
     34 H11         3.8290   -0.4240   -0.3180 hn        1 3YS      0.259000
     35 H12         0.2140   -0.2140   -2.4780 ha        1 3YS      0.174000
     36 H13         1.5320   -0.0520   -4.6070 ha        1 3YS      0.173000
     37 H14         2.3300    1.0910    0.9290 hn        1 3YS      0.240000
     38 H15        -1.0050   -0.2300    1.9870 hc        1 3YS      0.211000
     39 H16         0.1330   -1.5100    2.4850 hc        1 3YS      0.211000
     40 N1          5.1220    3.0360    5.6150 n8        1 3YS     -0.343000
     41 H4          3.2030    1.4220    6.4010 hn        1 3YS      0.334000
     42 H5          5.7500    3.7430    5.3050 hn        1 3YS      0.266000
     43 H131        5.4860    2.2770    6.1440 hn        1 3YS      0.266000
     44 F1          4.2060    0.0130   -4.6750 f         1 3YS     -0.059000
@<TRIPOS>BOND
     1    1   15 1   
     2    2    3 1   
     3    2   17 1   
     4    2   26 1   
     5    3    5 1   
     6    3   20 1   
     7    4    8 1   
     8    4   24 1   
     9    4   27 1   
    10    4   28 1   
    11    5    8 1   
    12    5   22 1   
    13    5   30 1   
    14    6   23 1   
    15    6   29 1   
    16    7    8 1   
    17    7   32 1   
    18    7   33 1   
    19    9   10 1   
    20    9   12 1   
    21    9   44 1   
    22   10   11 1   
    23   11   14 1   
    24   11   34 1   
    25   12   13 1   
    26   12   36 1   
    27   13   14 1   
    28   13   35 1   
    29   14   15 1   
    30   15   16 1   
    31   16   17 1   
    32   16   37 1   
    33   17   18 1   
    34   18   19 1   
    35   18   38 1   
    36   18   39 1   
    37   19   20 1   
    38   20   21 1   
    39   22   25 1   
    40   22   41 1   
    41   23   31 1   
    42   24   25 1   
    43   25   40 1   
    44   40   42 1   
    45   40   43 1   
@<TRIPOS>SUBSTRUCTURE
     1 3YS         1 TEMP              0 ****  ****    0 ROOT
