@<TRIPOS>MOLECULE
3YS
   44    45     1     0     0
SMALL
bcc


@<TRIPOS>ATOM
      1 O1          0.3490   -1.2080    0.0480 o         1 3YS     -0.290000
      2 C7          1.8240    1.1590    3.2420 c2        1 3YS     -0.298000
      3 C6          1.3940    1.1110    4.5980 c2        1 3YS     -0.010000
      4 C1          1.5630    4.2690    4.4620 c3        1 3YS     -0.269000
      5 C5          1.9750    2.0620    5.6230 c3        1 3YS     -0.002000
      6 C4          1.5770    0.7150    8.2750 c1        1 3YS     -0.066000
      7 C3          0.3270    3.6760    6.5210 c2        1 3YS     -0.094000
      8 C2          1.2370    3.3770    5.5880 c2        1 3YS     -0.187000
      9 C15         3.1470    0.2330   -3.8880 c2        1 3YS      0.071000
     10 C14         3.9670    0.1180   -2.6830 c1        1 3YS     -0.103000
     11 N3          3.3320   -0.0870   -1.5290 n3        1 3YS     -0.097000
     12 C16         1.7690    0.0970   -3.8230 c2        1 3YS     -0.165000
     13 C17         1.1610   -0.1170   -2.5590 c2        1 3YS     -0.062000
     14 C13         1.9430   -0.1920   -1.4200 c2        1 3YS     -0.160000
     15 C12         1.2800   -0.4050   -0.0980 c2        1 3YS      0.356000
     16 N2          1.7600    0.3720    0.9700 n         1 3YS     -0.326000
     17 C8          1.3110    0.3010    2.2810 c2        1 3YS      0.123000
     18 C9          0.2760   -0.7060    2.6810 c3        1 3YS     -0.203000
     19 C10        -0.1340   -0.7400    4.0610 c1        1 3YS     -0.069000
     20 C11         0.4260    0.1910    4.9840 c2        1 3YS     -0.010000
     21 F          -0.0100    0.1420    6.2690 f         1 3YS     -0.102000
     22 N           3.4250    2.2010    5.5130 n3        1 3YS     -0.248000
     23 O           0.6720    1.3300    8.9410 oh        1 3YS     -0.130000
     24 S           3.2800    4.6910    4.4420 ss        1 3YS      0.358000
     25 C           4.0780    3.2930    5.0570 c2        1 3YS      0.079000
     26 H1          2.5810    1.9090    2.9680 ha        1 3YS      0.120000
     27 H2          1.0270    5.2550    4.5310 h1        1 3YS      0.156000
     28 H3          1.2820    3.7880    3.4880 h1        1 3YS      0.156000
     29 H6          1.8220   -0.3380    8.5200 ha        1 3YS      0.054000
     30 H7          1.8200    1.5810    6.6950 h1        1 3YS      0.246000
     31 H8          0.0990    2.9910    7.3560 ha        1 3YS      0.149500
     32 H9          0.2240    0.8220    9.6550 ho        1 3YS      0.194000
     33 H10        -0.2480    4.6130    6.5020 ha        1 3YS      0.149500
     34 H11         3.8920   -0.2270   -0.7130 hn        1 3YS      0.259000
     35 H12         0.0680   -0.2290   -2.4870 ha        1 3YS      0.174000
     36 H13         1.1380    0.1500   -4.7240 ha        1 3YS      0.173000
     37 H14         2.4090    1.0990    0.7560 hn        1 3YS      0.239000
     38 H15        -0.6680   -0.5640    2.0580 hc        1 3YS      0.211000
     39 H16         0.6170   -1.7540    2.3990 hc        1 3YS      0.211000
     40 N1          5.4390    3.3610    5.0630 n3        1 3YS     -0.338000
     41 H4          3.9360    1.4030    5.8380 hn        1 3YS      0.267000
     42 H5          5.8840    4.1980    4.7540 hn        1 3YS      0.270500
     43 H131        6.0100    2.6320    5.4290 hn        1 3YS      0.270500
     44 F1          3.7760    0.4570   -5.0540 f         1 3YS     -0.059000
@<TRIPOS>BOND
     1    1   15 1   
     2    2    3 1   
     3    2   17 1   
     4    2   26 1   
     5    3    5 1   
     6    3   20 1   
     7    4    8 1   
     8    4   24 1   
     9    4   27 1   
    10    4   28 1   
    11    5    8 1   
    12    5   22 1   
    13    5   30 1   
    14    6   23 1   
    15    6   29 1   
    16    7    8 1   
    17    7   31 1   
    18    7   33 1   
    19    9   10 1   
    20    9   12 1   
    21    9   44 1   
    22   10   11 1   
    23   11   14 1   
    24   11   34 1   
    25   12   13 1   
    26   12   36 1   
    27   13   14 1   
    28   13   35 1   
    29   14   15 1   
    30   15   16 1   
    31   16   17 1   
    32   16   37 1   
    33   17   18 1   
    34   18   19 1   
    35   18   38 1   
    36   18   39 1   
    37   19   20 1   
    38   20   21 1   
    39   22   25 1   
    40   22   41 1   
    41   23   32 1   
    42   24   25 1   
    43   25   40 1   
    44   40   42 1   
    45   40   43 1   
@<TRIPOS>SUBSTRUCTURE
     1 3YS         1 TEMP              0 ****  ****    0 ROOT
