@<TRIPOS>MOLECULE
3YT
   54    57     1     0     0
SMALL
bcc


@<TRIPOS>ATOM
      1 C2          1.7270    1.1600    0.8580 c3        1 3YT      0.117500
      2 C3          2.9930    1.7450    1.4970 c3        1 3YT     -0.098400
      3 C11        -2.9060    4.5750    0.2610 c1        1 3YT     -0.027900
      4 C12        -2.6910    5.7340   -0.5270 ce        1 3YT     -0.581900
      5 C13        -3.8320    6.5580   -0.8030 c         1 3YT      0.613300
      6 C16        -1.3550    6.0240   -1.0100 ce        1 3YT      0.818500
      7 C18         0.1250    7.4390   -2.3730 c2        1 3YT      0.137800
      8 C19         0.2440    8.7080   -3.2750 c3        1 3YT     -0.042000
      9 C20         1.7220    8.7600   -3.6790 c2        1 3YT     -0.029200
     10 C21         2.3050    7.7110   -3.0980 ce        1 3YT     -0.188200
     11 C22         2.7920    6.5480   -2.3410 cx        1 3YT      0.395900
     12 C23         1.3540    6.9010   -2.3140 ce        1 3YT     -0.277200
     13 C26         2.5370    3.1800   -1.9160 c1        1 3YT      0.274800
     14 C27         3.3830    4.6000   -5.2670 c2        1 3YT      0.427100
     15 N1          1.9270    0.9200   -0.6000 nz        1 3YT     -0.922600
     16 C4          2.7990    1.9100    2.9900 c3        1 3YT     -0.086400
     17 C5          1.5880    2.7610    3.3030 c3        1 3YT     -0.091400
     18 C6          0.3400    2.1910    2.6690 c3        1 3YT     -0.108400
     19 C7          0.4660    2.0430    1.1440 c3        1 3YT      0.032000
     20 N8          0.5320    3.2830    0.4040 nu        1 3YT     -0.404100
     21 C9         -0.5590    4.0980    0.1260 cf        1 3YT      0.569800
     22 N10        -1.8730    3.7740    0.5670 nu        1 3YT     -0.285500
     23 N14        -5.1230    6.0960   -0.1590 nz        1 3YT     -0.747400
     24 O15        -3.9310    7.5810   -1.4800 o         1 3YT     -0.501100
     25 N24         3.3540    5.3200   -2.9910 nh        1 3YT     -0.056500
     26 N25         2.8090    4.1810   -2.4650 n1        1 3YT     -0.475800
     27 N28         3.5370    5.4680   -4.3320 n2        1 3YT     -0.441400
     28 N29        -0.3050    5.1960   -0.6380 nf        1 3YT     -0.779000
     29 H1          1.4320    3.7220    0.3570 hn        1 3YT      0.313700
     30 H2          1.5150    0.1580    1.3460 hx        1 3YT      0.112700
     31 H3          3.8610    1.0530    1.3180 hc        1 3YT      0.070700
     32 H4         -2.0370    2.9660    1.1310 hn        1 3YT      0.328700
     33 H5         -0.4050    8.6110   -4.1790 hc        1 3YT      0.104200
     34 H6         -0.0370    9.6260   -2.7010 hc        1 3YT      0.104200
     35 H7          2.1170    9.5470   -4.3210 ha        1 3YT      0.192000
     36 H8          3.4120    6.7220   -1.4250 h1        1 3YT      0.141700
     37 H11         2.1890    1.8660   -1.1380 hn        1 3YT      0.473800
     38 H12         1.0790    0.5340   -1.0090 hn        1 3YT      0.473800
     39 H14         3.2510    2.7320    1.0330 hc        1 3YT      0.070700
     40 H15         3.7180    2.3890    3.4230 hc        1 3YT      0.081200
     41 H16         2.6910    0.9030    3.4730 hc        1 3YT      0.081200
     42 H17         1.7570    3.8120    2.9500 hc        1 3YT      0.072200
     43 H18         1.4450    2.8070    4.4170 hc        1 3YT      0.072200
     44 H19        -0.5390    2.8430    2.9160 hc        1 3YT      0.074200
     45 H20         0.1300    1.1730    3.0960 hc        1 3YT      0.074200
     46 H21        -0.4370    1.4650    0.7740 h1        1 3YT      0.067700
     47 H22        -4.9590    5.1900    0.3210 hn        1 3YT      0.477133
     48 H23        -5.8480    5.9900   -0.8750 hn        1 3YT      0.477133
     49 H9          2.9510    3.5860   -5.2000 h4        1 3YT      0.033300
     50 H13         2.6900    0.2560   -0.7280 hn        1 3YT      0.473800
     51 H143       -5.4350    6.7960    0.5190 hn        1 3YT      0.477133
     52 N17        -1.1060    7.0840   -1.8320 nu        1 3YT     -0.614000
     53 H10         3.7360    4.9190   -6.2700 h4        1 3YT      0.033300
     54 H24        -1.8760    7.6890   -2.0630 hn        1 3YT      0.491800
@<TRIPOS>BOND
     1    1    2 1   
     2    1   15 1   
     3    1   19 1   
     4    1   30 1   
     5    2   16 1   
     6    2   31 1   
     7    2   39 1   
     8    3    4 2   
     9    3   22 2   
    10    4    5 1   
    11    4    6 1   
    12    5   23 1   
    13    5   24 2   
    14    6   28 2   
    15    6   52 1   
    16    7    8 1   
    17    7   12 2   
    18    7   52 1   
    19    8    9 1   
    20    8   33 1   
    21    8   34 1   
    22    9   10 2   
    23    9   35 1   
    24   10   11 1   
    25   10   12 1   
    26   11   12 1   
    27   11   25 1   
    28   11   36 1   
    29   13   26 3   
    30   14   27 2   
    31   14   49 1   
    32   14   53 1   
    33   15   37 1   
    34   15   38 1   
    35   15   50 1   
    36   16   17 1   
    37   16   40 1   
    38   16   41 1   
    39   17   18 1   
    40   17   42 1   
    41   17   43 1   
    42   18   19 1   
    43   18   44 1   
    44   18   45 1   
    45   19   20 1   
    46   19   46 1   
    47   20   21 2   
    48   20   29 1   
    49   21   22 1   
    50   21   28 1   
    51   22   32 1   
    52   23   47 1   
    53   23   48 1   
    54   23   51 1   
    55   25   26 1   
    56   25   27 1   
    57   52   54 1   
@<TRIPOS>SUBSTRUCTURE
     1 3YT         1 TEMP              0 ****  ****    0 ROOT
