@<TRIPOS>MOLECULE
3YT
   54    57     1     0     0
SMALL
bcc


@<TRIPOS>ATOM
      1 C2          1.7500    1.1600    0.8760 c3        1 3YT      0.117500
      2 C3          3.0210    1.7520    1.4970 c3        1 3YT     -0.098400
      3 C11        -2.8970    4.5600    0.3000 c1        1 3YT     -0.027900
      4 C12        -2.6920    5.7130   -0.5000 ce        1 3YT     -0.581900
      5 C13        -3.8380    6.5320   -0.7700 c         1 3YT      0.613300
      6 C16        -1.3620    6.0020   -0.9990 ce        1 3YT      0.818500
      7 C18         0.1000    7.4090   -2.3890 c2        1 3YT      0.137800
      8 C19         0.2060    8.6710   -3.3020 c3        1 3YT     -0.042000
      9 C20         1.6790    8.7220   -3.7230 c2        1 3YT     -0.029200
     10 C21         2.2710    7.6790   -3.1390 ce        1 3YT     -0.188200
     11 C22         2.7690    6.5250   -2.3770 cx        1 3YT      0.395900
     12 C23         1.3310    6.8740   -2.3380 ce        1 3YT     -0.277200
     13 C26         2.5260    3.1590   -1.9220 c1        1 3YT      0.274800
     14 C27         3.3360    4.5540   -5.2930 c2        1 3YT      0.427100
     15 N1          1.9350    0.9090   -0.5820 n4        1 3YT     -0.922600
     16 C4          2.8420    1.9300    2.9900 c3        1 3YT     -0.086400
     17 C5          1.6330    2.7800    3.3090 c3        1 3YT     -0.091400
     18 C6          0.3790    2.2030    2.6930 c3        1 3YT     -0.108400
     19 C7          0.4890    2.0420    1.1680 c3        1 3YT      0.032000
     20 N8          0.5460    3.2760    0.4170 nh        1 3YT     -0.404100
     21 C9         -0.5500    4.0870    0.1440 cf        1 3YT      0.569800
     22 N10        -1.8590    3.7640    0.6020 nh        1 3YT     -0.285500
     23 N14        -5.1220    6.0720   -0.1090 n4        1 3YT     -0.747400
     24 O15        -3.9470    7.5490   -1.4550 o         1 3YT     -0.501100
     25 N24         3.3270    5.2920   -3.0230 nh        1 3YT     -0.057500
     26 N25         2.7900    4.1560   -2.4820 n1        1 3YT     -0.475800
     27 N28         3.4970    5.4300   -4.3670 n2        1 3YT     -0.441400
     28 N29        -0.3060    5.1790   -0.6310 nf        1 3YT     -0.779000
     29 H1          1.4440    3.7170    0.3570 hn        1 3YT      0.313700
     30 H2          1.5450    0.1610    1.3740 hx        1 3YT      0.112700
     31 H3          3.8880    1.0620    1.3140 hc        1 3YT      0.070700
     32 H4         -2.0150    2.9590    1.1740 hn        1 3YT      0.328700
     33 H5         -0.4520    8.5640   -4.1990 hc        1 3YT      0.104200
     34 H6         -0.0710    9.5920   -2.7330 hc        1 3YT      0.104200
     35 H7          2.0660    9.5050   -4.3750 ha        1 3YT      0.192000
     36 H8          3.3980    6.7070   -1.4680 h1        1 3YT      0.141700
     37 H11         2.1900    1.8510   -1.1310 hn        1 3YT      0.473800
     38 H12         1.0840    0.5180   -0.9790 hn        1 3YT      0.473800
     39 H14         3.2720    2.7370    1.0220 hc        1 3YT      0.070700
     40 H15         3.7650    2.4130    3.4100 hc        1 3YT      0.081200
     41 H16         2.7420    0.9260    3.4830 hc        1 3YT      0.081200
     42 H17         1.7960    3.8290    2.9460 hc        1 3YT      0.072200
     43 H18         1.5020    2.8340    4.4240 hc        1 3YT      0.072200
     44 H19         0.1770    1.1880    3.1300 hc        1 3YT      0.074200
     45 H20        -0.4980    2.8550    2.9450 hc        1 3YT      0.074200
     46 H21        -0.4160    1.4590    0.8130 h1        1 3YT      0.067700
     47 H22        -4.9500    5.1710    0.3770 hn        1 3YT      0.477467
     48 H23        -5.8540    5.9600   -0.8160 hn        1 3YT      0.477467
     49 H9          2.9070    3.5390   -5.2130 h4        1 3YT      0.033300
     50 H13         2.6980    0.2450   -0.7130 hn        1 3YT      0.473800
     51 H143       -5.4280    6.7780    0.5680 hn        1 3YT      0.477467
     52 N17        -1.1250    7.0550   -1.8320 nh        1 3YT     -0.614000
     53 H10         3.6790    4.8660   -6.3020 h4        1 3YT      0.033300
     54 H24        -1.8990    7.6570   -2.0600 hn        1 3YT      0.491800
@<TRIPOS>BOND
     1    1    2 1   
     2    1   15 1   
     3    1   19 1   
     4    1   30 1   
     5    2   16 1   
     6    2   31 1   
     7    2   39 1   
     8    3    4 2   
     9    3   22 2   
    10    4    5 1   
    11    4    6 1   
    12    5   23 1   
    13    5   24 2   
    14    6   28 2   
    15    6   52 1   
    16    7    8 1   
    17    7   12 2   
    18    7   52 1   
    19    8    9 1   
    20    8   33 1   
    21    8   34 1   
    22    9   10 2   
    23    9   35 1   
    24   10   11 1   
    25   10   12 1   
    26   11   12 1   
    27   11   25 1   
    28   11   36 1   
    29   13   26 3   
    30   14   27 2   
    31   14   49 1   
    32   14   53 1   
    33   15   37 1   
    34   15   38 1   
    35   15   50 1   
    36   16   17 1   
    37   16   40 1   
    38   16   41 1   
    39   17   18 1   
    40   17   42 1   
    41   17   43 1   
    42   18   19 1   
    43   18   44 1   
    44   18   45 1   
    45   19   20 1   
    46   19   46 1   
    47   20   21 2   
    48   20   29 1   
    49   21   22 1   
    50   21   28 1   
    51   22   32 1   
    52   23   47 1   
    53   23   48 1   
    54   23   51 1   
    55   25   26 1   
    56   25   27 1   
    57   52   54 1   
@<TRIPOS>SUBSTRUCTURE
     1 3YT         1 TEMP              0 ****  ****    0 ROOT
