@<TRIPOS>MOLECULE
3YU
   64    65     1     0     0
SMALL
bcc


@<TRIPOS>ATOM
      1 N14        -1.7260    0.8740   -0.7930 n2        1 3YU     -0.134000
      2 C13        -0.4080    1.1380   -1.1750 c2        1 3YU     -0.127000
      3 C18         3.1610   -1.4540   -0.4610 c2        1 3YU      0.256000
      4 C17         2.9570   -0.4800   -1.5510 c2        1 3YU     -0.129000
      5 C16         1.8610    0.2830   -1.7700 c2        1 3YU     -0.019000
      6 C15         0.6700    0.1650   -0.9080 c3        1 3YU     -0.085000
      7 C19         2.3110   -1.7860    0.5050 c1        1 3YU     -0.542000
      8 C20         1.4800   -2.0680    1.4120 c1        1 3YU      0.086000
      9 C21        -3.6870   -1.9630    8.9940 c2        1 3YU     -0.465000
     10 C22        -2.7230   -2.7900    9.3940 c1        1 3YU      0.239000
     11 C23        -1.4450   -3.5540    7.5110 c2        1 3YU     -0.083000
     12 C24        -1.4820   -2.2190    7.3410 c2        1 3YU     -0.167000
     13 C12        -0.3220    2.4470   -1.7040 c2        1 3YU     -0.133000
     14 C33        -5.7300    0.1460    8.1130 c2        1 3YU     -0.073000
     15 N1         -1.2590   -1.1700    2.1630 n         1 3YU     -0.392000
     16 C2         -3.8350    2.1800   -0.7170 c2        1 3YU     -0.075000
     17 C3         -2.4300    2.0090   -1.0570 c2        1 3YU     -0.036000
     18 C4         -4.3210    3.2660   -0.0980 c2        1 3YU     -0.140000
     19 C5         -5.6870    3.3730    0.3980 c2        1 3YU     -0.120000
     20 C6         -6.3380    2.1280    0.9160 c3        1 3YU     -0.188000
     21 C7         -5.4950    1.3820    1.8610 c2        1 3YU      0.268000
     22 C8         -5.9820    0.6400    2.9150 c2        1 3YU     -0.578000
     23 C9         -7.2120    0.4300    3.4350 c1        1 3YU      0.606000
     24 C10        -6.3460    4.5390    0.4040 c2        1 3YU     -0.141000
     25 N11        -1.5970    2.9930   -1.6190 na        1 3YU     -0.178000
     26 C25        -2.6510   -1.5000    6.8340 c2        1 3YU     -0.058000
     27 C26        -3.7290   -1.3590    7.6680 c2        1 3YU      0.114000
     28 N27        -4.9110   -0.6610    7.2910 na        1 3YU     -0.119000
     29 C29        -2.5810   -0.9210    5.5040 c2        1 3YU     -0.062000
     30 C30        -2.1490   -1.5690    4.4140 c2        1 3YU     -0.178000
     31 O32        -3.1880   -0.1420    2.7980 o         1 3YU     -0.502000
     32 N34        -6.6930    0.6510    7.2960 n2        1 3YU     -0.086000
     33 N35        -6.4480    0.1660    6.0780 n2        1 3YU     -0.113000
     34 N36        -5.4260   -0.6030    6.0410 n2        1 3YU     -0.040000
     35 N37         4.2180   -0.4060   -2.2670 na        1 3YU     -0.166000
     36 N38         5.0700   -1.3560   -1.8180 n2        1 3YU     -0.066000
     37 C39         4.5580   -1.9500   -0.7130 c2        1 3YU     -0.017000
     38 N40         5.2160   -2.7910    0.1630 nh        1 3YU     -0.299000
     39 H52         1.8270    1.0090   -2.6010 ha        1 3YU      0.151000
     40 H53         0.2690   -0.8910   -0.9880 hc        1 3YU      0.138000
     41 H54         0.9870    0.2800    0.1760 hc        1 3YU      0.138000
     42 H56        -2.2860   -4.2280    7.2780 h4        1 3YU      0.167000
     43 H57        -0.6050   -1.5800    7.5560 ha        1 3YU      0.174000
     44 H51         0.5240    3.0010   -2.1100 h4        1 3YU      0.191000
     45 H60        -5.5840    0.3110    9.1870 h5        1 3YU      0.242000
     46 H41        -0.4620   -1.7360    2.3710 hn        1 3YU      0.258000
     47 H42        -5.8960    5.4630    0.0130 ha        1 3YU      0.138500
     48 H43        -3.6870    4.1520    0.0880 ha        1 3YU      0.147000
     49 H44        -4.4620    1.2990   -0.9430 ha        1 3YU      0.147000
     50 H45        -6.5240    1.4310    0.0360 hc        1 3YU      0.153000
     51 H46        -7.3480    2.3650    1.3520 hc        1 3YU      0.153000
     52 H47        -4.3880    1.3920    1.6870 ha        1 3YU      0.224000
     53 H48        -5.1710    0.0640    3.4880 ha        1 3YU      0.307000
     54 H49        -7.3710    4.6430    0.7870 ha        1 3YU      0.138500
     55 H50        -1.8780    3.8810   -1.9430 hn        1 3YU      0.263000
     56 H58        -2.9320    0.1250    5.4150 ha        1 3YU      0.146000
     57 H59        -1.7630   -2.5990    4.4400 ha        1 3YU      0.157000
     58 H61         4.1510   -0.3900   -3.2720 hn        1 3YU      0.229000
     59 H63         4.6120   -3.3810    0.6920 hn        1 3YU      0.218500
     60 H62         6.0440   -3.2270   -0.1790 hn        1 3YU      0.218500
     61 CL1        -0.0700   -4.3680    8.0370 cl        1 3YU      0.040000
     62 H12        -1.3050   -0.7420    1.2680 hn        1 3YU      0.258000
     63 C31        -2.2240   -0.9110    3.0790 c2        1 3YU      0.351000
     64 H55        -4.5000   -1.7370    9.7130 ha        1 3YU      0.196000
@<TRIPOS>BOND
     1    1    2 1   
     2    1   17 1   
     3    2    6 1   
     4    2   13 1   
     5    3    4 1   
     6    3    7 1   
     7    3   37 1   
     8    4    5 1   
     9    4   35 1   
    10    5    6 1   
    11    5   39 1   
    12    6   40 1   
    13    6   41 1   
    14    7    8 1   
    15    9   10 1   
    16    9   27 1   
    17    9   64 1   
    18   11   12 1   
    19   11   42 1   
    20   11   61 1   
    21   12   26 1   
    22   12   43 1   
    23   13   25 1   
    24   13   44 1   
    25   14   28 1   
    26   14   32 1   
    27   14   45 1   
    28   15   46 1   
    29   15   62 1   
    30   15   63 1   
    31   16   17 1   
    32   16   18 1   
    33   16   49 1   
    34   17   25 1   
    35   18   19 1   
    36   18   48 1   
    37   19   20 1   
    38   19   24 1   
    39   20   21 1   
    40   20   50 1   
    41   20   51 1   
    42   21   22 1   
    43   21   52 1   
    44   22   23 1   
    45   22   53 1   
    46   24   47 1   
    47   24   54 1   
    48   25   55 1   
    49   26   27 1   
    50   26   29 1   
    51   27   28 1   
    52   28   34 1   
    53   29   30 1   
    54   29   56 1   
    55   30   57 1   
    56   30   63 1   
    57   31   63 1   
    58   32   33 1   
    59   33   34 1   
    60   35   36 1   
    61   35   58 1   
    62   36   37 1   
    63   37   38 1   
    64   38   59 1   
    65   38   60 1   
@<TRIPOS>SUBSTRUCTURE
     1 3YU         1 TEMP              0 ****  ****    0 ROOT
