@<TRIPOS>MOLECULE
3YU
   64    65     1     0     0
SMALL
bcc


@<TRIPOS>ATOM
      1 N14        -0.6560   -1.1270    2.1030 n2        1 3YU     -0.190000
      2 C13         0.7240   -1.0710    2.3300 c2        1 3YU     -0.041000
      3 C18         3.3380    1.8590   -3.5440 c2        1 3YU     -0.427000
      4 C17         2.3250    2.7040   -2.8630 c2        1 3YU      0.001000
      5 C16         1.6760    3.7610   -3.3610 c2        1 3YU     -0.225000
      6 C15         1.3680   -1.6030    3.4520 c1        1 3YU     -0.108000
      7 C19         3.8480    1.9790   -4.7580 c1        1 3YU      0.316000
      8 C20         1.9400   -2.0510    4.4030 c1        1 3YU     -0.181000
      9 C21        -3.3650    0.6900    8.9020 c2        1 3YU     -0.485000
     10 C22        -2.1570    1.2480    8.7800 c1        1 3YU      0.264000
     11 C23        -1.5330    1.4980    6.4560 c2        1 3YU     -0.069000
     12 C24        -1.9580    0.2310    6.6340 c2        1 3YU     -0.173000
     13 C12         1.3600   -0.4040    1.2480 c2        1 3YU     -0.083000
     14 C33        -6.2950    0.1050    9.0140 c2        1 3YU     -0.063000
     15 N1         -3.1210   -2.8460    2.5600 n8        1 3YU     -0.285000
     16 C2         -2.1510   -0.3650    0.2480 c2        1 3YU     -0.085000
     17 C3         -0.8550   -0.5070    0.9030 c2        1 3YU     -0.051000
     18 C4         -3.2480   -0.0600    0.9530 c2        1 3YU     -0.119000
     19 C5         -4.6120   -0.1330    0.4280 c2        1 3YU     -0.045000
     20 C6         -5.2200   -1.4990    0.4880 c3        1 3YU     -0.157000
     21 C7         -5.7380   -1.9040    1.8550 c3        1 3YU     -0.033000
     22 C8         -6.2120    2.2020   -1.8780 c1        1 3YU      0.035000
     23 C9         -5.9660    1.8820   -0.5330 c2        1 3YU     -0.140000
     24 C10        -5.2540    0.8980   -0.0490 c1        1 3YU     -0.186000
     25 N11         0.3600   -0.0610    0.3570 na        1 3YU     -0.155000
     26 C25        -3.3770   -0.1440    6.6250 c2        1 3YU     -0.167000
     27 C26        -4.0660    0.0350    7.8070 c2        1 3YU      0.226000
     28 N27        -5.3960   -0.3810    8.0240 na        1 3YU     -0.181000
     29 C29        -3.9240   -0.7050    5.4190 c2        1 3YU      0.089000
     30 C30        -3.1650   -1.3490    4.4990 c2        1 3YU     -0.259000
     31 O32        -4.9710   -1.4310    2.9810 os        1 3YU     -0.185000
     32 N34        -7.4200   -0.6310    8.8830 n2        1 3YU     -0.080000
     33 N35        -7.1990   -1.5070    7.8860 n2        1 3YU     -0.012000
     34 N36        -6.0440   -1.3950    7.3700 n2        1 3YU     -0.021000
     35 N37         2.1120    2.1060   -1.5420 na        1 3YU     -0.178000
     36 N38         2.9560    1.0430   -1.3730 n2        1 3YU     -0.196000
     37 C39         3.6710    0.8270   -2.4910 c2        1 3YU      0.127000
     38 N40         4.6360   -0.1350   -2.7000 nv        1 3YU     -0.325000
     39 H52         0.9420    4.3320   -2.7790 ha        1 3YU      0.137500
     40 H53         2.4600   -2.4470    5.2390 ha        1 3YU      0.233000
     41 H54         1.8500    4.1130   -4.3860 ha        1 3YU      0.137500
     42 H56        -2.2110    2.3520    6.2940 h4        1 3YU      0.166000
     43 H57        -1.2510   -0.6070    6.7770 ha        1 3YU      0.172000
     44 H51         2.4120   -0.1690    1.0750 h4        1 3YU      0.212000
     45 H60        -6.0870    0.9260    9.7090 h5        1 3YU      0.239000
     46 H41        -3.4890   -3.1690    1.6920 hn        1 3YU      0.280000
     47 H42        -2.1800   -3.1040    2.7920 hn        1 3YU      0.280000
     48 H43        -3.1820    0.2310    2.0180 ha        1 3YU      0.138000
     49 H44        -2.1740   -0.5730   -0.8350 ha        1 3YU      0.150000
     50 H45        -4.4660   -2.2430    0.1130 hc        1 3YU      0.112000
     51 H46        -6.1000   -1.5520   -0.2140 hc        1 3YU      0.112000
     52 H47        -6.7270   -1.3980    2.0670 h1        1 3YU      0.133000
     53 H48        -5.5220    2.7980   -2.4830 ha        1 3YU      0.109000
     54 H49        -6.5910    2.5020    0.1590 ha        1 3YU      0.202000
     55 H50         0.4690    0.4300   -0.4960 hn        1 3YU      0.290000
     56 H58        -5.0120   -0.5870    5.2450 ha        1 3YU      0.166000
     57 H59        -2.0750   -1.4790    4.6230 ha        1 3YU      0.192000
     58 H61         2.2620    2.7890   -0.8090 hn        1 3YU      0.190000
     59 H63         4.7430   -0.4440   -3.6380 hn        1 3YU      0.221500
     60 H62         4.7310   -0.8400   -2.0030 hn        1 3YU      0.221500
     61 Cl1         0.0920    1.9190    6.4000 cl        1 3YU      0.049000
     62 H12        -5.8600   -3.0160    1.9310 h1        1 3YU      0.133000
     63 C31        -3.7410   -1.9090    3.2810 c2        1 3YU      0.363000
     64 H55        -3.8310    0.7100    9.9090 ha        1 3YU      0.204000
@<TRIPOS>BOND
     1    1    2 1   
     2    1   17 1   
     3    2    6 1   
     4    2   13 1   
     5    3    4 1   
     6    3    7 1   
     7    3   37 1   
     8    4    5 1   
     9    4   35 1   
    10    5   39 1   
    11    5   41 1   
    12    6    8 1   
    13    8   40 1   
    14    9   10 1   
    15    9   27 1   
    16    9   64 1   
    17   11   12 1   
    18   11   42 1   
    19   11   61 1   
    20   12   26 1   
    21   12   43 1   
    22   13   25 1   
    23   13   44 1   
    24   14   28 1   
    25   14   32 1   
    26   14   45 1   
    27   15   46 1   
    28   15   47 1   
    29   15   63 1   
    30   16   17 1   
    31   16   18 1   
    32   16   49 1   
    33   17   25 1   
    34   18   19 1   
    35   18   48 1   
    36   19   20 1   
    37   19   24 1   
    38   20   21 1   
    39   20   50 1   
    40   20   51 1   
    41   21   31 1   
    42   21   52 1   
    43   21   62 1   
    44   22   23 1   
    45   22   53 1   
    46   23   24 1   
    47   23   54 1   
    48   25   55 1   
    49   26   27 1   
    50   26   29 1   
    51   27   28 1   
    52   28   34 1   
    53   29   30 1   
    54   29   56 1   
    55   30   57 1   
    56   30   63 1   
    57   31   63 1   
    58   32   33 1   
    59   33   34 1   
    60   35   36 1   
    61   35   58 1   
    62   36   37 1   
    63   37   38 1   
    64   38   59 1   
    65   38   60 1   
@<TRIPOS>SUBSTRUCTURE
     1 3YU         1 TEMP              0 ****  ****    0 ROOT
