@<TRIPOS>MOLECULE
3YV
   53    56     1     0     0
SMALL
bcc


@<TRIPOS>ATOM
      1 C4         -0.1850    1.0780    0.0010 c3        1 3YV     -0.108400
      2 C5          1.1560    0.3360   -0.1460 c3        1 3YV      0.182500
      3 C6          2.3890    1.1640   -2.1280 ca        1 3YV      0.863900
      4 N1          2.2270    1.1290   -0.7320 nu        1 3YV     -0.828900
      5 C7          2.8320    1.0390   -4.8030 ca        1 3YV     -0.050500
      6 C8          3.0290    0.9360   -6.2280 c         1 3YV      0.499600
      7 N2          2.1400   -0.0570   -2.8860 nb        1 3YV     -0.370000
      8 C9          3.1070    2.2800   -4.0710 ca        1 3YV      0.723900
      9 C10         3.8580    4.6270   -4.0270 ca        1 3YV      0.075600
     10 C11         4.7570    4.7020   -2.9510 ca        1 3YV     -0.119000
     11 C12         5.0350    5.9480   -2.3920 ca        1 3YV     -0.105000
     12 N3          2.3570   -0.0660   -4.1010 nb        1 3YV     -0.212000
     13 C13         4.4430    7.1090   -2.8740 ca        1 3YV     -0.100000
     14 C14         3.5340    7.0370   -3.9550 ca        1 3YV      0.087800
     15 C15         3.2400    5.7860   -4.5340 ca        1 3YV     -0.136000
     16 N4          2.6850   -0.3860   -6.8840 nz        1 3YV     -0.739400
     17 O           3.4420    1.7790   -7.0210 o         1 3YV     -0.466100
     18 N9          2.8550    2.3010   -2.6930 nb        1 3YV     -0.754000
     19 C3         -0.1280    2.2010    1.0110 c3        1 3YV     -0.097400
     20 C2          0.3260    1.7080    2.3670 c3        1 3YV     -0.085400
     21 C1          1.6570    0.9860    2.2870 c3        1 3YV     -0.106400
     22 C           1.5580   -0.1620    1.2790 c3        1 3YV      0.115500
     23 N           2.8310   -0.9610    1.2430 nz        1 3YV     -0.836600
     24 N5          3.5870    3.3840   -4.6770 nu        1 3YV     -0.641300
     25 N6          2.9140    8.2200   -4.4590 na        1 3YV      0.261800
     26 N8          2.0890    8.2270   -5.5470 nc        1 3YV     -0.478300
     27 C17         1.7440    9.5140   -5.7250 cd        1 3YV      0.234900
     28 C16         2.4120   10.3050   -4.6780 cd        1 3YV      0.234900
     29 N7          3.1270    9.4560   -3.9190 nc        1 3YV     -0.478300
     30 H1         -0.4950    1.4800   -1.0000 hc        1 3YV      0.081700
     31 H2         -0.9610    0.3280    0.3120 hc        1 3YV      0.081700
     32 H3          0.9680   -0.5800   -0.7850 h1        1 3YV      0.102700
     33 H4          2.3160    2.0350   -0.2970 hn        1 3YV      0.447800
     34 H5          5.2510    3.8030   -2.5550 ha        1 3YV      0.143000
     35 H6          5.7500    6.0160   -1.5550 ha        1 3YV      0.160000
     36 H7          4.6980    8.0760   -2.4060 ha        1 3YV      0.187000
     37 H8          2.5370    5.7110   -5.3810 ha        1 3YV      0.172000
     38 H9          1.6960   -0.6070   -6.7330 hn        1 3YV      0.475467
     39 H10         2.8700   -0.3230   -7.8950 hn        1 3YV      0.475467
     40 H11        -1.1520    2.6540    1.1090 hc        1 3YV      0.075200
     41 H12         0.5530    3.0180    0.6530 hc        1 3YV      0.075200
     42 H13         0.4310    2.5780    3.0700 hc        1 3YV      0.083200
     43 H14        -0.4510    1.0230    2.8020 hc        1 3YV      0.083200
     44 H15         1.9140    0.5850    3.3040 hc        1 3YV      0.073700
     45 H16         2.4640    1.7070    1.9920 hc        1 3YV      0.073700
     46 H17         0.7400   -0.8740    1.6130 hx        1 3YV      0.124700
     47 H18         3.6270   -0.3480    1.0400 hn        1 3YV      0.463467
     48 H19         2.9830   -1.4070    2.1550 hn        1 3YV      0.463467
     49 H21         3.6960    3.3910   -5.6770 hn        1 3YV      0.492800
     50 H22         1.0850    9.8710   -6.5170 h4        1 3YV      0.078100
     51 H23         2.3610   11.3830   -4.5130 h4        1 3YV      0.078100
     52 H43         3.2550   -1.1380   -6.4820 hn        1 3YV      0.475467
     53 HN3         2.7730   -1.6810    0.5170 hn        1 3YV      0.463467
@<TRIPOS>BOND
     1    1    2 1   
     2    1   19 1   
     3    1   30 1   
     4    1   31 1   
     5    2    4 1   
     6    2   22 1   
     7    2   32 1   
     8    3    4 1   
     9    3    7 ar  
    10    3   18 ar  
    11    4   33 1   
    12    5    6 1   
    13    5    8 ar  
    14    5   12 ar  
    15    6   16 1   
    16    6   17 2   
    17    7   12 ar  
    18    8   18 ar  
    19    8   24 1   
    20    9   10 ar  
    21    9   15 ar  
    22    9   24 1   
    23   10   11 ar  
    24   10   34 1   
    25   11   13 ar  
    26   11   35 1   
    27   13   14 ar  
    28   13   36 1   
    29   14   15 ar  
    30   14   25 1   
    31   15   37 1   
    32   16   38 1   
    33   16   39 1   
    34   16   52 1   
    35   19   20 1   
    36   19   40 1   
    37   19   41 1   
    38   20   21 1   
    39   20   42 1   
    40   20   43 1   
    41   21   22 1   
    42   21   44 1   
    43   21   45 1   
    44   22   23 1   
    45   22   46 1   
    46   23   47 1   
    47   23   48 1   
    48   23   53 1   
    49   24   49 1   
    50   25   26 1   
    51   25   29 1   
    52   26   27 2   
    53   27   28 1   
    54   27   50 1   
    55   28   29 2   
    56   28   51 1   
@<TRIPOS>SUBSTRUCTURE
     1 3YV         1 TEMP              0 ****  ****    0 ROOT
