@<TRIPOS>MOLECULE
3YV
   53    56     1     0     0
SMALL
bcc


@<TRIPOS>ATOM
      1 C4         -0.1880    1.0540    0.0050 c3        1 3YV     -0.108400
      2 C5          1.1630    0.3290   -0.1370 c3        1 3YV      0.182500
      3 C6          2.3880    1.1670   -2.1200 ca        1 3YV      0.863900
      4 N1          2.2250    1.1330   -0.7230 nh        1 3YV     -0.828900
      5 C7          2.8330    1.0430   -4.7940 ca        1 3YV     -0.050500
      6 C8          3.0320    0.9400   -6.2190 c         1 3YV      0.499600
      7 N2          2.1510   -0.0570   -2.8760 nb        1 3YV     -0.370000
      8 C9          3.0950    2.2880   -4.0650 ca        1 3YV      0.723900
      9 C10         3.8210    4.6420   -4.0240 ca        1 3YV      0.075600
     10 C11         4.7200    4.7290   -2.9480 ca        1 3YV     -0.119000
     11 C12         4.9850    5.9780   -2.3900 ca        1 3YV     -0.105000
     12 N3          2.3690   -0.0650   -4.0910 nb        1 3YV     -0.212000
     13 C13         4.3800    7.1320   -2.8740 ca        1 3YV     -0.100000
     14 C14         3.4730    7.0490   -3.9550 ca        1 3YV      0.087800
     15 C15         3.1910    5.7950   -4.5320 ca        1 3YV     -0.136000
     16 N4          2.7020   -0.3870   -6.8730 n4        1 3YV     -0.739400
     17 O           3.4370    1.7860   -7.0130 o         1 3YV     -0.466100
     18 N9          2.8420    2.3090   -2.6870 nb        1 3YV     -0.754000
     19 C3         -0.1470    2.1810    1.0110 c3        1 3YV     -0.097400
     20 C2          0.3100    1.6980    2.3690 c3        1 3YV     -0.085400
     21 C1          1.6510    0.9940    2.2940 c3        1 3YV     -0.106400
     22 C           1.5690   -0.1590    1.2900 c3        1 3YV      0.115500
     23 N           2.8520   -0.9420    1.2600 n4        1 3YV     -0.836600
     24 N5          3.5640    3.3960   -4.6720 nh        1 3YV     -0.641300
     25 N6          2.8400    8.2250   -4.4590 na        1 3YV      0.261800
     26 N8          2.0160    8.2220   -5.5490 nc        1 3YV     -0.478300
     27 C17         1.6570    9.5050   -5.7270 cd        1 3YV      0.234900
     28 C16         2.3150   10.3040   -4.6800 cd        1 3YV      0.234900
     29 N7          3.0390    9.4640   -3.9210 nc        1 3YV     -0.478300
     30 H1         -0.9540    0.2950    0.3170 hc        1 3YV      0.081700
     31 H2         -0.5010    1.4480   -0.9980 hc        1 3YV      0.081700
     32 H3          0.9880   -0.5920   -0.7730 h1        1 3YV      0.102700
     33 H4          2.3030    2.0410   -0.2910 hn        1 3YV      0.447800
     34 H5          5.2230    3.8360   -2.5500 ha        1 3YV      0.143000
     35 H6          5.6990    6.0550   -1.5530 ha        1 3YV      0.160000
     36 H7          4.6250    8.1020   -2.4070 ha        1 3YV      0.187000
     37 H8          2.4890    5.7110   -5.3790 ha        1 3YV      0.172000
     38 H9          2.8860   -0.3230   -7.8840 hn        1 3YV      0.475467
     39 H10         1.7150   -0.6180   -6.7230 hn        1 3YV      0.475467
     40 H11         0.5240    3.0060    0.6510 hc        1 3YV      0.075200
     41 H12        -1.1770    2.6210    1.1050 hc        1 3YV      0.075200
     42 H13         0.4030    2.5730    3.0690 hc        1 3YV      0.083200
     43 H14        -0.4580    1.0050    2.8050 hc        1 3YV      0.083200
     44 H15         2.4490    1.7240    1.9980 hc        1 3YV      0.073700
     45 H16         1.9110    0.5990    3.3140 hc        1 3YV      0.073700
     46 H17         0.7600   -0.8800    1.6260 hx        1 3YV      0.124700
     47 H18         2.8040   -1.6650    0.5360 hn        1 3YV      0.463467
     48 H19         3.6410   -0.3190    1.0560 hn        1 3YV      0.463467
     49 H21         3.6720    3.4020   -5.6720 hn        1 3YV      0.492800
     50 H22         0.9950    9.8540   -6.5210 h4        1 3YV      0.078100
     51 H23         2.2520   11.3810   -4.5170 h4        1 3YV      0.078100
     52 H43         3.2790   -1.1320   -6.4700 hn        1 3YV      0.475467
     53 HN3         3.0080   -1.3830    2.1730 hn        1 3YV      0.463467
@<TRIPOS>BOND
     1    1    2 1   
     2    1   19 1   
     3    1   30 1   
     4    1   31 1   
     5    2    4 1   
     6    2   22 1   
     7    2   32 1   
     8    3    4 1   
     9    3    7 ar  
    10    3   18 ar  
    11    4   33 1   
    12    5    6 1   
    13    5    8 ar  
    14    5   12 ar  
    15    6   16 1   
    16    6   17 2   
    17    7   12 ar  
    18    8   18 ar  
    19    8   24 1   
    20    9   10 ar  
    21    9   15 ar  
    22    9   24 1   
    23   10   11 ar  
    24   10   34 1   
    25   11   13 ar  
    26   11   35 1   
    27   13   14 ar  
    28   13   36 1   
    29   14   15 ar  
    30   14   25 1   
    31   15   37 1   
    32   16   38 1   
    33   16   39 1   
    34   16   52 1   
    35   19   20 1   
    36   19   40 1   
    37   19   41 1   
    38   20   21 1   
    39   20   42 1   
    40   20   43 1   
    41   21   22 1   
    42   21   44 1   
    43   21   45 1   
    44   22   23 1   
    45   22   46 1   
    46   23   47 1   
    47   23   48 1   
    48   23   53 1   
    49   24   49 1   
    50   25   26 1   
    51   25   29 1   
    52   26   27 2   
    53   27   28 1   
    54   27   50 1   
    55   28   29 2   
    56   28   51 1   
@<TRIPOS>SUBSTRUCTURE
     1 3YV         1 TEMP              0 ****  ****    0 ROOT
