@<TRIPOS>MOLECULE
3YW
   42    42     1     0     0
SMALL
bcc


@<TRIPOS>ATOM
      1 O3          0.3300    1.5360    0.3470 oh        1 3YW     -0.610800
      2 C4          3.5090   -0.1510    1.2350 c3        1 3YW      0.132400
      3 C5          2.0880    0.3940    1.4060 c3        1 3YW      0.142100
      4 O4          5.8630    0.4920    2.5440 os        1 3YW     -0.402600
      5 C6          1.6120    0.9940    0.0780 c3        1 3YW      0.094400
      6 C7          5.3450    1.6100    3.2810 c3        1 3YW      0.087100
      7 C8          6.1760    2.8170    2.8350 c3        1 3YW      0.136400
      8 C9          5.4990    1.3480    4.7840 c3        1 3YW      0.093100
      9 O5          5.5160    3.3530    1.7030 oh        1 3YW     -0.599800
     10 C10         4.7560    0.0440    5.1380 c3        1 3YW      0.089100
     11 O6          4.9920    2.3900    5.5850 oh        1 3YW     -0.575800
     12 O7          4.9100   -0.3110    6.4990 oh        1 3YW     -0.634800
     13 O           5.5340   -4.0450    3.2280 o         1 3YW     -0.406100
     14 C           5.5540   -3.6000    4.3640 c         1 3YW      0.553100
     15 C1          6.3290   -4.0890    5.5390 c3        1 3YW     -0.188100
     16 N           4.6610   -2.4040    4.6170 n4        1 3YW     -0.676800
     17 C2          5.3580   -1.1110    4.3060 c3        1 3YW      0.096500
     18 C3          5.2520   -0.7420    2.7920 c3        1 3YW      0.334900
     19 O1          3.8700   -0.6940    2.5110 os        1 3YW     -0.480600
     20 O2          2.1340    1.3740    2.4320 oh        1 3YW     -0.621800
     21 H1          0.0330    1.9740   -0.4600 ho        1 3YW      0.426000
     22 H2          3.5240   -0.9840    0.4860 h1        1 3YW      0.072200
     23 H3          4.2170    0.6660    0.9360 h1        1 3YW      0.072200
     24 H4          1.3880   -0.4280    1.7260 h1        1 3YW      0.060700
     25 H5          1.5420    0.1950   -0.7060 h1        1 3YW      0.046700
     26 H6          2.3130    1.8020   -0.2620 h1        1 3YW      0.046700
     27 H7          4.2580    1.7600    3.0110 h1        1 3YW      0.119700
     28 H8          6.1950    3.5730    3.6670 h1        1 3YW      0.056200
     29 H9          7.2200    2.5010    2.5750 h1        1 3YW      0.056200
     30 H10         6.5850    1.2680    5.0760 h1        1 3YW      0.103700
     31 H11         6.0870    4.0470    1.3490 ho        1 3YW      0.422000
     32 H12         3.6580    0.1620    4.9040 h1        1 3YW      0.094700
     33 H13         4.1540    2.6880    5.2020 ho        1 3YW      0.428000
     34 H14         4.9280    0.5110    7.0160 ho        1 3YW      0.465000
     35 H15         7.0930   -4.8290    5.1820 hc        1 3YW      0.115700
     36 H16         6.8510   -3.2510    6.0670 hc        1 3YW      0.115700
     37 H17         5.6430   -4.6040    6.2620 hc        1 3YW      0.115700
     38 H18         4.3800   -2.3840    5.6070 hn        1 3YW      0.477800
     39 H19         6.4490   -1.2300    4.5710 hx        1 3YW      0.118700
     40 H20         5.7900   -1.4820    2.1330 h2        1 3YW      0.108700
     41 H21         1.3230    1.8990    2.3560 ho        1 3YW      0.439000
     42 HN3         3.8160   -2.4590    4.0260 hn        1 3YW      0.477800
@<TRIPOS>BOND
     1    1    5 1   
     2    1   21 1   
     3    2    3 1   
     4    2   19 1   
     5    2   22 1   
     6    2   23 1   
     7    3    5 1   
     8    3   20 1   
     9    3   24 1   
    10    4    6 1   
    11    4   18 1   
    12    5   25 1   
    13    5   26 1   
    14    6    7 1   
    15    6    8 1   
    16    6   27 1   
    17    7    9 1   
    18    7   28 1   
    19    7   29 1   
    20    8   10 1   
    21    8   11 1   
    22    8   30 1   
    23    9   31 1   
    24   10   12 1   
    25   10   17 1   
    26   10   32 1   
    27   11   33 1   
    28   12   34 1   
    29   13   14 2   
    30   14   15 1   
    31   14   16 1   
    32   15   35 1   
    33   15   36 1   
    34   15   37 1   
    35   16   17 1   
    36   16   38 1   
    37   16   42 1   
    38   17   18 1   
    39   17   39 1   
    40   18   19 1   
    41   18   40 1   
    42   20   41 1   
@<TRIPOS>SUBSTRUCTURE
     1 3YW         1 TEMP              0 ****  ****    0 ROOT
