@<TRIPOS>MOLECULE
3YW
   42    42     1     0     0
SMALL
bcc


@<TRIPOS>ATOM
      1 O3          0.3460    1.5440    0.3350 oh        1 3YW     -0.610800
      2 C4          3.5140   -0.1550    1.2370 c3        1 3YW      0.132400
      3 C5          2.0950    0.3970    1.4020 c3        1 3YW      0.142100
      4 O4          5.8680    0.4810    2.5500 os        1 3YW     -0.402600
      5 C6          1.6260    0.9960    0.0710 c3        1 3YW      0.094400
      6 C7          5.3530    1.6040    3.2830 c3        1 3YW      0.087100
      7 C8          6.1900    2.8060    2.8360 c3        1 3YW      0.136400
      8 C9          5.5020    1.3450    4.7870 c3        1 3YW      0.093100
      9 O5          5.5350    3.3420    1.7010 oh        1 3YW     -0.599800
     10 C10         4.7520    0.0450    5.1420 c3        1 3YW      0.089100
     11 O6          4.9970    2.3910    5.5830 oh        1 3YW     -0.575800
     12 O7          4.9000   -0.3060    6.5050 oh        1 3YW     -0.634800
     13 O           5.5190   -4.0510    3.2460 o         1 3YW     -0.406100
     14 C           5.5350   -3.6050    4.3820 c         1 3YW      0.553100
     15 C1          6.3020   -4.0950    5.5610 c3        1 3YW     -0.188100
     16 N           4.6460   -2.4040    4.6280 ny        1 3YW     -0.676800
     17 C2          5.3500   -1.1150    4.3150 c3        1 3YW      0.096500
     18 C3          5.2500   -0.7500    2.8010 c3        1 3YW      0.334900
     19 O1          3.8700   -0.6970    2.5160 os        1 3YW     -0.480600
     20 O2          2.1430    1.3790    2.4260 oh        1 3YW     -0.621800
     21 H1          0.0530    1.9820   -0.4730 ho        1 3YW      0.426000
     22 H2          3.5280   -0.9900    0.4900 h1        1 3YW      0.072200
     23 H3          4.2270    0.6580    0.9380 h1        1 3YW      0.072200
     24 H4          1.3910   -0.4210    1.7220 h1        1 3YW      0.060700
     25 H5          1.5560    0.1960   -0.7110 h1        1 3YW      0.046700
     26 H6          2.3320    1.8000   -0.2680 h1        1 3YW      0.046700
     27 H7          4.2670    1.7580    3.0100 h1        1 3YW      0.119700
     28 H8          7.2340    2.4840    2.5800 h1        1 3YW      0.056200
     29 H9          6.2110    3.5630    3.6660 h1        1 3YW      0.056200
     30 H10         6.5870    1.2610    5.0820 h1        1 3YW      0.103700
     31 H11         6.1110    4.0320    1.3470 ho        1 3YW      0.422000
     32 H12         3.6550    0.1680    4.9050 h1        1 3YW      0.094700
     33 H13         4.1610    2.6920    5.1980 ho        1 3YW      0.428000
     34 H14         4.9200    0.5160    7.0200 ho        1 3YW      0.465000
     35 H15         5.6110   -4.6040    6.2820 hc        1 3YW      0.115700
     36 H16         7.0630   -4.8410    5.2090 hc        1 3YW      0.115700
     37 H17         6.8270   -3.2580    6.0890 hc        1 3YW      0.115700
     38 H18         3.8040   -2.4570    4.0350 hn        1 3YW      0.477800
     39 H19         6.4400   -1.2380    4.5840 hx        1 3YW      0.118700
     40 H20         5.7870   -1.4940    2.1440 h2        1 3YW      0.108700
     41 H21         1.3350    1.9070    2.3470 ho        1 3YW      0.439000
     42 HN3         4.3630   -2.3800    5.6180 hn        1 3YW      0.477800
@<TRIPOS>BOND
     1    1    5 1   
     2    1   21 1   
     3    2    3 1   
     4    2   19 1   
     5    2   22 1   
     6    2   23 1   
     7    3    5 1   
     8    3   20 1   
     9    3   24 1   
    10    4    6 1   
    11    4   18 1   
    12    5   25 1   
    13    5   26 1   
    14    6    7 1   
    15    6    8 1   
    16    6   27 1   
    17    7    9 1   
    18    7   28 1   
    19    7   29 1   
    20    8   10 1   
    21    8   11 1   
    22    8   30 1   
    23    9   31 1   
    24   10   12 1   
    25   10   17 1   
    26   10   32 1   
    27   11   33 1   
    28   12   34 1   
    29   13   14 2   
    30   14   15 1   
    31   14   16 1   
    32   15   35 1   
    33   15   36 1   
    34   15   37 1   
    35   16   17 1   
    36   16   38 1   
    37   16   42 1   
    38   17   18 1   
    39   17   39 1   
    40   18   19 1   
    41   18   40 1   
    42   20   41 1   
@<TRIPOS>SUBSTRUCTURE
     1 3YW         1 TEMP              0 ****  ****    0 ROOT
