@<TRIPOS>MOLECULE
3YX
   51    51     1     0     0
SMALL
bcc


@<TRIPOS>ATOM
      1 C1          1.1960    0.5660    0.6450 c3        1 3YX     -0.082400
      2 C2          1.7210    1.9900    0.7050 c3        1 3YX     -0.075200
      3 C3          3.1930    2.0170    0.8850 c2        1 3YX     -0.029200
      4 C11        -4.8430   -7.5600    8.3840 c1        1 3YX     -0.011500
      5 C12        -4.4450   -7.0480    7.3670 cg        1 3YX     -0.212300
      6 C14        -4.2460   -0.3240    5.2470 cc        1 3YX     -0.342000
      7 C17        -2.3250   -0.4090    3.3280 cd        1 3YX      0.819200
      8 C19        -3.5620   -1.6020    4.9440 cc        1 3YX      0.853600
      9 C22        -4.2420   -4.9320    6.2280 ce        1 3YX     -0.088000
     10 C23        -4.0350   -6.3890    6.1810 ce        1 3YX      0.040300
     11 C24        -3.6050   -7.0650    5.1020 c2        1 3YX     -0.125000
     12 C25        -5.8390   -5.2980    7.9980 c1        1 3YX      0.399000
     13 C4          3.9640    2.9050    0.2340 c2        1 3YX     -0.178000
     14 C5         -1.2030    0.7810    1.4820 c3        1 3YX      0.207800
     15 C6         -0.2760    0.5250    0.2930 c3        1 3YX     -0.099400
     16 N7         -1.3320   -0.3540    2.3650 nh        1 3YX     -0.793200
     17 N8          5.4090    2.9910    0.3840 n4        1 3YX     -0.709400
     18 C9         -3.4960   -3.9620    5.5540 cf        1 3YX      0.308400
     19 C10        -2.2380   -4.3720    4.8610 c3        1 3YX     -0.099900
     20 N13        -3.9460   -2.6680    5.6360 nf        1 3YX     -0.781300
     21 N15        -3.8660    0.8290    4.5620 nc        1 3YX     -0.117600
     22 N16        -3.0010    0.8440    3.6860 nd        1 3YX     -0.325300
     23 N18        -2.5960   -1.5920    3.9290 nc        1 3YX     -0.819000
     24 O21        -5.8700   -1.1180    6.8900 o         1 3YX     -0.545300
     25 N26        -5.3310   -4.5430    7.0940 nh        1 3YX     -0.477800
     26 N27        -5.8800    1.1340    6.4760 n4        1 3YX     -0.757400
     27 H1         -0.5100   -0.4690   -0.1760 hc        1 3YX      0.070200
     28 H2          1.7680   -0.0030   -0.1360 hc        1 3YX      0.058200
     29 H3          1.3730    0.0560    1.6290 hc        1 3YX      0.058200
     30 H4          1.4210    2.5470   -0.2240 hc        1 3YX      0.086200
     31 H5          1.2540    2.5280    1.5790 hc        1 3YX      0.086200
     32 H6          3.6010    1.2690    1.5910 ha        1 3YX      0.156000
     33 H8         -5.1830   -8.0360    9.2760 ha        1 3YX      0.201500
     34 H9         -3.4670   -8.1560    5.1210 ha        1 3YX      0.144500
     35 H10        -3.3720   -6.5720    4.1490 ha        1 3YX      0.144500
     36 H11        -0.8120    1.6520    2.0840 h1        1 3YX      0.064200
     37 H12         3.5690    3.6560   -0.4810 hx        1 3YX      0.208000
     38 H13        -2.2160    1.0750    1.0750 h1        1 3YX      0.064200
     39 H14        -0.5050    1.3070   -0.4800 hc        1 3YX      0.070200
     40 H15        -0.9650   -1.2250    2.0430 hn        1 3YX      0.449800
     41 H16         5.6620    3.9280    0.7240 hn        1 3YX      0.465800
     42 H17         5.8550    2.8390   -0.5310 hn        1 3YX      0.465800
     43 H19        -1.4290   -3.6210    5.0460 hc        1 3YX      0.074033
     44 H20        -2.4140   -4.4350    3.7570 hc        1 3YX      0.074033
     45 H21        -5.6390   -3.5720    6.9690 hn        1 3YX      0.542800
     46 H22        -6.6120    1.0700    7.1890 hn        1 3YX      0.457467
     47 H23        -6.2750    1.5150    5.6150 hn        1 3YX      0.457467
     48 H7         -1.8680   -5.3600    5.2320 hc        1 3YX      0.074033
     49 H83         5.7630    2.2910    1.0450 hn        1 3YX      0.465800
     50 H273       -5.1400    1.7590    6.8010 hn        1 3YX      0.457467
     51 C20        -5.3000   -0.2670    6.2100 c2        1 3YX      0.643300
@<TRIPOS>BOND
     1    1    2 1   
     2    1   15 1   
     3    1   28 1   
     4    1   29 1   
     5    2    3 1   
     6    2   30 1   
     7    2   31 1   
     8    3   13 2   
     9    3   32 1   
    10    4    5 3   
    11    4   33 1   
    12    5   10 1   
    13    6    8 1   
    14    6   21 1   
    15    6   51 2   
    16    7   16 1   
    17    7   22 1   
    18    7   23 2   
    19    8   20 2   
    20    8   23 1   
    21    9   10 1   
    22    9   18 2   
    23    9   25 1   
    24   10   11 2   
    25   11   34 1   
    26   11   35 1   
    27   12   25 3   
    28   13   17 1   
    29   13   37 1   
    30   14   15 1   
    31   14   16 1   
    32   14   36 1   
    33   14   38 1   
    34   15   27 1   
    35   15   39 1   
    36   16   40 1   
    37   17   41 1   
    38   17   42 1   
    39   17   49 1   
    40   18   19 1   
    41   18   20 1   
    42   19   43 1   
    43   19   44 1   
    44   19   48 1   
    45   21   22 2   
    46   24   51 1   
    47   25   45 1   
    48   26   46 1   
    49   26   47 1   
    50   26   50 1   
    51   26   51 1   
@<TRIPOS>SUBSTRUCTURE
     1 3YX         1 TEMP              0 ****  ****    0 ROOT
