@<TRIPOS>MOLECULE
3YX
   51    51     1     0     0
SMALL
bcc


@<TRIPOS>ATOM
      1 C1          1.2640    0.5550    0.9330 c3        1 3YX     -0.082400
      2 C2          1.7950    1.9750    1.0300 c3        1 3YX     -0.075200
      3 C3          3.2510    1.9910    1.3170 c2        1 3YX     -0.030200
      4 C11        -1.6640   -6.9000    7.1150 c1        1 3YX     -0.066500
      5 C12        -2.7790   -6.6430    6.7590 cg        1 3YX     -0.207300
      6 C14        -4.5810   -0.3940    5.0200 cc        1 3YX     -0.340000
      7 C17        -2.4890   -0.4390    3.2880 cd        1 3YX      0.824200
      8 C19        -3.8580   -1.6610    4.7700 cc        1 3YX      0.862600
      9 C22        -4.4820   -4.9570    6.1900 ce        1 3YX     -0.116000
     10 C23        -4.1060   -6.3730    6.3730 ce        1 3YX      0.092300
     11 C24        -5.0240   -7.3520    6.2600 c2        1 3YX     -0.206000
     12 C25        -6.4500   -5.4460    7.4440 c1        1 3YX      0.454000
     13 C4          4.0740    2.8720    0.7230 c2        1 3YX     -0.177000
     14 C5         -1.1930    0.7790    1.5760 c3        1 3YX      0.209800
     15 C6         -0.1750    0.5250    0.4640 c3        1 3YX     -0.100400
     16 N7         -1.4100   -0.3660    2.4300 nu        1 3YX     -0.792200
     17 N8          5.5040    2.9470    0.9770 nz        1 3YX     -0.709400
     18 C9         -3.8200   -4.0210    5.3890 cf        1 3YX      0.336400
     19 C10        -2.6780   -4.4870    4.5470 c3        1 3YX     -0.100900
     20 N13        -4.2920   -2.7380    5.4210 nf        1 3YX     -0.791300
     21 N15        -4.1690    0.7640    4.3630 nc        1 3YX     -0.116600
     22 N16        -3.2280    0.7970    3.5690 nd        1 3YX     -0.323300
     23 N18        -2.7920   -1.6290    3.8670 nc        1 3YX     -0.818000
     24 O21        -6.2480   -1.1910    6.6210 o         1 3YX     -0.545300
     25 N26        -5.6520   -4.5840    6.9380 nu        1 3YX     -0.479800
     26 N27        -6.3730    1.0260    6.0600 nz        1 3YX     -0.757400
     27 H1         -0.3760   -0.4650   -0.0280 hc        1 3YX      0.071200
     28 H2          1.3580    0.0480    1.9290 hc        1 3YX      0.058200
     29 H3          1.8920   -0.0220    0.2020 hc        1 3YX      0.058200
     30 H4          1.5680    2.5320    0.0800 hc        1 3YX      0.086200
     31 H5          1.2700    2.5190    1.8660 hc        1 3YX      0.086200
     32 H6          3.6000    1.2400    2.0500 ha        1 3YX      0.156000
     33 H8         -0.6770   -7.1340    7.4320 ha        1 3YX      0.183500
     34 H9         -4.7730   -8.4070    6.4470 ha        1 3YX      0.147000
     35 H10        -6.0620   -7.1810    5.9350 ha        1 3YX      0.147000
     36 H11        -0.8420    1.6370    2.2200 h1        1 3YX      0.065200
     37 H12         3.7370    3.6250   -0.0190 hx        1 3YX      0.208000
     38 H13        -2.1660    1.0900    1.0920 h1        1 3YX      0.065200
     39 H14        -0.3380    1.3120   -0.3200 hc        1 3YX      0.071200
     40 H15        -0.9730   -1.2240    2.1680 hn        1 3YX      0.453800
     41 H16         5.8040    2.2450    1.6630 hn        1 3YX      0.465800
     42 H17         5.7390    3.8830    1.3340 hn        1 3YX      0.465800
     43 H19        -1.7400   -3.9550    4.8470 hc        1 3YX      0.078700
     44 H20        -2.8880   -4.2600    3.4700 hc        1 3YX      0.078700
     45 H21        -5.8040   -3.5690    7.0010 hn        1 3YX      0.545800
     46 H22        -7.1550    0.9530    6.7180 hn        1 3YX      0.458467
     47 H23        -6.7210    1.3370    5.1510 hn        1 3YX      0.458467
     48 H7         -2.5070   -5.5880    4.6390 hc        1 3YX      0.078700
     49 H83         6.0150    2.7910    0.0970 hn        1 3YX      0.465800
     50 H273       -5.7000    1.7120    6.4050 hn        1 3YX      0.458467
     51 C20        -5.6940   -0.3470    5.9170 c2        1 3YX      0.645300
@<TRIPOS>BOND
     1    1    2 1   
     2    1   15 1   
     3    1   28 1   
     4    1   29 1   
     5    2    3 1   
     6    2   30 1   
     7    2   31 1   
     8    3   13 2   
     9    3   32 1   
    10    4    5 3   
    11    4   33 1   
    12    5   10 1   
    13    6    8 1   
    14    6   21 1   
    15    6   51 2   
    16    7   16 1   
    17    7   22 1   
    18    7   23 2   
    19    8   20 2   
    20    8   23 1   
    21    9   10 1   
    22    9   18 2   
    23    9   25 1   
    24   10   11 2   
    25   11   34 1   
    26   11   35 1   
    27   12   25 3   
    28   13   17 1   
    29   13   37 1   
    30   14   15 1   
    31   14   16 1   
    32   14   36 1   
    33   14   38 1   
    34   15   27 1   
    35   15   39 1   
    36   16   40 1   
    37   17   41 1   
    38   17   42 1   
    39   17   49 1   
    40   18   19 1   
    41   18   20 1   
    42   19   43 1   
    43   19   44 1   
    44   19   48 1   
    45   21   22 2   
    46   24   51 1   
    47   25   45 1   
    48   26   46 1   
    49   26   47 1   
    50   26   50 1   
    51   26   51 1   
@<TRIPOS>SUBSTRUCTURE
     1 3YX         1 TEMP              0 ****  ****    0 ROOT
