@<TRIPOS>MOLECULE
3YY
   38    41     1     0     0
SMALL
bcc


@<TRIPOS>ATOM
      1 C1          5.8060    1.9590    0.1160 ca        1 3YY     -0.126000
      2 C2          4.7850    2.8170    0.5170 ca        1 3YY     -0.115500
      3 C3          5.4950    0.6740   -0.3290 ca        1 3YY     -0.115500
      4 C4         -2.6500    0.5500   -1.1480 ca        1 3YY     -0.082000
      5 C5         -2.1310    2.3620    0.3750 ca        1 3YY     -0.082000
      6 C6          3.4540    2.4050    0.4860 ca        1 3YY     -0.126500
      7 C7          4.1730    0.2410   -0.3760 ca        1 3YY     -0.126500
      8 C8         -3.9440    1.0350   -1.3000 ca        1 3YY     -0.169000
      9 C9         -3.4220    2.8600    0.2350 ca        1 3YY     -0.169000
     10 C10         1.3950   -0.6810    0.1640 cc        1 3YY     -0.102300
     11 C11        -1.7370    1.2020   -0.3080 ca        1 3YY     -0.142500
     12 C12        -0.0050   -0.7030    0.0660 cd        1 3YY     -0.293600
     13 C13         3.1400    1.1050    0.0410 ca        1 3YY      0.011800
     14 C14        -4.3350    2.1950   -0.6040 ca        1 3YY      0.135900
     15 C15        -0.3860    0.6860   -0.1500 cd        1 3YY      0.393800
     16 C16        -0.5400   -2.7720    1.3940 c         1 3YY      0.692500
     17 C17        -0.4120   -4.0360   -0.5500 c         1 3YY      0.772500
     18 C18        -0.9140   -1.8540    0.1880 c3        1 3YY      0.077000
     19 N19         0.7320    1.4700   -0.1740 nc        1 3YY     -0.487800
     20 N20         1.7870    0.6540    0.0100 na        1 3YY      0.174300
     21 N21        -0.2270   -4.0340    0.8610 n         1 3YY     -0.617500
     22 N22        -0.9300   -2.7710   -0.9670 n         1 3YY     -0.509900
     23 O23        -0.5330   -2.4820    2.5890 o         1 3YY     -0.562500
     24 O24        -0.1930   -5.0130   -1.2830 o         1 3YY     -0.601500
     25 F25        -5.5940    2.6730   -0.7460 f         1 3YY     -0.136900
     26 H1          6.8540    2.2930    0.1470 ha        1 3YY      0.141000
     27 H2          5.0250    3.8340    0.8650 ha        1 3YY      0.142000
     28 H3          6.2980   -0.0060   -0.6530 ha        1 3YY      0.142000
     29 H5         -1.4160    2.8840    1.0290 ha        1 3YY      0.147500
     30 H6          2.6620    3.1000    0.8070 ha        1 3YY      0.150000
     31 H7          3.9500   -0.7710   -0.7460 ha        1 3YY      0.150000
     32 H8         -4.6620    0.5250   -1.9580 ha        1 3YY      0.153000
     33 H9         -3.7360    3.7660    0.7720 ha        1 3YY      0.153000
     34 H10         2.1120   -1.4820    0.3510 h4        1 3YY      0.188000
     35 H18        -1.9730   -1.4860    0.3460 h1        1 3YY      0.120700
     36 HN21       -0.0420   -4.8520    1.3820 hn        1 3YY      0.357500
     37 HN22       -0.5810   -2.4190   -1.8300 hn        1 3YY      0.317500
     38 H4         -2.3410   -0.3510   -1.7010 ha        1 3YY      0.147500
@<TRIPOS>BOND
     1    1    2 ar  
     2    1    3 ar  
     3    1   26 1   
     4    2    6 ar  
     5    2   27 1   
     6    3    7 ar  
     7    3   28 1   
     8    4    8 ar  
     9    4   11 ar  
    10    4   38 1   
    11    5    9 ar  
    12    5   11 ar  
    13    5   29 1   
    14    6   13 ar  
    15    6   30 1   
    16    7   13 ar  
    17    7   31 1   
    18    8   14 ar  
    19    8   32 1   
    20    9   14 ar  
    21    9   33 1   
    22   10   12 2   
    23   10   20 1   
    24   10   34 1   
    25   11   15 1   
    26   12   15 1   
    27   12   18 1   
    28   13   20 1   
    29   14   25 1   
    30   15   19 2   
    31   16   18 1   
    32   16   21 1   
    33   16   23 2   
    34   17   21 1   
    35   17   22 1   
    36   17   24 2   
    37   18   22 1   
    38   18   35 1   
    39   19   20 1   
    40   21   36 1   
    41   22   37 1   
@<TRIPOS>SUBSTRUCTURE
     1 3YY         1 TEMP              0 ****  ****    0 ROOT
