@<TRIPOS>MOLECULE
3YY
   38    41     1     0     0
SMALL
bcc


@<TRIPOS>ATOM
      1 C1          0.0170   -0.0640   -0.0430 ca        1 3YY     -0.126000
      2 C2          1.3920   -0.2920   -0.0470 ca        1 3YY     -0.115500
      3 C3         -0.6400    0.1880    1.1600 ca        1 3YY     -0.115500
      4 C4          5.2850    1.2620    6.7080 ca        1 3YY     -0.082000
      5 C5          6.2660    0.0200    4.8720 ca        1 3YY     -0.082000
      6 C6          2.1180   -0.2790    1.1420 ca        1 3YY     -0.126500
      7 C7          0.0640    0.2130    2.3600 ca        1 3YY     -0.126500
      8 C8          6.5510    1.5320    7.2140 ca        1 3YY     -0.169000
      9 C9          7.5400    0.2810    5.3670 ca        1 3YY     -0.169000
     10 C10         1.6200   -0.3660    4.8310 cc        1 3YY     -0.102300
     11 C11         5.1310    0.5020    5.5400 ca        1 3YY     -0.142500
     12 C12         2.6430   -0.2230    5.7810 cd        1 3YY     -0.293600
     13 C13         1.4540   -0.0290    2.3600 ca        1 3YY      0.011800
     14 C14         7.6860    1.0390    6.5440 ca        1 3YY      0.135900
     15 C15         3.8030    0.2190    5.0180 cd        1 3YY      0.393800
     16 C16         1.8730   -1.8360    7.5520 c         1 3YY      0.692500
     17 C17         0.7080   -0.1160    8.5910 c         1 3YY      0.772500
     18 C18         2.5950   -0.4900    7.2280 c3        1 3YY      0.077000
     19 N19         3.4700    0.3240    3.6980 nc        1 3YY     -0.487800
     20 N20         2.1730   -0.0210    3.5920 na        1 3YY      0.174300
     21 N21         0.7520   -1.5150    8.3360 n         1 3YY     -0.617500
     22 N22         1.8640    0.5090    8.0300 n         1 3YY     -0.509900
     23 O23         2.2090   -2.9710    7.2200 o         1 3YY     -0.562500
     24 O24        -0.1830    0.4490    9.2430 o         1 3YY     -0.601500
     25 F25         8.9220    1.2960    7.0320 f         1 3YY     -0.136900
     26 H1         -0.5480   -0.0800   -0.9870 ha        1 3YY      0.141000
     27 H2          1.9150   -0.4860   -0.9950 ha        1 3YY      0.142000
     28 H3         -1.7250    0.3730    1.1670 ha        1 3YY      0.142000
     29 H5          6.1520   -0.5700    3.9500 ha        1 3YY      0.147500
     30 H6          3.2040   -0.4600    1.1170 ha        1 3YY      0.150000
     31 H7         -0.4720    0.4300    3.2970 ha        1 3YY      0.150000
     32 H8          6.6750    2.1280    8.1300 ha        1 3YY      0.153000
     33 H9          8.4320   -0.0980    4.8480 ha        1 3YY      0.153000
     34 H10         0.5870   -0.6990    4.9370 h4        1 3YY      0.188000
     35 H18         3.6480   -0.5520    7.6380 h1        1 3YY      0.120700
     36 HN21        0.1490   -2.1630    8.7750 hn        1 3YY      0.357500
     37 HN22        1.7200    1.4030    7.6180 hn        1 3YY      0.317500
     38 H4          4.3980    1.6580    7.2270 ha        1 3YY      0.147500
@<TRIPOS>BOND
     1    1    2 ar  
     2    1    3 ar  
     3    1   26 1   
     4    2    6 ar  
     5    2   27 1   
     6    3    7 ar  
     7    3   28 1   
     8    4    8 ar  
     9    4   11 ar  
    10    4   38 1   
    11    5    9 ar  
    12    5   11 ar  
    13    5   29 1   
    14    6   13 ar  
    15    6   30 1   
    16    7   13 ar  
    17    7   31 1   
    18    8   14 ar  
    19    8   32 1   
    20    9   14 ar  
    21    9   33 1   
    22   10   12 2   
    23   10   20 1   
    24   10   34 1   
    25   11   15 1   
    26   12   15 1   
    27   12   18 1   
    28   13   20 1   
    29   14   25 1   
    30   15   19 2   
    31   16   18 1   
    32   16   21 1   
    33   16   23 2   
    34   17   21 1   
    35   17   22 1   
    36   17   24 2   
    37   18   22 1   
    38   18   35 1   
    39   19   20 1   
    40   21   36 1   
    41   22   37 1   
@<TRIPOS>SUBSTRUCTURE
     1 3YY         1 TEMP              0 ****  ****    0 ROOT
