@<TRIPOS>MOLECULE
3YY
   38    29     1     0     0
SMALL
bcc


@<TRIPOS>ATOM
      1 C1         -2.7570    0.0910   -4.3910 c1        1 3YY     -0.126667
      2 C2         -2.4280   -1.1130   -3.7880 c1        1 3YY     -0.126667
      3 C3         -2.4350    1.2880   -3.7710 c1        1 3YY     -0.126667
      4 C4          2.9130   -1.0590    0.2820 c1        1 3YY     -0.126667
      5 C5          2.9980    1.3250    0.5460 c1        1 3YY     -0.093500
      6 C6         -1.7780   -1.1190   -2.5640 c1        1 3YY     -0.126667
      7 C7         -1.7850    1.2810   -2.5470 c1        1 3YY     -0.093500
      8 C8          4.2760   -1.0800    0.0320 c1        1 3YY     -0.126667
      9 C9          4.3610    1.3050    0.2960 c1        1 3YY     -0.173000
     10 C10        -1.3090    0.0100    0.4730 c1        1 3YY     -0.063500
     11 C11         2.2740    0.1430    0.5390 c1        1 3YY      0.008000
     12 C12        -0.2670    0.0300    1.3550 c1        1 3YY     -0.218000
     13 C13        -1.4570    0.0780   -1.9430 c1        1 3YY      0.008000
     14 C14         5.0000    0.1020    0.0390 c1        1 3YY      0.100000
     15 C15         0.8930    0.0630    0.6350 c1        1 3YY     -0.063500
     16 C16        -1.0560   -1.3160    3.0260 c1        1 3YY      0.303000
     17 C17        -2.5110    0.3130    3.5380 c1        1 3YY      0.364000
     18 C18        -0.3690   -0.0350    2.7680 c2        1 3YY      0.047000
     19 N19         0.5690    0.0620   -0.6760 n2        1 3YY     -0.059000
     20 N20        -0.7980    0.0290   -0.7760 n2        1 3YY     -0.059000
     21 N21        -2.2520   -1.0470    3.6680 n1        1 3YY     -0.393000
     22 N22        -1.3120    0.9600    3.0960 n3        1 3YY     -0.320000
     23 O23        -0.6420   -2.4180    2.7260 o         1 3YY     -0.298000
     24 O24        -3.5730    0.8600    3.7620 o         1 3YY     -0.327000
     25 F25         6.3170    0.0830   -0.2060 f         1 3YY     -0.104000
     26 H1         -3.2150    0.0960   -5.2530 ha        1 3YY      0.147500
     27 H2         -2.6550   -1.9550   -4.2250 ha        1 3YY      0.147500
     28 H3         -2.6670    2.1360   -4.1960 ha        1 3YY      0.147500
     29 H4          2.4030   -1.8920    0.2770 ha        1 3YY      0.147500
     30 H5          2.5470    2.1720    0.7270 ha        1 3YY      0.154000
     31 H6         -1.5470   -1.9670   -2.1390 ha        1 3YY      0.147500
     32 H7         -1.5580    2.1240   -2.1100 ha        1 3YY      0.154000
     33 H8          4.7270   -1.9270   -0.1490 ha        1 3YY      0.147500
     34 H9          4.8710    2.1370    0.3010 ha        1 3YY      0.151000
     35 H10        -2.2570   -0.0140    0.7060 DU        1 3YY      0.185000
     36 H18         0.5550    0.0730    3.0680 h4        1 3YY      0.159000
     37 HN21       -2.8580   -1.6730    3.9370 hn        1 3YY      0.272000
     38 HN22       -1.2190    1.8530    2.9360 hn        1 3YY      0.234000
@<TRIPOS>BOND
     1    1    3 1   
     2    1   26 1   
     3    2    6 1   
     4    2   27 1   
     5    3   28 1   
     6    4    8 1   
     7    4   29 1   
     8    5   11 1   
     9    5   30 1   
    10    6   31 1   
    11    7   13 1   
    12    7   32 1   
    13    8   33 1   
    14    9   14 1   
    15    9   34 1   
    16   10   12 1   
    17   10   20 1   
    18   12   15 1   
    19   14   25 1   
    20   15   19 1   
    21   16   18 1   
    22   16   23 1   
    23   17   22 1   
    24   17   24 1   
    25   18   22 1   
    26   18   36 1   
    27   19   20 1   
    28   21   37 1   
    29   22   38 1   
@<TRIPOS>SUBSTRUCTURE
     1 3YY         1 TEMP              0 ****  ****    0 ROOT
