@<TRIPOS>MOLECULE
3YY
   38    41     1     0     0
SMALL
bcc


@<TRIPOS>ATOM
      1 C1          0.0150   -0.0680   -0.0380 ca        1 3YY     -0.126000
      2 C2          1.3910   -0.2950   -0.0420 ca        1 3YY     -0.115500
      3 C3         -0.6420    0.1830    1.1650 ca        1 3YY     -0.115500
      4 C4          5.2820    1.2640    6.7130 ca        1 3YY     -0.082000
      5 C5          6.2650    0.0230    4.8780 ca        1 3YY     -0.082000
      6 C6          2.1170   -0.2810    1.1470 ca        1 3YY     -0.126500
      7 C7          0.0620    0.2100    2.3650 ca        1 3YY     -0.126500
      8 C8          6.5480    1.5350    7.2190 ca        1 3YY     -0.169000
      9 C9          7.5380    0.2850    5.3720 ca        1 3YY     -0.169000
     10 C10         1.6190   -0.3680    4.8360 cc        1 3YY     -0.102300
     11 C11         5.1290    0.5030    5.5450 ca        1 3YY     -0.142500
     12 C12         2.6420   -0.2240    5.7860 cd        1 3YY     -0.293600
     13 C13         1.4520   -0.0320    2.3650 ca        1 3YY      0.011800
     14 C14         7.6830    1.0430    6.5490 ca        1 3YY      0.135900
     15 C15         3.8010    0.2190    5.0230 cd        1 3YY      0.393800
     16 C16         1.8730   -1.8370    7.5580 c         1 3YY      0.692500
     17 C17         0.7070   -0.1190    8.5970 c         1 3YY      0.772500
     18 C18         2.5940   -0.4910    7.2330 c3        1 3YY      0.077000
     19 N19         3.4680    0.3240    3.7030 nc        1 3YY     -0.487800
     20 N20         2.1710   -0.0220    3.5970 na        1 3YY      0.174300
     21 N21         0.7520   -1.5180    8.3410 n         1 3YY     -0.617500
     22 N22         1.8610    0.5070    8.0350 n         1 3YY     -0.509900
     23 O23         2.2100   -2.9730    7.2260 o         1 3YY     -0.562500
     24 O24        -0.1860    0.4450    9.2480 o         1 3YY     -0.601500
     25 F25         8.9190    1.3020    7.0370 f         1 3YY     -0.136900
     26 H1         -0.5490   -0.0850   -0.9820 ha        1 3YY      0.141000
     27 H2          1.9140   -0.4900   -0.9900 ha        1 3YY      0.142000
     28 H3         -1.7270    0.3690    1.1720 ha        1 3YY      0.142000
     29 H5          6.1510   -0.5680    3.9550 ha        1 3YY      0.147500
     30 H6          3.2030   -0.4620    1.1230 ha        1 3YY      0.150000
     31 H7         -0.4730    0.4260    3.3020 ha        1 3YY      0.150000
     32 H8          6.6710    2.1320    8.1350 ha        1 3YY      0.153000
     33 H9          8.4310   -0.0930    4.8540 ha        1 3YY      0.153000
     34 H10         0.5860   -0.7020    4.9420 h4        1 3YY      0.188000
     35 H18         3.6470   -0.5510    7.6430 h1        1 3YY      0.120700
     36 HN21        0.1490   -2.1670    8.7800 hn        1 3YY      0.357500
     37 HN22        1.7160    1.4020    7.6230 hn        1 3YY      0.317500
     38 H4          4.3940    1.6590    7.2320 ha        1 3YY      0.147500
@<TRIPOS>BOND
     1    1    2 ar  
     2    1    3 ar  
     3    1   26 1   
     4    2    6 ar  
     5    2   27 1   
     6    3    7 ar  
     7    3   28 1   
     8    4    8 ar  
     9    4   11 ar  
    10    4   38 1   
    11    5    9 ar  
    12    5   11 ar  
    13    5   29 1   
    14    6   13 ar  
    15    6   30 1   
    16    7   13 ar  
    17    7   31 1   
    18    8   14 ar  
    19    8   32 1   
    20    9   14 ar  
    21    9   33 1   
    22   10   12 2   
    23   10   20 1   
    24   10   34 1   
    25   11   15 1   
    26   12   15 1   
    27   12   18 1   
    28   13   20 1   
    29   14   25 1   
    30   15   19 2   
    31   16   18 1   
    32   16   21 1   
    33   16   23 2   
    34   17   21 1   
    35   17   22 1   
    36   17   24 2   
    37   18   22 1   
    38   18   35 1   
    39   19   20 1   
    40   21   36 1   
    41   22   37 1   
@<TRIPOS>SUBSTRUCTURE
     1 3YY         1 TEMP              0 ****  ****    0 ROOT
