@<TRIPOS>MOLECULE
3YY
   38    41     1     0     0
SMALL
bcc


@<TRIPOS>ATOM
      1 C1          0.0360   -0.1120   -0.0490 ca        1 3YY     -0.126000
      2 C2          1.4120   -0.3330   -0.0450 ca        1 3YY     -0.115500
      3 C3         -0.6280    0.1440    1.1500 ca        1 3YY     -0.115500
      4 C4          5.2690    1.2860    6.7140 ca        1 3YY     -0.082000
      5 C5          6.2650    0.0370    4.8910 ca        1 3YY     -0.082000
      6 C6          2.1330   -0.3080    1.1460 ca        1 3YY     -0.126500
      7 C7          0.0720    0.1810    2.3530 ca        1 3YY     -0.126500
      8 C8          6.5320    1.5660    7.2240 ca        1 3YY     -0.169000
      9 C9          7.5350    0.3070    5.3890 ca        1 3YY     -0.169000
     10 C10         1.6210   -0.3740    4.8330 cc        1 3YY     -0.102300
     11 C11         5.1240    0.5170    5.5510 ca        1 3YY     -0.142500
     12 C12         2.6390   -0.2190    5.7870 cd        1 3YY     -0.293600
     13 C13         1.4620   -0.0540    2.3590 ca        1 3YY      0.011800
     14 C14         7.6720    1.0740    6.5610 ca        1 3YY      0.135900
     15 C15         3.7990    0.2230    5.0260 cd        1 3YY      0.393800
     16 C16         1.8710   -1.8250    7.5650 c         1 3YY      0.692500
     17 C17         0.6920   -0.1050    8.5880 c         1 3YY      0.772500
     18 C18         2.5870   -0.4770    7.2350 c3        1 3YY      0.077000
     19 N19         3.4710    0.3190    3.7030 nc        1 3YY     -0.487800
     20 N20         2.1760   -0.0340    3.5950 na        1 3YY      0.174300
     21 N21         0.7440   -1.5050    8.3420 ns        1 3YY     -0.617500
     22 N22         1.8470    0.5230    8.0280 ns        1 3YY     -0.509900
     23 O23         2.2140   -2.9610    7.2420 o         1 3YY     -0.562500
     24 O24        -0.2050    0.4600    9.2330 o         1 3YY     -0.601500
     25 F25         8.9050    1.3410    7.0530 f         1 3YY     -0.136900
     26 H1         -0.5250   -0.1370   -0.9950 ha        1 3YY      0.141000
     27 H2          1.9400   -0.5310   -0.9910 ha        1 3YY      0.142000
     28 H3         -1.7140    0.3240    1.1510 ha        1 3YY      0.142000
     29 H5          6.1570   -0.5600    3.9720 ha        1 3YY      0.147500
     30 H6          3.2200   -0.4840    1.1270 ha        1 3YY      0.150000
     31 H7         -0.4690    0.4010    3.2860 ha        1 3YY      0.150000
     32 H8          6.6490    2.1690    8.1360 ha        1 3YY      0.153000
     33 H9          8.4310   -0.0700    4.8770 ha        1 3YY      0.153000
     34 H10         0.5890   -0.7120    4.9380 h4        1 3YY      0.188000
     35 H18         3.6380   -0.5300    7.6500 h1        1 3YY      0.120700
     36 HN21        0.1430   -2.1530    8.7830 hn        1 3YY      0.357500
     37 HN22        1.7000    1.4140    7.6090 hn        1 3YY      0.317500
     38 H4          4.3780    1.6800    7.2270 ha        1 3YY      0.147500
@<TRIPOS>BOND
     1    1    2 ar  
     2    1    3 ar  
     3    1   26 1   
     4    2    6 ar  
     5    2   27 1   
     6    3    7 ar  
     7    3   28 1   
     8    4    8 ar  
     9    4   11 ar  
    10    4   38 1   
    11    5    9 ar  
    12    5   11 ar  
    13    5   29 1   
    14    6   13 ar  
    15    6   30 1   
    16    7   13 ar  
    17    7   31 1   
    18    8   14 ar  
    19    8   32 1   
    20    9   14 ar  
    21    9   33 1   
    22   10   12 2   
    23   10   20 1   
    24   10   34 1   
    25   11   15 1   
    26   12   15 1   
    27   12   18 1   
    28   13   20 1   
    29   14   25 1   
    30   15   19 2   
    31   16   18 1   
    32   16   21 1   
    33   16   23 2   
    34   17   21 1   
    35   17   22 1   
    36   17   24 2   
    37   18   22 1   
    38   18   35 1   
    39   19   20 1   
    40   21   36 1   
    41   22   37 1   
@<TRIPOS>SUBSTRUCTURE
     1 3YY         1 TEMP              0 ****  ****    0 ROOT
