@<TRIPOS>MOLECULE
3YZ
   66    66     1     0     0
SMALL
bcc


@<TRIPOS>ATOM
      1 C14         0.4840    0.6210    0.4230 c2        1 3YZ     -0.178000
      2 C13         1.6350    1.0630    0.9340 ce        1 3YZ     -0.114200
      3 C11         3.6700    0.6430    2.3850 cc        1 3YZ     -0.123000
      4 C6          7.8020   -1.7790    6.0560 ce        1 3YZ     -0.083900
      5 C4          9.3190    0.8910    6.1480 c1        1 3YZ      0.076900
      6 C15        -0.8280   -0.3280    3.7010 c1        1 3YZ      0.539800
      7 C12         2.2670    0.5990    2.1380 cc        1 3YZ     -0.087800
      8 C5          9.7100    0.4570    7.1960 cg        1 3YZ     -0.219200
      9 C7          6.9860   -0.8070    5.3460 cc        1 3YZ      0.335100
     10 C25         7.3620    0.4480    4.8550 cd        1 3YZ     -0.128900
     11 C3          8.6520    1.2400    4.9050 c3        1 3YZ      0.271500
     12 C10         3.9040    0.1060    3.6690 cd        1 3YZ     -0.221800
     13 C17         1.6680    0.0310    3.3050 cd        1 3YZ      0.293400
     14 C9          5.2020   -0.0590    4.2840 cd        1 3YZ      0.554000
     15 C21         2.2930   -0.2010    8.0480 cx        1 3YZ     -0.139900
     16 C22         3.3400    0.7090    7.4760 cx        1 3YZ     -0.139900
     17 C30         6.1990    1.1390    9.7290 c2        1 3YZ     -0.292000
     18 C29         8.1850   -1.6120    7.3000 c1        1 3YZ      0.111100
     19 C35         8.2830   -1.8370    9.7100 c3        1 3YZ      0.043000
     20 C20         2.2050    0.2320    6.6090 cx        1 3YZ     -0.142700
     21 C33         7.6140   -0.7580   10.6180 c3        1 3YZ      0.226700
     22 C31         6.4120   -0.1700    9.9050 c2        1 3YZ     -0.013100
     23 C1          9.5690    1.8480    2.7900 c3        1 3YZ      0.103700
     24 N16         0.3380   -0.1720    3.5430 n1        1 3YZ     -0.818500
     25 N8          5.6460   -1.1100    4.9870 nc        1 3YZ     -0.641000
     26 N23         6.2280    0.9710    4.1510 na        1 3YZ     -0.171200
     27 N18         2.6840   -0.3060    4.2270 na        1 3YZ     -0.026100
     28 N28         8.7270   -1.3160    8.4160 n         1 3YZ     -0.158400
     29 N34         7.3190   -1.3650   11.8950 n8        1 3YZ     -0.907800
     30 O27        10.6460   -0.2690    9.3060 o         1 3YZ     -0.375100
     31 O32         5.5540   -1.1620    9.4760 oh        1 3YZ     -0.527100
     32 H1         -0.1240   -0.1730    0.8750 ha        1 3YZ      0.125000
     33 H2          2.2070    1.8510    0.4080 ha        1 3YZ      0.133000
     34 H3          4.4230    0.9910    1.6810 ha        1 3YZ      0.166000
     35 H4          8.0860   -2.7010    5.4980 ha        1 3YZ      0.234000
     36 H5          8.4170    2.3510    4.8770 h1        1 3YZ      0.141700
     37 H6          0.0780    1.0350   -0.5110 ha        1 3YZ      0.125000
     38 H9          3.3620    1.7700    7.7830 hc        1 3YZ      0.077700
     39 H10         4.3540    0.3080    7.2930 hc        1 3YZ      0.077700
     40 H11         6.9020    1.8980   10.0930 ha        1 3YZ      0.140500
     41 H12         5.2970    1.5250    9.2340 ha        1 3YZ      0.140500
     42 H13         4.4300   -2.9440    8.2680 ha        1 3YZ      0.003333
     43 H14         4.3130   -2.5320    7.7420 ha        1 3YZ      0.003333
     44 H15         9.2060   -2.2330   10.2280 h1        1 3YZ      0.122700
     45 H16         5.0310   -3.2740   10.5060 ha        1 3YZ      0.003333
     46 H17         3.3300   -1.4630    5.8530 h1        1 3YZ      0.086200
     47 H18         7.5480   -2.6750    9.5310 h1        1 3YZ      0.122700
     48 H19         4.7150   -0.7550    9.2010 ho        1 3YZ      0.437000
     49 H23         8.5510    2.1640    2.4520 h1        1 3YZ      0.062700
     50 H24        10.1250    1.3240    1.9700 h1        1 3YZ      0.062700
     51 H25        10.1490    2.7250    3.1670 h1        1 3YZ      0.062700
     52 H28         6.5370   -1.9880   11.8330 hn        1 3YZ      0.385300
     53 H29         8.3600    0.0750   10.7920 h1        1 3YZ      0.085700
     54 H31         5.6300   -3.5010   10.2870 ha        1 3YZ      0.003333
     55 C26         9.8580   -0.2990    8.3810 c         1 3YZ      0.715300
     56 C24         6.2390    2.1710    3.5910 c1        1 3YZ      0.005500
     57 C19         2.4540   -0.8190    5.5530 c3        1 3YZ      0.046300
     58 H7          2.5590   -1.2510    8.2750 hc        1 3YZ      0.077700
     59 H20         5.3050    2.4920    3.0850 ha        1 3YZ      0.042500
     60 H21         6.1480    3.8390    5.2740 ha        1 3YZ      0.003333
     61 H22         5.4730    3.8140    5.2030 ha        1 3YZ      0.003333
     62 H26         1.4210    0.9640    6.3280 hc        1 3YZ      0.105700
     63 H27         1.5480   -1.4950    5.5120 h1        1 3YZ      0.086200
     64 H343        7.1610   -0.6700   12.5960 hn        1 3YZ      0.385300
     65 O2          9.4730    0.8530    3.8090 os        1 3YZ     -0.394600
     66 H8          1.5570    0.2030    8.7670 hc        1 3YZ      0.077700
@<TRIPOS>BOND
     1    1    2 2   
     2    1   32 1   
     3    1   37 1   
     4    2    7 1   
     5    2   33 1   
     6    3    7 1   
     7    3   12 2   
     8    3   34 1   
     9    4    9 1   
    10    4   18 2   
    11    4   35 1   
    12    5    8 3   
    13    5   11 1   
    14    6   24 3   
    15    7   13 2   
    16    8   55 1   
    17    9   10 2   
    18    9   25 1   
    19   10   11 1   
    20   10   26 1   
    21   11   36 1   
    22   11   65 1   
    23   12   14 1   
    24   12   27 1   
    25   13   24 1   
    26   13   27 1   
    27   14   25 2   
    28   14   26 1   
    29   15   16 1   
    30   15   20 1   
    31   15   58 1   
    32   15   66 1   
    33   16   20 1   
    34   16   38 1   
    35   16   39 1   
    36   17   22 2   
    37   17   40 1   
    38   17   41 1   
    39   18   28 2   
    40   19   21 1   
    41   19   28 1   
    42   19   44 1   
    43   19   47 1   
    44   20   57 1   
    45   20   62 1   
    46   21   22 1   
    47   21   29 1   
    48   21   53 1   
    49   22   31 1   
    50   23   49 1   
    51   23   50 1   
    52   23   51 1   
    53   23   65 1   
    54   26   56 3   
    55   27   57 1   
    56   28   55 1   
    57   29   52 1   
    58   29   64 1   
    59   30   55 2   
    60   31   48 1   
    61   42   43 1   
    62   45   54 1   
    63   46   57 1   
    64   56   59 1   
    65   57   63 1   
    66   60   61 1   
@<TRIPOS>SUBSTRUCTURE
     1 3YZ         1 TEMP              0 ****  ****    0 ROOT
