@<TRIPOS>MOLECULE
3YZ
   66    66     1     0     0
SMALL
bcc


@<TRIPOS>ATOM
      1 C14         1.2740    3.6980    1.3220 c2        1 3YZ     -0.522000
      2 C13         1.6460    2.6460    1.9880 c1        1 3YZ      0.127000
      3 C11         3.7360   -0.5530    1.1440 c1        1 3YZ     -0.127000
      4 C6          6.0320   -0.1590    6.6550 c2        1 3YZ      0.091000
      5 C4          8.1980    0.6840    5.7780 c2        1 3YZ     -0.074000
      6 C15         0.4170   -4.0100    1.2800 c1        1 3YZ      0.250000
      7 C12         3.0080   -1.6360    0.6510 c2        1 3YZ     -0.336000
      8 C5          7.3340    0.2010    6.8600 c2        1 3YZ     -0.205000
      9 C7          5.5140   -0.1500    5.3260 c2        1 3YZ     -0.176000
     10 C25         6.3840    0.0890    4.2180 c2        1 3YZ     -0.042000
     11 C3          7.8560    0.2490    4.3670 c3        1 3YZ      0.130000
     12 C10         3.1630   -0.2530    2.5270 c3        1 3YZ     -0.010000
     13 C17         2.0520   -2.0740    1.6340 c2        1 3YZ      0.299000
     14 C9          4.2760   -0.1950    3.5280 c2        1 3YZ     -0.011000
     15 C21        -0.0130   -0.3650    5.7550 c3        1 3YZ     -0.129000
     16 C22         0.4840    0.3410    6.9940 c3        1 3YZ     -0.208000
     17 C30         8.7860    1.5090   10.8820 c3        1 3YZ     -0.199000
     18 C29         7.4590    1.6170   10.1240 c3        1 3YZ     -0.135000
     19 C35         6.1300   -0.4040    9.6780 c1        1 3YZ     -0.201000
     20 C20         0.9620   -0.2700    4.6430 c2        1 3YZ     -0.148000
     21 C33         8.6000   -0.9970   11.4400 c3        1 3YZ     -0.153000
     22 C31         9.1470    0.3280   11.5920 c1        1 3YZ     -0.109000
     23 C1          9.4110    0.7640    2.6290 c3        1 3YZ     -0.083000
     24 N16         1.1660   -3.1060    1.4730 n2        1 3YZ     -0.338000
     25 N8          4.2010   -0.3320    4.8740 n2        1 3YZ     -0.091000
     26 N23         5.6010    0.0580    3.0910 na        1 3YZ     -0.131000
     27 N18         2.1560   -1.3180    2.7930 n3        1 3YZ     -0.182000
     28 N28         7.0820    0.4300    9.3610 n         1 3YZ     -0.202000
     29 N34         9.3130   -1.9740   12.3310 n4        1 3YZ     -0.058000
     30 O27         9.1100   -0.1480    8.4570 o         1 3YZ     -0.336000
     31 O32         7.1910   -3.1780   10.7550 oh        1 3YZ     -0.474000
     32 H1          1.7110    3.9870    0.3500 ha        1 3YZ      0.203000
     33 H2          3.1310   -2.1130   -0.3200 ha        1 3YZ      0.177000
     34 H3          2.6280    0.7560    2.5020 h1        1 3YZ      0.203000
     35 H4          5.3650   -0.4890    7.4740 ha        1 3YZ      0.174000
     36 H5          8.3410   -0.7580    4.1860 h1        1 3YZ      0.115000
     37 H6          0.4900    4.3980    1.6570 ha        1 3YZ      0.203000
     38 H9          0.6680    1.4220    6.7850 hc        1 3YZ      0.077667
     39 H10        -0.2740    0.2600    7.8090 hc        1 3YZ      0.077667
     40 H11         9.6580    1.6190   10.1480 hc        1 3YZ      0.188000
     41 H12         8.8650    2.3980   11.5770 hc        1 3YZ      0.188000
     42 H13         6.6340    1.8370   10.8610 h1        1 3YZ      0.122000
     43 H14         7.5280    2.4960    9.4200 h1        1 3YZ      0.122000
     44 H15         8.7370   -1.3820   10.3730 hx        1 3YZ      0.192000
     45 H16         5.4980   -0.1510   10.5540 ha        1 3YZ      0.065000
     46 H17         1.4400   -0.1160    7.3490 hc        1 3YZ      0.077667
     47 H18         7.4980   -1.0700   11.7030 hx        1 3YZ      0.192000
     48 H19         6.6770   -2.6510   10.1240 ho        1 3YZ      0.236000
     49 H23        10.2930    0.5340    3.2750 h1        1 3YZ      0.085000
     50 H24         9.6300    1.6320    1.9560 h1        1 3YZ      0.085000
     51 H25         9.1280   -0.1360    2.0290 h1        1 3YZ      0.085000
     52 H28         8.9100   -2.9060   12.1730 hn        1 3YZ      0.253667
     53 H29        10.3130   -1.9790   12.1080 hn        1 3YZ      0.253667
     54 H31         6.8450   -4.0690   10.6510 ho        1 3YZ      0.236000
     55 C26         7.9320    0.1350    8.1980 c2        1 3YZ      0.402000
     56 C24         9.2500    1.4850    5.9930 c2        1 3YZ     -0.179000
     57 C19         1.2450   -1.3260    3.8560 c2        1 3YZ     -0.075000
     58 H7         -0.2400   -1.4370    6.0000 hc        1 3YZ      0.090500
     59 H20         9.5670    1.7940    6.9970 ha        1 3YZ      0.125000
     60 H21         5.8580    0.2100    2.1410 hn        1 3YZ      0.303000
     61 H22         9.8580    1.8760    5.1650 ha        1 3YZ      0.125000
     62 H26         0.7650   -2.3110    4.0230 h4        1 3YZ      0.149000
     63 H27         1.4410    0.7140    4.5060 ha        1 3YZ      0.154000
     64 H343        9.2060   -1.7040   13.3110 hn        1 3YZ      0.253667
     65 O2          8.3150    1.2100    3.4150 os        1 3YZ     -0.266000
     66 H8         -0.9780    0.1070    5.4190 hc        1 3YZ      0.090500
@<TRIPOS>BOND
     1    1    2 1   
     2    1   32 1   
     3    1   37 1   
     4    3    7 1   
     5    3   12 1   
     6    4    8 1   
     7    4    9 1   
     8    4   35 1   
     9    5    8 1   
    10    5   11 1   
    11    5   56 1   
    12    6   24 1   
    13    7   13 1   
    14    7   33 1   
    15    8   55 1   
    16    9   10 1   
    17    9   25 1   
    18   10   11 1   
    19   10   26 1   
    20   11   36 1   
    21   11   65 1   
    22   12   14 1   
    23   12   27 1   
    24   12   34 1   
    25   13   24 1   
    26   13   27 1   
    27   14   25 1   
    28   14   26 1   
    29   15   16 1   
    30   15   20 1   
    31   15   58 1   
    32   15   66 1   
    33   16   38 1   
    34   16   39 1   
    35   16   46 1   
    36   17   18 1   
    37   17   22 1   
    38   17   40 1   
    39   17   41 1   
    40   18   28 1   
    41   18   42 1   
    42   18   43 1   
    43   19   28 1   
    44   19   45 1   
    45   20   57 1   
    46   20   63 1   
    47   21   22 1   
    48   21   29 1   
    49   21   44 1   
    50   21   47 1   
    51   23   49 1   
    52   23   50 1   
    53   23   51 1   
    54   23   65 1   
    55   26   60 1   
    56   27   57 1   
    57   28   55 1   
    58   29   52 1   
    59   29   53 1   
    60   29   64 1   
    61   30   55 1   
    62   31   48 1   
    63   31   54 1   
    64   56   59 1   
    65   56   61 1   
    66   57   62 1   
@<TRIPOS>SUBSTRUCTURE
     1 3YZ         1 TEMP              0 ****  ****    0 ROOT
