@<TRIPOS>MOLECULE
3Z0
   61    58     1     0     0
SMALL
bcc


@<TRIPOS>ATOM
      1 C8          1.0210   -2.4750   -1.1380 c1        1 3Z0     -0.047000
      2 C7          1.1950   -2.3670    0.2930 c3        1 3Z0     -0.173000
      3 C5          3.0350   -0.7890    1.0960 c1        1 3Z0     -0.053000
      4 C15         4.3360    0.1190    6.3840 c2        1 3Z0     -0.115000
      5 C17         7.4530    0.2590    5.9180 c1        1 3Z0      0.163000
      6 C9         -1.7040    0.0220    1.0910 c1        1 3Z0      0.272000
      7 C6          1.6850   -1.0960    0.8570 c2        1 3Z0     -0.329000
      8 C16         7.9350    0.0020    6.9940 c1        1 3Z0     -0.280000
      9 C14         4.4300    0.3310    5.0630 c2        1 3Z0     -0.075000
     10 C21         5.6780    0.5580    4.2660 c2        1 3Z0      0.076000
     11 C18         6.9800    0.5430    4.6450 c2        1 3Z0     -0.173000
     12 C4          3.0300    0.6460    1.6510 c3        1 3Z0     -0.019000
     13 C11         0.8490    0.0040    1.2640 c2        1 3Z0      0.317000
     14 C12         3.7770    0.6360    2.9580 c2        1 3Z0      0.136000
     15 C28         6.2750   -1.9260   10.5900 c2        1 3Z0     -0.178000
     16 C29        10.2680   -0.3090    9.6850 c2        1 3Z0     -0.287000
     17 C27         6.7580   -1.3970    9.4570 c2        1 3Z0     -0.080000
     18 C32         9.1050   -0.9700   10.3530 c3        1 3Z0      0.014000
     19 C30        11.5460   -0.0330   10.0630 c2        1 3Z0      0.123000
     20 C1          0.8640    3.4070    1.2750 c1        1 3Z0     -0.058000
     21 C20         9.8420   -0.3910   14.6320 c2        1 3Z0      0.169000
     22 N10        -0.5160    0.0520    1.1800 n2        1 3Z0     -0.354000
     23 N13         3.3070    0.3790    4.1590 n2        1 3Z0     -0.123000
     24 N22         5.2320    0.8250    2.9180 na        1 3Z0     -0.141000
     25 N3          1.6140    1.0480    1.7590 n3        1 3Z0     -0.285000
     26 N26         8.0590   -0.8850    9.3100 n3        1 3Z0     -0.162000
     27 N31        12.0680   -0.3560   11.2650 n8        1 3Z0     -0.355000
     28 O25         9.8650    0.0870    8.3640 os        1 3Z0     -0.066000
     29 H1          0.2310   -2.6860    0.7870 hc        1 3Z0      0.156500
     30 H2          1.9470   -3.1870    0.5360 hc        1 3Z0      0.156500
     31 H3          3.5640    1.3190    0.9070 h1        1 3Z0      0.197000
     32 H4          3.3680   -0.0300    6.8850 ha        1 3Z0      0.137500
     33 H5          7.7810    0.7570    3.9040 ha        1 3Z0      0.186000
     34 H6          1.3650   -1.6330   -1.7570 ha        1 3Z0      0.043000
     35 H9          5.2450   -2.3130   10.6200 ha        1 3Z0      0.153500
     36 H10        10.4150   -2.7860   12.3030 ha        1 3Z0      0.005375
     37 H11         5.2270    0.0900    7.0240 ha        1 3Z0      0.137500
     38 H12         6.1570   -1.3270    8.5280 h4        1 3Z0      0.168000
     39 H13         8.7750   -0.4340   11.2890 h1        1 3Z0      0.143500
     40 H14        12.2230    0.4760    9.3420 h4        1 3Z0      0.178000
     41 H15        10.8630   -2.8410   12.8080 ha        1 3Z0      0.005375
     42 H16         0.8340    3.2180    0.1960 ha        1 3Z0      0.078000
     43 H17         2.7270    4.6170    1.0340 ha        1 3Z0      0.005375
     44 H18         2.9970    4.0040    0.9040 ha        1 3Z0      0.005375
     45 H22        10.7540   -0.2130   15.2400 h4        1 3Z0      0.092500
     46 H23         7.0310   -0.1740   12.8300 ha        1 3Z0      0.005375
     47 H24         7.5320   -0.0750   13.2760 ha        1 3Z0      0.005375
     48 H27        11.5080   -0.7680   11.9790 hn        1 3Z0      0.252000
     49 H28        12.9960   -0.0870   11.4830 hn        1 3Z0      0.252000
     50 C24         8.5570   -0.2770    8.2040 c2        1 3Z0      0.415000
     51 C23         5.8680    1.1770    1.8230 c1        1 3Z0     -0.039000
     52 C2          1.1650    2.3430    2.2120 c3        1 3Z0     -0.109000
     53 H7          6.8410   -2.0090   11.5290 ha        1 3Z0      0.153500
     54 H19         6.9740    1.2470    1.8810 ha        1 3Z0      0.070000
     55 H20         5.5480   -0.7770    0.4570 ha        1 3Z0      0.005375
     56 H21         6.2250   -0.7870    0.5350 ha        1 3Z0      0.005375
     57 H25         1.9480    2.7350    2.9360 h1        1 3Z0      0.165500
     58 H26         0.2090    2.2220    2.8230 h1        1 3Z0      0.165500
     59 H313        9.3070   -2.0500   10.6010 h1        1 3Z0      0.143500
     60 O19         9.9020   -0.6420   13.4270 o         1 3Z0     -0.349000
     61 H8          8.8720   -0.3340   15.1690 h4        1 3Z0      0.092500
@<TRIPOS>BOND
     1    1    2 1   
     2    1   34 1   
     3    2    7 1   
     4    2   29 1   
     5    2   30 1   
     6    3    7 1   
     7    3   12 1   
     8    4    9 1   
     9    4   32 1   
    10    4   37 1   
    11    5    8 1   
    12    5   11 1   
    13    6   22 1   
    14    7   13 1   
    15    8   50 1   
    16    9   10 1   
    17    9   23 1   
    18   10   11 1   
    19   10   24 1   
    20   11   33 1   
    21   12   14 1   
    22   12   25 1   
    23   12   31 1   
    24   13   22 1   
    25   13   25 1   
    26   14   23 1   
    27   14   24 1   
    28   15   17 1   
    29   15   35 1   
    30   15   53 1   
    31   16   18 1   
    32   16   19 1   
    33   16   28 1   
    34   17   26 1   
    35   17   38 1   
    36   18   26 1   
    37   18   39 1   
    38   18   59 1   
    39   19   27 1   
    40   19   40 1   
    41   20   42 1   
    42   20   52 1   
    43   21   45 1   
    44   21   60 1   
    45   21   61 1   
    46   24   51 1   
    47   25   52 1   
    48   26   50 1   
    49   27   48 1   
    50   27   49 1   
    51   28   50 1   
    52   36   41 1   
    53   43   44 1   
    54   46   47 1   
    55   51   54 1   
    56   52   57 1   
    57   52   58 1   
    58   55   56 1   
@<TRIPOS>SUBSTRUCTURE
     1 3Z0         1 TEMP              0 ****  ****    0 ROOT
