@<TRIPOS>MOLECULE
3Z0
   61    57     1     0     0
SMALL
bcc


@<TRIPOS>ATOM
      1 C8          3.2170    2.8880    5.8570 c1        1 3Z0     -0.234000
      2 C7          3.7760    3.8470    6.3030 c1        1 3Z0     -0.234000
      3 C5          4.2870   -2.2110    1.9710 c1        1 3Z0     -0.041000
      4 C15         8.6050   -2.4180    6.1460 c1        1 3Z0      0.122000
      5 C17         8.5510    0.0260    6.6270 c1        1 3Z0     -0.033000
      6 C9          2.0990    0.2750    4.0390 c1        1 3Z0      0.137000
      7 C6          3.3360   -1.5520    1.3780 c2        1 3Z0     -0.053000
      8 C16         9.3020   -1.2160    6.7050 c3        1 3Z0     -0.285000
      9 C14         7.7000   -2.1320    5.0890 c2        1 3Z0     -0.176000
     10 C21         7.3450   -0.8160    4.6920 c2        1 3Z0     -0.078000
     11 C18         7.9290    0.3880    5.3430 c3        1 3Z0      0.004000
     12 C4          5.2280   -2.9120    2.5480 c2        1 3Z0     -0.089000
     13 C11         1.9960   -1.3320    2.0220 c2        1 3Z0      0.197000
     14 C12         6.1990   -2.3590    3.4830 c2        1 3Z0      0.119000
     15 C28         5.2660    1.3630   11.1950 c3        1 3Z0     -0.145000
     16 C29         6.2130    1.8930   10.1860 c2        1 3Z0     -0.092000
     17 C27         4.8310    2.4340   12.1670 c3        1 3Z0     -0.215000
     18 C32        10.5560   -3.7860    8.5330 c2        1 3Z0      0.025000
     19 C30         7.3030    1.2100    9.8020 c2        1 3Z0     -0.209000
     20 C1         -0.6510   -1.4180    3.3450 c1        1 3Z0     -0.079000
     21 C20         6.9860    2.3060    6.3680 c1        1 3Z0     -0.107000
     22 N10         2.0520   -0.4550    3.1100 n2        1 3Z0     -0.313000
     23 N13         6.9760   -3.0710    4.3140 n2        1 3Z0     -0.046000
     24 N22         6.3910   -0.9120    3.6530 na        1 3Z0     -0.105000
     25 N3          0.9710   -1.9330    1.5180 n2        1 3Z0     -0.170000
     26 N26        10.7350   -2.5640    8.2250 n2        1 3Z0     -0.241000
     27 N31         8.2400    1.6650    8.8030 n4        1 3Z0     -0.091000
     28 O25         9.4400   -0.8370    9.0880 o         1 3Z0     -0.350000
     29 H1          3.4560   -1.1100    0.3730 ha        1 3Z0      0.190000
     30 H2          4.2340    4.7200    6.6940 ha        1 3Z0      0.233500
     31 H3          5.3170   -4.0040    2.3780 ha        1 3Z0      0.195000
     32 H4         10.2440   -1.1270    6.0540 hc        1 3Z0      0.234000
     33 H5          8.7160    0.8730    4.6730 h1        1 3Z0      0.187000
     34 H6          2.7110    2.0370    5.4520 ha        1 3Z0      0.233500
     35 H9          4.3640    0.9630   10.6500 hc        1 3Z0      0.108500
     36 H10         4.3360    3.2800   11.6320 hc        1 3Z0      0.088667
     37 H11         5.7060    2.8350   12.7330 hc        1 3Z0      0.088667
     38 H12         4.1040    2.0050   12.8990 hc        1 3Z0      0.088667
     39 H13        11.4540   -4.4360    8.5580 h4        1 3Z0      0.146000
     40 H14         9.5880   -4.2710    8.7680 h4        1 3Z0      0.146000
     41 H15         7.5840    0.2200   10.2160 hx        1 3Z0      0.196000
     42 H16        -1.5580   -4.9450    1.1360 ha        1 3Z0      0.003167
     43 H17        -2.0290   -4.7480    1.5810 ha        1 3Z0      0.003167
     44 H18        -1.7110   -1.3950    3.6360 ha        1 3Z0      0.067000
     45 H22         6.1060    2.9950    6.2730 ha        1 3Z0      0.112000
     46 H23        10.2440    1.8010    3.2800 ha        1 3Z0      0.003167
     47 H24         9.9220    2.3220    3.5700 ha        1 3Z0      0.003167
     48 H27         8.3060    0.9360    7.9570 hn        1 3Z0      0.263000
     49 H28         9.1640    1.7290    9.2300 hn        1 3Z0      0.263000
     50 C24         9.7790   -1.5490    8.1300 c2        1 3Z0      0.339000
     51 C23         5.7730    0.0150    2.9300 c1        1 3Z0      0.020000
     52 C2         -0.3830   -1.8280    1.9750 c3        1 3Z0     -0.181000
     53 H7          5.9540    2.8830    9.7690 ha        1 3Z0      0.140000
     54 H19         6.0160    1.0690    3.1870 ha        1 3Z0      0.070000
     55 H20         8.5890    3.3600    4.9990 ha        1 3Z0      0.003167
     56 H21         8.1900    3.9050    5.0720 ha        1 3Z0      0.003167
     57 H25        -0.8280   -2.8680    1.8060 h1        1 3Z0      0.155500
     58 H26        -0.9270   -1.1380    1.2510 h1        1 3Z0      0.155500
     59 H313        7.9690    2.5670    8.4040 hn        1 3Z0      0.263000
     60 O19         6.8640    1.3860    5.4480 os        1 3Z0     -0.146000
     61 H8          5.7200    0.5030   11.7580 hc        1 3Z0      0.108500
@<TRIPOS>BOND
     1    1    2 1   
     2    1   34 1   
     3    2   30 1   
     4    3    7 1   
     5    3   12 1   
     6    4    8 1   
     7    4    9 1   
     8    5    8 1   
     9    5   11 1   
    10    6   22 1   
    11    7   13 1   
    12    7   29 1   
    13    8   32 1   
    14    8   50 1   
    15    9   10 1   
    16    9   23 1   
    17   10   11 1   
    18   10   24 1   
    19   11   33 1   
    20   11   60 1   
    21   12   14 1   
    22   12   31 1   
    23   13   22 1   
    24   13   25 1   
    25   14   23 1   
    26   14   24 1   
    27   15   16 1   
    28   15   17 1   
    29   15   35 1   
    30   15   61 1   
    31   16   19 1   
    32   16   53 1   
    33   17   36 1   
    34   17   37 1   
    35   17   38 1   
    36   18   26 1   
    37   18   39 1   
    38   18   40 1   
    39   19   27 1   
    40   19   41 1   
    41   20   44 1   
    42   20   52 1   
    43   21   45 1   
    44   21   60 1   
    45   24   51 1   
    46   25   52 1   
    47   26   50 1   
    48   27   48 1   
    49   27   49 1   
    50   27   59 1   
    51   28   50 1   
    52   42   43 1   
    53   46   47 1   
    54   51   54 1   
    55   52   57 1   
    56   52   58 1   
    57   55   56 1   
@<TRIPOS>SUBSTRUCTURE
     1 3Z0         1 TEMP              0 ****  ****    0 ROOT
