@<TRIPOS>MOLECULE
3Z1
   57    60     1     0     0
SMALL
bcc


@<TRIPOS>ATOM
      1 C19         1.0360    0.2380   -1.1230 c3        1 3Z1      0.195100
      2 N18         2.3790   -0.0700   -0.7300 nu        1 3Z1     -0.831900
      3 C16         2.7620   -0.0090    0.6190 ca        1 3Z1      0.871900
      4 N17         4.1000    0.0410    0.8910 nb        1 3Z1     -0.761000
      5 N15         1.7370   -0.0670    1.6000 nb        1 3Z1     -0.723000
      6 C14         2.1300   -0.1150    2.8550 ca        1 3Z1      0.485200
      7 C13         3.5060   -0.1010    3.2630 ca        1 3Z1     -0.323600
      8 C9          3.9130   -0.1600    4.6130 ca        1 3Z1     -0.075000
      9 C12         4.4710   -0.0180    2.2120 ca        1 3Z1      0.466600
     10 C10         5.8570    0.0080    2.5790 ca        1 3Z1     -0.194300
     11 C11         6.2230   -0.0530    3.8990 ca        1 3Z1     -0.084000
     12 C8          5.2550   -0.1400    4.9370 cp        1 3Z1     -0.062000
     13 C1          5.6950   -0.1990    6.3350 cp        1 3Z1     -0.134000
     14 C2          5.6090    0.9760    7.1450 ca        1 3Z1      0.245600
     15 N20         5.2020    2.1760    6.5970 nv        1 3Z1     -0.840200
     16 C6          6.1890   -1.3920    6.8690 ca        1 3Z1      0.012700
     17 C7          6.2720   -2.6170    6.0380 c3        1 3Z1     -0.064800
     18 C5          6.5940   -1.4460    8.2110 ca        1 3Z1     -0.197000
     19 C4          6.5130   -0.3170    9.0110 ca        1 3Z1     -0.052000
     20 C3          6.0310    0.8910    8.5000 ca        1 3Z1     -0.245600
     21 C21         5.9240    2.0810    9.3890 c         1 3Z1      0.698700
     22 O22         4.8970    2.7890    9.4290 o         1 3Z1     -0.617100
     23 N23         7.0400    2.3460   10.1740 ns        1 3Z1     -0.465100
     24 C24         7.2040    3.4130   11.0730 ca        1 3Z1      0.032600
     25 C29         8.5080    3.7190   11.5250 ca        1 3Z1     -0.109000
     26 C25         6.1240    4.1770   11.5670 ca        1 3Z1     -0.089000
     27 C26         6.3410    5.2080   12.4720 ca        1 3Z1     -0.187000
     28 C27         7.6370    5.5020   12.9160 ca        1 3Z1      0.150100
     29 O30         7.9490    6.5000   13.8120 os        1 3Z1     -0.315900
     30 C31         6.8590    7.2770   14.2990 c3        1 3Z1      0.113700
     31 C28         8.7240    4.7470   12.4370 ca        1 3Z1     -0.175300
     32 C32        10.1380    5.0550   12.9130 c3        1 3Z1      0.703200
     33 F34        11.1120    4.2440   12.3770 f         1 3Z1     -0.236300
     34 F35        10.5740    6.3240   12.6210 f         1 3Z1     -0.236300
     35 F33        10.3220    4.9310   14.2680 f         1 3Z1     -0.236300
     36 H1          0.9650    0.1250   -2.2370 h1        1 3Z1      0.045700
     37 H2          0.7340    1.2840   -0.8420 h1        1 3Z1      0.045700
     38 H3          0.3200   -0.4790   -0.6400 h1        1 3Z1      0.045700
     39 H4          3.0910    0.1850   -1.3810 hn        1 3Z1      0.432800
     40 H5          1.3320   -0.1640    3.6210 h4        1 3Z1      0.028100
     41 H6          3.1440   -0.2300    5.3990 ha        1 3Z1      0.140000
     42 H7          6.6180    0.0760    1.7860 ha        1 3Z1      0.155000
     43 H8          7.2890   -0.0330    4.1790 ha        1 3Z1      0.144000
     44 H9          4.8780    2.8770    7.2260 hn        1 3Z1      0.427300
     45 H10         4.7370    2.1310    5.7200 hn        1 3Z1      0.427300
     46 H11         6.9280   -3.3860    6.5160 hc        1 3Z1      0.053033
     47 H12         5.2510   -3.0570    5.9070 hc        1 3Z1      0.053033
     48 H13         6.6810   -2.3790    5.0240 hc        1 3Z1      0.053033
     49 H14         6.9720   -2.3910    8.6280 ha        1 3Z1      0.140000
     50 H15         6.8140   -0.3840   10.0690 ha        1 3Z1      0.135000
     51 H16         7.8500    1.7900   10.0100 hn        1 3Z1      0.324500
     52 H17         9.3780    3.1450   11.1610 ha        1 3Z1      0.153000
     53 H18         5.0920    3.9680   11.2340 ha        1 3Z1      0.179000
     54 H19         5.4810    5.7890   12.8370 ha        1 3Z1      0.149000
     55 H20         6.1350    6.6340   14.8560 h1        1 3Z1      0.050033
     56 H21         7.3550    8.0060   14.9900 h1        1 3Z1      0.050033
     57 H22         6.3500    7.8100   13.4600 h1        1 3Z1      0.050033
@<TRIPOS>BOND
     1    1    2 1   
     2    1   36 1   
     3    1   37 1   
     4    1   38 1   
     5    2    3 1   
     6    2   39 1   
     7    3    4 ar  
     8    3    5 ar  
     9    4    9 ar  
    10    5    6 ar  
    11    6    7 ar  
    12    6   40 1   
    13    7    8 ar  
    14    7    9 ar  
    15    8   12 ar  
    16    8   41 1   
    17    9   10 ar  
    18   10   11 ar  
    19   10   42 1   
    20   11   12 ar  
    21   11   43 1   
    22   12   13 1   
    23   13   14 ar  
    24   13   16 ar  
    25   14   15 1   
    26   14   20 ar  
    27   15   44 1   
    28   15   45 1   
    29   16   17 1   
    30   16   18 ar  
    31   17   46 1   
    32   17   47 1   
    33   17   48 1   
    34   18   19 ar  
    35   18   49 1   
    36   19   20 ar  
    37   19   50 1   
    38   20   21 1   
    39   21   22 2   
    40   21   23 1   
    41   23   24 1   
    42   23   51 1   
    43   24   25 ar  
    44   24   26 ar  
    45   25   31 ar  
    46   25   52 1   
    47   26   27 ar  
    48   26   53 1   
    49   27   28 ar  
    50   27   54 1   
    51   28   29 1   
    52   28   31 ar  
    53   29   30 1   
    54   30   55 1   
    55   30   56 1   
    56   30   57 1   
    57   31   32 1   
    58   32   33 1   
    59   32   34 1   
    60   32   35 1   
@<TRIPOS>SUBSTRUCTURE
     1 3Z1         1 TEMP              0 ****  ****    0 ROOT
