@<TRIPOS>MOLECULE
3Z1
   57    60     1     0     0
SMALL
bcc


@<TRIPOS>ATOM
      1 C19         1.1060    0.2380   -1.1610 c3        1 3Z1      0.195100
      2 N18         2.4370   -0.0960   -0.7480 nh        1 3Z1     -0.831900
      3 C16         2.8040   -0.0260    0.6040 ca        1 3Z1      0.871900
      4 N17         4.1400   -0.0040    0.8930 nb        1 3Z1     -0.761000
      5 N15         1.7660   -0.0480    1.5730 nb        1 3Z1     -0.723000
      6 C14         2.1430   -0.0880    2.8340 ca        1 3Z1      0.485200
      7 C13         3.5130   -0.1010    3.2590 ca        1 3Z1     -0.323600
      8 C9          3.9020   -0.1520    4.6150 ca        1 3Z1     -0.075000
      9 C12         4.4930   -0.0540    2.2200 ca        1 3Z1      0.466600
     10 C10         5.8750   -0.0560    2.6040 ca        1 3Z1     -0.194300
     11 C11         6.2230   -0.1080    3.9280 ca        1 3Z1     -0.084000
     12 C8          5.2400   -0.1590    4.9550 cp        1 3Z1     -0.062000
     13 C1          5.6620   -0.2100    6.3590 cp        1 3Z1     -0.134000
     14 C2          5.5940    0.9770    7.1540 ca        1 3Z1      0.245600
     15 N20         5.2220    2.1800    6.5850 nh        1 3Z1     -0.840200
     16 C6          6.1200   -1.4070    6.9150 ca        1 3Z1      0.012700
     17 C7          6.1850   -2.6450    6.1000 c3        1 3Z1     -0.064800
     18 C5          6.5070   -1.4530    8.2630 ca        1 3Z1     -0.197000
     19 C4          6.4430   -0.3130    9.0470 ca        1 3Z1     -0.052000
     20 C3          5.9970    0.9000    8.5140 ca        1 3Z1     -0.245600
     21 C21         5.9060    2.1030    9.3870 c         1 3Z1      0.698700
     22 O22         4.8960    2.8360    9.4050 o         1 3Z1     -0.617100
     23 N23         7.0180    2.3530   10.1820 n         1 3Z1     -0.465100
     24 C24         7.1970    3.4270   11.0700 ca        1 3Z1      0.032600
     25 C29         8.5020    3.7080   11.5340 ca        1 3Z1     -0.109000
     26 C25         6.1290    4.2230   11.5400 ca        1 3Z1     -0.089000
     27 C26         6.3590    5.2590   12.4350 ca        1 3Z1     -0.187000
     28 C27         7.6560    5.5280   12.8920 ca        1 3Z1      0.150100
     29 O30         7.9810    6.5300   13.7790 os        1 3Z1     -0.315900
     30 C31         6.9030    7.3380   14.2430 c3        1 3Z1      0.113700
     31 C28         8.7310    4.7420   12.4360 ca        1 3Z1     -0.175300
     32 C32        10.1460    5.0230   12.9260 c3        1 3Z1      0.703200
     33 F34        11.1070    4.1830   12.4130 f         1 3Z1     -0.236300
     34 F35        10.6150    6.2770   12.6240 f         1 3Z1     -0.236300
     35 F33        10.3100    4.9130   14.2850 f         1 3Z1     -0.236300
     36 H1          0.3680   -0.4570   -0.6790 h1        1 3Z1      0.045700
     37 H2          0.8250    1.2940   -0.8980 h1        1 3Z1      0.045700
     38 H3          1.0470    0.1130   -2.2760 h1        1 3Z1      0.045700
     39 H4          3.1620    0.1350   -1.3940 hn        1 3Z1      0.433800
     40 H5          1.3340   -0.1090    3.5900 h4        1 3Z1      0.028100
     41 H6          3.1230   -0.1940    5.3920 ha        1 3Z1      0.140000
     42 H7          6.6460   -0.0150    1.8190 ha        1 3Z1      0.155000
     43 H8          7.2860   -0.1090    4.2210 ha        1 3Z1      0.144000
     44 H9          4.9060    2.8960    7.2010 hn        1 3Z1      0.427300
     45 H10         4.7660    2.1340    5.7030 hn        1 3Z1      0.427300
     46 H11         6.8150   -3.4230    6.5960 hc        1 3Z1      0.053033
     47 H12         5.1550   -3.0610    5.9600 hc        1 3Z1      0.053033
     48 H13         6.6130   -2.4290    5.0890 hc        1 3Z1      0.053033
     49 H14         6.8570   -2.4010    8.6960 ha        1 3Z1      0.140000
     50 H15         6.7290   -0.3730   10.1090 ha        1 3Z1      0.135000
     51 H16         7.8170    1.7750   10.0360 hn        1 3Z1      0.324500
     52 H17         9.3630    3.1090   11.1890 ha        1 3Z1      0.153000
     53 H18         5.0970    4.0330   11.1970 ha        1 3Z1      0.179000
     54 H19         5.5090    5.8650   12.7820 ha        1 3Z1      0.149000
     55 H20         6.1580    6.7190   14.7990 h1        1 3Z1      0.050033
     56 H21         6.4170    7.8730   13.3920 h1        1 3Z1      0.050033
     57 H22         7.4080    8.0640   14.9310 h1        1 3Z1      0.050033
@<TRIPOS>BOND
     1    1    2 1   
     2    1   36 1   
     3    1   37 1   
     4    1   38 1   
     5    2    3 1   
     6    2   39 1   
     7    3    4 ar  
     8    3    5 ar  
     9    4    9 ar  
    10    5    6 ar  
    11    6    7 ar  
    12    6   40 1   
    13    7    8 ar  
    14    7    9 ar  
    15    8   12 ar  
    16    8   41 1   
    17    9   10 ar  
    18   10   11 ar  
    19   10   42 1   
    20   11   12 ar  
    21   11   43 1   
    22   12   13 1   
    23   13   14 ar  
    24   13   16 ar  
    25   14   15 1   
    26   14   20 ar  
    27   15   44 1   
    28   15   45 1   
    29   16   17 1   
    30   16   18 ar  
    31   17   46 1   
    32   17   47 1   
    33   17   48 1   
    34   18   19 ar  
    35   18   49 1   
    36   19   20 ar  
    37   19   50 1   
    38   20   21 1   
    39   21   22 2   
    40   21   23 1   
    41   23   24 1   
    42   23   51 1   
    43   24   25 ar  
    44   24   26 ar  
    45   25   31 ar  
    46   25   52 1   
    47   26   27 ar  
    48   26   53 1   
    49   27   28 ar  
    50   27   54 1   
    51   28   29 1   
    52   28   31 ar  
    53   29   30 1   
    54   30   55 1   
    55   30   56 1   
    56   30   57 1   
    57   31   32 1   
    58   32   33 1   
    59   32   34 1   
    60   32   35 1   
@<TRIPOS>SUBSTRUCTURE
     1 3Z1         1 TEMP              0 ****  ****    0 ROOT
