@<TRIPOS>MOLECULE
3Z2
   69    72     1     0     0
SMALL
bcc


@<TRIPOS>ATOM
      1 N1          0.3400    1.3750   -0.6040 n7        1 3Z2     -0.161000
      2 C4          1.4690    0.4570   -0.7600 c3        1 3Z2     -0.082000
      3 C5          2.0760    0.0160    0.5460 c2        1 3Z2     -0.050000
      4 C6          3.3790   -0.3680    0.5870 c2        1 3Z2     -0.143000
      5 C7         -0.3440    1.5140    0.5060 c1        1 3Z2     -0.071000
      6 C8          0.0500    0.7710    1.6970 c2        1 3Z2     -0.248000
      7 C13         0.9030    0.4620    4.7870 c2        1 3Z2     -0.071000
      8 C15        -0.3360   -0.9020    6.3770 c2        1 3Z2      0.144000
      9 C17        -1.3230   -2.1280    8.3220 c2        1 3Z2      0.405000
     10 C20        -2.7240   -0.6630    9.9980 c2        1 3Z2      0.334000
     11 C22        -4.5890   -0.2070   11.5360 c2        1 3Z2      0.008000
     12 C24        -6.8220   -0.9350   12.6790 c2        1 3Z2     -0.024000
     13 C26        -6.1600   -0.8060   15.0370 c1        1 3Z2     -0.132000
     14 C28        -2.2680   -4.3790   10.2590 c3        1 3Z2      0.051000
     15 C2          3.7490    0.3850   -1.7200 c2        1 3Z2     -0.002000
     16 C3          2.3980    0.8010   -1.8430 c1        1 3Z2     -0.121000
     17 C1          4.2200   -0.2080   -0.5630 c2        1 3Z2     -0.019000
     18 O1          5.5500   -0.6920   -0.5150 os        1 3Z2     -0.017000
     19 C11         6.3380   -0.5070    0.4750 c1        1 3Z2      0.005000
     20 C9          1.1950    0.0430    1.7120 c2        1 3Z2      0.082000
     21 O3          1.7030   -0.6800    2.7810 os        1 3Z2     -0.152000
     22 C12         0.9500   -0.6610    3.9520 c2        1 3Z2     -0.064000
     23 C14         0.2570    0.3490    6.0110 c2        1 3Z2     -0.215000
     24 C16         0.3320   -1.8590    4.3700 c2        1 3Z2     -0.025000
     25 N2         -0.2970   -1.9910    5.5430 n2        1 3Z2     -0.138000
     26 O4         -0.9100   -3.2600    8.0070 o         1 3Z2     -0.346000
     27 C18        -2.1700   -1.9380    9.5060 c2        1 3Z2     -0.337000
     28 N5         -3.4470   -0.9930   11.2240 n         1 3Z2     -0.166000
     29 C23        -5.6940   -0.6020   12.1130 c1        1 3Z2     -0.217000
     30 C25        -7.0630   -0.9950   14.1090 c2        1 3Z2     -0.105000
     31 C27        -5.2850   -0.6180   15.9750 c2        1 3Z2     -0.174000
     32 N4         -3.5200   -2.4000   11.3180 na        1 3Z2     -0.118000
     33 C19        -2.6210   -2.9410   10.3680 c2        1 3Z2      0.133000
     34 C29        -2.5690   -5.2490   11.3530 c1        1 3Z2     -0.218000
     35 C30        -3.1040   -6.3580   11.4360 c1        1 3Z2     -0.171000
     36 N6         -3.7910   -7.0490   10.4400 n7        1 3Z2     -0.053000
     37 C31        -3.7680   -6.4020    9.2830 c1        1 3Z2     -0.040000
     38 C32        -3.1240   -5.0820    9.0660 c3        1 3Z2     -0.196000
     39 H1         -1.2610   -0.0880    8.0040 hn        1 3Z2      0.267000
     40 H2          3.8210   -0.7900    1.5060 ha        1 3Z2      0.169000
     41 H3          0.1080    1.8940   -1.4240 hn        1 3Z2      0.270000
     42 H4         -0.6170    0.8520    2.5670 ha        1 3Z2      0.171000
     43 H5          3.2930    0.5520   -4.3360 h1        1 3Z2      0.089667
     44 H6          3.6850    2.2090   -3.6670 h1        1 3Z2      0.089667
     45 H7          4.9740    1.2700   -4.5990 h1        1 3Z2      0.089667
     46 H8          1.3700    1.4090    4.4790 ha        1 3Z2      0.155000
     47 H9         -4.1570   -2.2910   13.3420 h1        1 3Z2      0.110667
     48 H10        -2.5880   -3.2000   13.0800 h1        1 3Z2      0.110667
     49 H11        -4.1810   -3.9390   12.5490 h1        1 3Z2      0.110667
     50 H12        -7.6930   -1.1950   12.0460 ha        1 3Z2      0.144000
     51 H13        -5.0880    0.3770   16.4030 ha        1 3Z2      0.138500
     52 H14         1.0390   -0.5210   -1.2210 h1        1 3Z2      0.188000
     53 H15         6.1020   -2.5780    1.6360 ha        1 3Z2      0.005000
     54 H16         5.5380   -2.2920    1.8830 ha        1 3Z2      0.005000
     55 H17         6.0170    0.0750    1.3650 ha        1 3Z2      0.037000
     56 H18         0.2070    1.2140    6.6870 ha        1 3Z2      0.154000
     57 H19         0.3530   -2.7610    3.7300 h4        1 3Z2      0.178000
     58 H20        -4.4110    0.8590   11.2690 h4        1 3Z2      0.191000
     59 H21        -8.1050   -1.2240   14.4020 ha        1 3Z2      0.146000
     60 H22        -4.6910   -1.4410   16.4000 ha        1 3Z2      0.138500
     61 H23        -1.1760   -4.4280    9.9620 hc        1 3Z2      0.169000
     62 H24        -4.2060   -7.9370   10.5950 hn        1 3Z2      0.276000
     63 H25        -3.9390   -4.3720    8.7650 hc        1 3Z2      0.156500
     64 H26        -2.4080   -5.1800    8.2030 hc        1 3Z2      0.156500
     65 O2          4.6520    0.5950   -2.7390 os        1 3Z2     -0.189000
     66 N3         -0.9890   -0.9710    7.6180 ns        1 3Z2     -0.319000
     67 C10         4.0950    1.2000   -3.9100 c3        1 3Z2     -0.060000
     68 O5         -2.6050    0.4920    9.5720 o         1 3Z2     -0.335000
     69 C21        -3.6020   -2.9820   12.6510 c3        1 3Z2     -0.098000
@<TRIPOS>BOND
     1    1    2 1   
     2    1    5 1   
     3    1   41 1   
     4    2    3 1   
     5    2   16 1   
     6    2   52 1   
     7    3    4 1   
     8    3   20 1   
     9    4   17 1   
    10    4   40 1   
    11    5    6 1   
    12    6   20 1   
    13    6   42 1   
    14    7   22 1   
    15    7   23 1   
    16    7   46 1   
    17    8   23 1   
    18    8   25 1   
    19    8   66 1   
    20    9   26 1   
    21    9   27 1   
    22    9   66 1   
    23   10   27 1   
    24   10   28 1   
    25   10   68 1   
    26   11   28 1   
    27   11   29 1   
    28   11   58 1   
    29   12   29 1   
    30   12   30 1   
    31   12   50 1   
    32   13   30 1   
    33   13   31 1   
    34   14   33 1   
    35   14   34 1   
    36   14   38 1   
    37   14   61 1   
    38   15   16 1   
    39   15   17 1   
    40   15   65 1   
    41   17   18 1   
    42   18   19 1   
    43   19   55 1   
    44   20   21 1   
    45   21   22 1   
    46   22   24 1   
    47   23   56 1   
    48   24   25 1   
    49   24   57 1   
    50   27   33 1   
    51   28   32 1   
    52   30   59 1   
    53   31   51 1   
    54   31   60 1   
    55   32   33 1   
    56   32   69 1   
    57   34   35 1   
    58   35   36 1   
    59   36   37 1   
    60   36   62 1   
    61   37   38 1   
    62   38   63 1   
    63   38   64 1   
    64   39   66 1   
    65   43   67 1   
    66   44   67 1   
    67   45   67 1   
    68   47   69 1   
    69   48   69 1   
    70   49   69 1   
    71   53   54 1   
    72   65   67 1   
@<TRIPOS>SUBSTRUCTURE
     1 3Z2         1 TEMP              0 ****  ****    0 ROOT
