@<TRIPOS>MOLECULE
3Z2
   69    72     1     0     0
SMALL
bcc


@<TRIPOS>ATOM
      1 N1          0.3440    1.2670   -0.4320 n3        1 3Z2     -0.206000
      2 C4          1.4730    0.3320   -0.5590 c3        1 3Z2      0.020000
      3 C5          2.1250    0.0780    0.7830 c2        1 3Z2     -0.092000
      4 C6          3.4550   -0.1020    0.9180 c2        1 3Z2     -0.077000
      5 C7         -0.3670    1.4210    0.6640 c1        1 3Z2     -0.065000
      6 C8          0.0010    0.6770    1.8600 c2        1 3Z2     -0.277000
      7 C13         0.7150    0.4560    4.9620 c2        1 3Z2     -0.073000
      8 C15        -0.4160   -1.0200    6.5330 c2        1 3Z2      0.143000
      9 C17        -1.3190   -2.3200    8.4720 c2        1 3Z2      0.407000
     10 C20        -2.8750   -0.9930   10.1230 c2        1 3Z2      0.326000
     11 C22        -3.7860   -0.5440   12.3940 c2        1 3Z2      0.012000
     12 C24        -6.1430   -0.8530   13.0070 c1        1 3Z2     -0.021000
     13 C26        -8.4450   -1.2390   13.5390 c1        1 3Z2      0.374000
     14 C28        -2.2420   -4.6910   10.2720 c3        1 3Z2      0.051000
     15 C2          3.8650    0.4870   -1.4210 c2        1 3Z2      0.091000
     16 C3          2.4370    0.6930   -1.6690 c2        1 3Z2     -0.098000
     17 C1          4.3280    0.0720   -0.2100 c2        1 3Z2     -0.115000
     18 O1          5.7110   -0.2270   -0.0600 os        1 3Z2     -0.010000
     19 C11         6.4240    0.2470    0.8860 c1        1 3Z2     -0.014000
     20 C9          1.2000    0.0460    1.9220 c2        1 3Z2      0.101000
     21 O3          1.7310   -0.6180    3.0160 os        1 3Z2     -0.151000
     22 C12         0.9330   -0.6670    4.1560 c2        1 3Z2     -0.061000
     23 C14         0.0350    0.2870    6.1610 c2        1 3Z2     -0.216000
     24 C16         0.4490   -1.9240    4.5770 c2        1 3Z2     -0.027000
     25 N2         -0.2090   -2.1110    5.7270 n2        1 3Z2     -0.139000
     26 O4         -0.7410   -3.3920    8.2060 o         1 3Z2     -0.352000
     27 C18        -2.2440   -2.2200    9.6040 c2        1 3Z2     -0.358000
     28 N5         -3.7090   -1.4190   11.2480 n         1 3Z2     -0.159000
     29 C23        -5.1310    0.1070   12.5700 c3        1 3Z2     -0.169000
     30 C25        -7.4870   -0.4110   13.1370 c2        1 3Z2     -0.546000
     31 C27        -2.7730   -0.3100   13.2430 c2        1 3Z2     -0.205000
     32 N4         -3.3890   -2.7670   11.5200 na        1 3Z2     -0.126000
     33 C19        -2.6410   -3.2700   10.4420 c2        1 3Z2      0.140000
     34 C29        -2.6620   -5.6500   11.2460 c1        1 3Z2     -0.207000
     35 C30        -3.1730   -6.7710   11.1810 c1        1 3Z2     -0.177000
     36 N6         -3.7130   -7.3910   10.0560 n3        1 3Z2     -0.053000
     37 C31        -3.5600   -6.6570    8.9630 c1        1 3Z2     -0.044000
     38 C32        -2.9200   -5.3180    8.9280 c3        1 3Z2     -0.198000
     39 H1         -1.5080   -0.2970    8.0990 hn        1 3Z2      0.266000
     40 H2          3.9070   -0.3810    1.8860 ha        1 3Z2      0.165000
     41 H3          0.1300    1.8150   -1.2350 hn        1 3Z2      0.246000
     42 H4         -0.7130    0.6940    2.6940 ha        1 3Z2      0.168000
     43 H5          2.6600    1.3770   -3.6910 ha        1 3Z2      0.127000
     44 H6          0.9230    1.2460   -3.0970 ha        1 3Z2      0.127000
     45 H7          4.4250    0.4700   -3.2480 ho        1 3Z2      0.223000
     46 H8          1.0740    1.4480    4.6500 ha        1 3Z2      0.155000
     47 H9         -5.0320   -2.9180   12.8580 h1        1 3Z2      0.117000
     48 H10        -3.8080   -4.2970   12.8620 h1        1 3Z2      0.117000
     49 H11        -5.0230   -4.1450   11.4970 h1        1 3Z2      0.117000
     50 H12        -5.0380    0.9310   13.3370 hc        1 3Z2      0.128500
     51 H13        -2.8900    0.3710   14.0970 ha        1 3Z2      0.130500
     52 H14         1.0260   -0.6730   -0.8670 h1        1 3Z2      0.121000
     53 H15         5.8340   -1.3340    2.6330 ha        1 3Z2      0.004500
     54 H16         6.4200   -1.5940    2.4100 ha        1 3Z2      0.004500
     55 H17         5.9940    0.9390    1.6410 ha        1 3Z2      0.036000
     56 H18        -0.1490    1.1520    6.8150 ha        1 3Z2      0.153000
     57 H19         0.6070   -2.8280    3.9590 h4        1 3Z2      0.177000
     58 H20        -5.4380    0.6040   11.6030 hc        1 3Z2      0.128500
     59 H21        -7.7710    0.6380   12.8970 ha        1 3Z2      0.175000
     60 H22        -1.7830   -0.7730   13.1460 ha        1 3Z2      0.130500
     61 H23        -1.1210   -4.6980   10.1150 hc        1 3Z2      0.168000
     62 H24        -4.1240   -8.2940   10.0900 hn        1 3Z2      0.275000
     63 H25        -3.6990   -4.5930    8.5700 hc        1 3Z2      0.157000
     64 H26        -2.0940   -5.3480    8.1650 hc        1 3Z2      0.157000
     65 O2          4.7840    0.7790   -2.4010 oh        1 3Z2     -0.236000
     66 N3         -1.1100   -1.1460    7.7470 n         1 3Z2     -0.321000
     67 C10         1.9880    1.1220   -2.8600 c2        1 3Z2     -0.202000
     68 O5         -2.8210    0.1750    9.7190 o         1 3Z2     -0.340000
     69 C21        -4.3770   -3.5760   12.2150 c3        1 3Z2     -0.105000
@<TRIPOS>BOND
     1    1    2 1   
     2    1    5 1   
     3    1   41 1   
     4    2    3 1   
     5    2   16 1   
     6    2   52 1   
     7    3    4 1   
     8    3   20 1   
     9    4   17 1   
    10    4   40 1   
    11    5    6 1   
    12    6   20 1   
    13    6   42 1   
    14    7   22 1   
    15    7   23 1   
    16    7   46 1   
    17    8   23 1   
    18    8   25 1   
    19    8   66 1   
    20    9   26 1   
    21    9   27 1   
    22    9   66 1   
    23   10   27 1   
    24   10   28 1   
    25   10   68 1   
    26   11   28 1   
    27   11   29 1   
    28   11   31 1   
    29   12   29 1   
    30   12   30 1   
    31   13   30 1   
    32   14   33 1   
    33   14   34 1   
    34   14   38 1   
    35   14   61 1   
    36   15   16 1   
    37   15   17 1   
    38   15   65 1   
    39   16   67 1   
    40   17   18 1   
    41   18   19 1   
    42   19   55 1   
    43   20   21 1   
    44   21   22 1   
    45   22   24 1   
    46   23   56 1   
    47   24   25 1   
    48   24   57 1   
    49   27   33 1   
    50   28   32 1   
    51   29   50 1   
    52   29   58 1   
    53   30   59 1   
    54   31   51 1   
    55   31   60 1   
    56   32   33 1   
    57   32   69 1   
    58   34   35 1   
    59   35   36 1   
    60   36   37 1   
    61   36   62 1   
    62   37   38 1   
    63   38   63 1   
    64   38   64 1   
    65   39   66 1   
    66   43   67 1   
    67   44   67 1   
    68   45   65 1   
    69   47   69 1   
    70   48   69 1   
    71   49   69 1   
    72   53   54 1   
@<TRIPOS>SUBSTRUCTURE
     1 3Z2         1 TEMP              0 ****  ****    0 ROOT
