@<TRIPOS>MOLECULE
3Z3
   69    74     1     0     0
SMALL
bcc


@<TRIPOS>ATOM
      1 C11        -0.9360    1.1650   -0.5800 ca        1 3Z3     -0.095000
      2 C12         0.1730    1.8500   -1.0710 ca        1 3Z3     -0.137500
      3 C13         1.3900    1.7970   -0.3890 ca        1 3Z3     -0.106000
      4 C14         1.4940    1.0620    0.7920 ca        1 3Z3     -0.137500
      5 C15         0.3890    0.3780    1.2950 ca        1 3Z3     -0.095000
      6 C5         -0.8330    0.4240    0.6070 ca        1 3Z3     -0.091800
      7 C2         -1.9910   -0.2810    1.1430 cc        1 3Z3      0.208800
      8 N1         -2.8830   -1.0260    0.2830 na        1 3Z3     -0.387400
      9 C24        -2.2290   -1.8780   -0.7080 c3        1 3Z3      0.158100
     10 N2         -3.8050   -1.6980    1.1330 n         1 3Z3     -0.209400
     11 C4         -5.1330   -1.8600    0.6000 ca        1 3Z3      0.021600
     12 C6         -6.1850   -0.9900    0.9430 ca        1 3Z3     -0.114500
     13 C7         -7.4670   -1.2180    0.4480 ca        1 3Z3     -0.126500
     14 C8         -7.7150   -2.2990   -0.3970 ca        1 3Z3     -0.122000
     15 C9         -6.6760   -3.1610   -0.7430 ca        1 3Z3     -0.126500
     16 C10        -5.3890   -2.9510   -0.2540 ca        1 3Z3     -0.114500
     17 C3         -3.6700   -1.1440    2.4730 c         1 3Z3      0.694700
     18 O1         -4.3970   -1.4410    3.4250 o         1 3Z3     -0.598500
     19 C1         -2.4620   -0.2760    2.4390 cd        1 3Z3     -0.334400
     20 C16        -1.9620    0.4450    3.6170 c         1 3Z3      0.636900
     21 O2         -0.8630    0.1850    4.1140 o         1 3Z3     -0.503100
     22 C17        -2.8560    1.4990    4.1540 ca        1 3Z3     -0.238600
     23 C22        -3.7040    1.2370    5.2620 ca        1 3Z3      0.226600
     24 N3         -3.6730    0.0030    5.8960 nv        1 3Z3     -0.813200
     25 C18        -2.8270    2.7660    3.5720 ca        1 3Z3     -0.047000
     26 C19        -3.6310    3.7880    4.0590 ca        1 3Z3     -0.192000
     27 C20        -4.4840    3.5580    5.1440 ca        1 3Z3      0.004700
     28 C33        -5.3380    4.6610    5.6490 c3        1 3Z3     -0.061800
     29 C21        -4.5320    2.2940    5.7450 cp        1 3Z3     -0.125000
     30 C23        -5.4440    2.0350    6.8620 cp        1 3Z3     -0.095000
     31 C29        -6.6160    1.2680    6.6240 ca        1 3Z3     -0.077000
     32 C28        -7.5190    0.9800    7.6120 ca        1 3Z3     -0.210300
     33 C27        -7.3000    1.4500    8.9480 ca        1 3Z3      0.486600
     34 N5         -8.2020    1.1590    9.9410 nb        1 3Z3     -0.766000
     35 C31        -7.9360    1.6520   11.1890 ca        1 3Z3      0.877900
     36 N6         -8.9080    1.4570   12.1800 nu        1 3Z3     -0.832900
     37 C32        -8.5850    1.6190   13.5660 c3        1 3Z3      0.196100
     38 N4         -6.7780    2.3970   11.5360 nb        1 3Z3     -0.725000
     39 C30        -5.9330    2.6510   10.5590 ca        1 3Z3      0.497200
     40 C26        -6.1230    2.2150    9.2060 ca        1 3Z3     -0.360600
     41 C25        -5.2030    2.5020    8.1540 ca        1 3Z3      0.195900
     42 F1         -4.1040    3.2350    8.4470 f         1 3Z3     -0.127900
     43 H1         -1.8960    1.2160   -1.1170 ha        1 3Z3      0.157000
     44 H2          0.0870    2.4360   -1.9980 ha        1 3Z3      0.141000
     45 H3          2.2640    2.3370   -0.7810 ha        1 3Z3      0.138000
     46 H4          2.4500    1.0230    1.3360 ha        1 3Z3      0.141000
     47 H5          0.4660   -0.1870    2.2400 ha        1 3Z3      0.157000
     48 H6         -1.6790   -2.7480   -0.2610 h1        1 3Z3      0.060033
     49 H7         -1.5080   -1.2330   -1.2760 h1        1 3Z3      0.060033
     50 H8         -3.0150   -2.2640   -1.4100 h1        1 3Z3      0.060033
     51 H9         -6.0030   -0.1390    1.6190 ha        1 3Z3      0.143500
     52 H10        -8.2850   -0.5380    0.7280 ha        1 3Z3      0.137000
     53 H11        -8.7290   -2.4730   -0.7860 ha        1 3Z3      0.136000
     54 H12        -6.8700   -4.0170   -1.4060 ha        1 3Z3      0.137000
     55 H13        -4.5810   -3.6470   -0.5270 ha        1 3Z3      0.143500
     56 H14        -3.3800   -0.7640    5.3280 hn        1 3Z3      0.411800
     57 H15        -4.4620   -0.2010    6.4700 hn        1 3Z3      0.411800
     58 H16        -2.1550    2.9560    2.7200 ha        1 3Z3      0.134000
     59 H17        -3.5960    4.7830    3.5920 ha        1 3Z3      0.135000
     60 H18        -5.1700    5.6030    5.0720 hc        1 3Z3      0.049700
     61 H19        -6.4180    4.3830    5.5690 hc        1 3Z3      0.049700
     62 H20        -5.1060    4.8580    6.7280 hc        1 3Z3      0.049700
     63 H21        -6.7890    0.9040    5.5970 ha        1 3Z3      0.148000
     64 H22        -8.4210    0.3860    7.3970 ha        1 3Z3      0.157000
     65 H23        -9.5950    0.7640   11.9700 hn        1 3Z3      0.434800
     66 H24        -9.5130    1.4150   14.1650 h1        1 3Z3      0.046367
     67 H25        -7.7730    0.9190   13.9030 h1        1 3Z3      0.046367
     68 H26        -8.2510    2.6720   13.7630 h1        1 3Z3      0.046367
     69 H27        -5.0270    3.2330   10.8220 h4        1 3Z3      0.039100
@<TRIPOS>BOND
     1    1    2 ar  
     2    1    6 ar  
     3    1   43 1   
     4    2    3 ar  
     5    2   44 1   
     6    3    4 ar  
     7    3   45 1   
     8    4    5 ar  
     9    4   46 1   
    10    5    6 ar  
    11    5   47 1   
    12    6    7 1   
    13    7    8 1   
    14    7   19 2   
    15    8    9 1   
    16    8   10 1   
    17    9   48 1   
    18    9   49 1   
    19    9   50 1   
    20   10   11 1   
    21   10   17 1   
    22   11   12 ar  
    23   11   16 ar  
    24   12   13 ar  
    25   12   51 1   
    26   13   14 ar  
    27   13   52 1   
    28   14   15 ar  
    29   14   53 1   
    30   15   16 ar  
    31   15   54 1   
    32   16   55 1   
    33   17   18 2   
    34   17   19 1   
    35   19   20 1   
    36   20   21 2   
    37   20   22 1   
    38   22   23 ar  
    39   22   25 ar  
    40   23   24 1   
    41   23   29 ar  
    42   24   56 1   
    43   24   57 1   
    44   25   26 ar  
    45   25   58 1   
    46   26   27 ar  
    47   26   59 1   
    48   27   28 1   
    49   27   29 ar  
    50   28   60 1   
    51   28   61 1   
    52   28   62 1   
    53   29   30 1   
    54   30   31 ar  
    55   30   41 ar  
    56   31   32 ar  
    57   31   63 1   
    58   32   33 ar  
    59   32   64 1   
    60   33   34 ar  
    61   33   40 ar  
    62   34   35 ar  
    63   35   36 1   
    64   35   38 ar  
    65   36   37 1   
    66   36   65 1   
    67   37   66 1   
    68   37   67 1   
    69   37   68 1   
    70   38   39 ar  
    71   39   40 ar  
    72   39   69 1   
    73   40   41 ar  
    74   41   42 1   
@<TRIPOS>SUBSTRUCTURE
     1 3Z3         1 TEMP              0 ****  ****    0 ROOT
