@<TRIPOS>MOLECULE
3Z3
   69    74     1     0     0
SMALL
bcc


@<TRIPOS>ATOM
      1 C11        -0.3340    0.9790    0.8030 ca        1 3Z3     -0.092500
      2 C12         1.0110    1.1260    1.1340 ca        1 3Z3     -0.135500
      3 C13         1.6280    0.2110    1.9880 ca        1 3Z3     -0.108000
      4 C14         0.8930   -0.8470    2.5230 ca        1 3Z3     -0.135500
      5 C15        -0.4550   -0.9980    2.2030 ca        1 3Z3     -0.092500
      6 C5         -1.0720   -0.0890    1.3310 ca        1 3Z3     -0.084800
      7 C2         -2.4880   -0.2550    1.0160 cc        1 3Z3      0.213800
      8 N1         -2.9440   -0.5600   -0.3120 na        1 3Z3     -0.391400
      9 C24        -2.2960    0.1220   -1.4250 c3        1 3Z3      0.162100
     10 N2         -4.3580   -0.4870   -0.2950 n         1 3Z3     -0.215400
     11 C4         -5.0840   -1.3530   -1.1790 ca        1 3Z3      0.027600
     12 C6         -6.4710   -1.1230   -1.3260 ca        1 3Z3     -0.133500
     13 C7         -7.2100   -1.8870   -2.2240 ca        1 3Z3     -0.120500
     14 C8         -6.5990   -2.8790   -2.9880 ca        1 3Z3     -0.139000
     15 C9         -5.2340   -3.1170   -2.8400 ca        1 3Z3     -0.120500
     16 C10        -4.4750   -2.3700   -1.9420 ca        1 3Z3     -0.133500
     17 C3         -4.7910   -0.4180    1.1040 c         1 3Z3      0.692700
     18 O1         -5.9700   -0.4640    1.4580 o         1 3Z3     -0.565500
     19 C1         -3.5500   -0.2260    1.8980 cd        1 3Z3     -0.329400
     20 C16        -3.5210   -0.1480    3.3660 c         1 3Z3      0.651900
     21 O2         -2.8920   -1.0040    4.0110 o         1 3Z3     -0.573100
     22 C17        -4.2330    0.9800    3.9850 ca        1 3Z3     -0.258600
     23 C22        -4.6860    0.9490    5.3370 ca        1 3Z3      0.281600
     24 N3         -4.5610   -0.1720    6.1190 nh        1 3Z3     -0.851200
     25 C18        -4.4500    2.1330    3.2180 ca        1 3Z3     -0.018000
     26 C19        -5.0680    3.2530    3.7470 ca        1 3Z3     -0.212000
     27 C20        -5.5180    3.2470    5.0750 ca        1 3Z3      0.026700
     28 C33        -6.1600    4.4660    5.6260 c3        1 3Z3     -0.064800
     29 C21        -5.3460    2.1090    5.8650 cp        1 3Z3     -0.155000
     30 C23        -5.8560    2.0880    7.2380 cp        1 3Z3     -0.086000
     31 C29        -7.2600    2.0170    7.4520 ca        1 3Z3     -0.065000
     32 C28        -7.8110    2.0010    8.7060 ca        1 3Z3     -0.209300
     33 C27        -6.9700    2.0590    9.8650 ca        1 3Z3      0.487600
     34 N5         -7.5220    2.0550   11.1220 nb        1 3Z3     -0.765000
     35 C31        -6.6590    2.0920   12.1830 ca        1 3Z3      0.879900
     36 N6         -7.2090    1.9740   13.4650 nh        1 3Z3     -0.834900
     37 C32        -6.4520    2.3320   14.6270 c3        1 3Z3      0.197100
     38 N4         -5.2460    2.1820   12.0740 nb        1 3Z3     -0.724000
     39 C30        -4.7530    2.1890   10.8540 ca        1 3Z3      0.496200
     40 C26        -5.5580    2.1230    9.6680 ca        1 3Z3     -0.360600
     41 C25        -5.0150    2.1290    8.3490 ca        1 3Z3      0.169900
     42 F1         -3.6680    2.1660    8.2080 f         1 3Z3     -0.133900
     43 H1         -0.8180    1.7120    0.1410 ha        1 3Z3      0.150500
     44 H2          1.5860    1.9690    0.7230 ha        1 3Z3      0.139000
     45 H3          2.6920    0.3290    2.2440 ha        1 3Z3      0.136000
     46 H4          1.3740   -1.5630    3.2060 ha        1 3Z3      0.139000
     47 H5         -1.0490   -1.8130    2.6510 ha        1 3Z3      0.150500
     48 H6         -2.4600    1.2320   -1.4290 h1        1 3Z3      0.059700
     49 H7         -1.1990   -0.0980   -1.3490 h1        1 3Z3      0.059700
     50 H8         -2.6950   -0.3050   -2.3840 h1        1 3Z3      0.059700
     51 H9         -6.9740   -0.3560   -0.7140 ha        1 3Z3      0.152500
     52 H10        -8.2900   -1.7000   -2.3260 ha        1 3Z3      0.134000
     53 H11        -7.1910   -3.4750   -3.6970 ha        1 3Z3      0.133000
     54 H12        -4.7460   -3.9060   -3.4320 ha        1 3Z3      0.134000
     55 H13        -3.4040   -2.5970   -1.8380 ha        1 3Z3      0.152500
     56 H14        -4.7220   -0.0880    7.0930 hn        1 3Z3      0.436800
     57 H15        -3.9720   -0.9110    5.8140 hn        1 3Z3      0.436800
     58 H16        -4.1140    2.1480    2.1680 ha        1 3Z3      0.134000
     59 H17        -5.2110    4.1490    3.1260 ha        1 3Z3      0.136000
     60 H18        -7.1460    4.2130    6.0930 hc        1 3Z3      0.050700
     61 H19        -6.3310    5.2300    4.8290 hc        1 3Z3      0.050700
     62 H20        -5.5070    4.9170    6.4150 hc        1 3Z3      0.050700
     63 H21        -7.9100    1.9650    6.5620 ha        1 3Z3      0.152000
     64 H22        -8.9020    1.9400    8.8410 ha        1 3Z3      0.158000
     65 H23        -8.1950    2.1160   13.5220 hn        1 3Z3      0.436800
     66 H24        -5.5330    1.6920   14.7000 h1        1 3Z3      0.046367
     67 H25        -7.0940    2.1480   15.5300 h1        1 3Z3      0.046367
     68 H26        -6.1350    3.4100   14.6170 h1        1 3Z3      0.046367
     69 H27        -3.6510    2.2570   10.7600 h4        1 3Z3      0.038100
@<TRIPOS>BOND
     1    1    2 ar  
     2    1    6 ar  
     3    1   43 1   
     4    2    3 ar  
     5    2   44 1   
     6    3    4 ar  
     7    3   45 1   
     8    4    5 ar  
     9    4   46 1   
    10    5    6 ar  
    11    5   47 1   
    12    6    7 1   
    13    7    8 1   
    14    7   19 2   
    15    8    9 1   
    16    8   10 1   
    17    9   48 1   
    18    9   49 1   
    19    9   50 1   
    20   10   11 1   
    21   10   17 1   
    22   11   12 ar  
    23   11   16 ar  
    24   12   13 ar  
    25   12   51 1   
    26   13   14 ar  
    27   13   52 1   
    28   14   15 ar  
    29   14   53 1   
    30   15   16 ar  
    31   15   54 1   
    32   16   55 1   
    33   17   18 2   
    34   17   19 1   
    35   19   20 1   
    36   20   21 2   
    37   20   22 1   
    38   22   23 ar  
    39   22   25 ar  
    40   23   24 1   
    41   23   29 ar  
    42   24   56 1   
    43   24   57 1   
    44   25   26 ar  
    45   25   58 1   
    46   26   27 ar  
    47   26   59 1   
    48   27   28 1   
    49   27   29 ar  
    50   28   60 1   
    51   28   61 1   
    52   28   62 1   
    53   29   30 1   
    54   30   31 ar  
    55   30   41 ar  
    56   31   32 ar  
    57   31   63 1   
    58   32   33 ar  
    59   32   64 1   
    60   33   34 ar  
    61   33   40 ar  
    62   34   35 ar  
    63   35   36 1   
    64   35   38 ar  
    65   36   37 1   
    66   36   65 1   
    67   37   66 1   
    68   37   67 1   
    69   37   68 1   
    70   38   39 ar  
    71   39   40 ar  
    72   39   69 1   
    73   40   41 ar  
    74   41   42 1   
@<TRIPOS>SUBSTRUCTURE
     1 3Z3         1 TEMP              0 ****  ****    0 ROOT
