@<TRIPOS>MOLECULE
3Z4
   67    72     1     0     0
SMALL
bcc


@<TRIPOS>ATOM
      1 C32         0.0850    1.8580   -0.0000 c3        1 3Z4      0.172100
      2 N4          1.5040    1.6480    0.1050 nu        1 3Z4     -0.768200
      3 C24         2.0380    1.2820    1.3390 cc        1 3Z4      0.572100
      4 N3          1.3590    0.9540    2.4430 nd        1 3Z4     -0.591100
      5 S1          3.7990    1.0990    1.4700 ss        1 3Z4     -0.085100
      6 C23         3.6360    0.5550    3.0640 ca        1 3Z4     -0.096100
      7 C28         4.6180    0.1660    3.9720 ca        1 3Z4     -0.085000
      8 C22         2.2500    0.5240    3.4330 ca        1 3Z4      0.116400
      9 C25         1.8900    0.0880    4.7230 ca        1 3Z4     -0.093000
     10 C26         2.8830   -0.2930    5.6090 ca        1 3Z4     -0.108000
     11 C27         4.2460   -0.2540    5.2490 cp        1 3Z4     -0.033000
     12 C16         5.2710   -0.6670    6.2140 cp        1 3Z4     -0.128000
     13 C17         5.9070   -1.9350    6.0590 ca        1 3Z4      0.224600
     14 N5          5.5140   -2.8170    5.0620 nv        1 3Z4     -0.815200
     15 C21         5.6200    0.1720    7.2780 ca        1 3Z4     -0.002300
     16 C29         4.9680    1.4950    7.4410 c3        1 3Z4     -0.060800
     17 C20         6.6050   -0.2250    8.1910 ca        1 3Z4     -0.193000
     18 C19         7.2380   -1.4520    8.0480 ca        1 3Z4     -0.050000
     19 C18         6.9070   -2.3060    6.9970 ca        1 3Z4     -0.239600
     20 C30         7.5890   -3.6180    6.9000 c         1 3Z4      0.636900
     21 O2          7.0980   -4.6600    7.3430 o         1 3Z4     -0.504100
     22 C13         8.9050   -3.6070    6.2470 cc        1 3Z4     -0.333400
     23 C15         9.0920   -3.2750    4.8090 c         1 3Z4      0.693700
     24 O1          8.2480   -3.0150    3.9470 o         1 3Z4     -0.596500
     25 N2         10.5190   -3.4110    4.5480 n         1 3Z4     -0.209400
     26 C7         11.1310   -2.4710    3.6450 ca        1 3Z4      0.021600
     27 C8         12.1940   -2.9120    2.8320 ca        1 3Z4     -0.114500
     28 C9         12.7720   -2.0380    1.9140 ca        1 3Z4     -0.126500
     29 C10        12.3090   -0.7290    1.7920 ca        1 3Z4     -0.122000
     30 C11        11.2570   -0.2890    2.5940 ca        1 3Z4     -0.126500
     31 C12        10.6700   -1.1470    3.5220 ca        1 3Z4     -0.114500
     32 N1         11.1810   -3.5820    5.7940 na        1 3Z4     -0.387400
     33 C31        12.2840   -4.5400    5.7760 c3        1 3Z4      0.158100
     34 C14        10.1540   -3.8420    6.7790 cd        1 3Z4      0.206800
     35 C1         10.4920   -4.1970    8.1520 ca        1 3Z4     -0.091800
     36 C2          9.7700   -5.2050    8.8070 ca        1 3Z4     -0.095000
     37 C3         10.0810   -5.5390   10.1240 ca        1 3Z4     -0.137500
     38 C4         11.1040   -4.8700   10.7960 ca        1 3Z4     -0.107000
     39 C5         11.8190   -3.8610   10.1490 ca        1 3Z4     -0.137500
     40 C6         11.5190   -3.5250    8.8310 ca        1 3Z4     -0.095000
     41 H1         -0.1540    2.0570   -1.0790 h1        1 3Z4      0.048367
     42 H2         -0.4550    0.9320    0.3320 h1        1 3Z4      0.048367
     43 H3         -0.2780    2.7220    0.6210 h1        1 3Z4      0.048367
     44 H4          2.0520    2.3490   -0.3520 hn        1 3Z4      0.406800
     45 H5          5.6800    0.1920    3.6850 ha        1 3Z4      0.145000
     46 H6          0.8290    0.0500    5.0140 ha        1 3Z4      0.151000
     47 H7          2.6110   -0.6410    6.6190 ha        1 3Z4      0.145000
     48 H8          6.2040   -3.4800    4.7780 hn        1 3Z4      0.413300
     49 H9          5.0090   -2.4090    4.3060 hn        1 3Z4      0.413300
     50 H10         5.3120    2.1910    6.6350 hc        1 3Z4      0.049033
     51 H11         3.8560    1.3950    7.3620 hc        1 3Z4      0.049033
     52 H12         5.2160    1.9500    8.4310 hc        1 3Z4      0.049033
     53 H13         6.8750    0.4380    9.0260 ha        1 3Z4      0.134000
     54 H14         8.0090   -1.7580    8.7730 ha        1 3Z4      0.133000
     55 H15        12.5640   -3.9460    2.9070 ha        1 3Z4      0.144000
     56 H16        13.5990   -2.3900    1.2790 ha        1 3Z4      0.136500
     57 H17        12.7700   -0.0460    1.0640 ha        1 3Z4      0.135000
     58 H18        10.8840    0.7420    2.4980 ha        1 3Z4      0.136500
     59 H19         9.8310   -0.7920    4.1410 ha        1 3Z4      0.144000
     60 H20        11.9860   -5.5640    5.4240 h1        1 3Z4      0.059700
     61 H21        12.6830   -4.6080    6.8220 h1        1 3Z4      0.059700
     62 H22        13.0840   -4.1400    5.0990 h1        1 3Z4      0.059700
     63 H23         8.9470   -5.7220    8.2810 ha        1 3Z4      0.157000
     64 H24         9.5110   -6.3310   10.6330 ha        1 3Z4      0.140500
     65 H25        11.3450   -5.1350   11.8360 ha        1 3Z4      0.137000
     66 H26        12.6200   -3.3270   10.6810 ha        1 3Z4      0.140500
     67 H27        12.0810   -2.7230    8.3270 ha        1 3Z4      0.157000
@<TRIPOS>BOND
     1    1    2 1   
     2    1   41 1   
     3    1   42 1   
     4    1   43 1   
     5    2    3 1   
     6    2   44 1   
     7    3    4 2   
     8    3    5 1   
     9    4    8 1   
    10    5    6 1   
    11    6    7 ar  
    12    6    8 ar  
    13    7   11 ar  
    14    7   45 1   
    15    8    9 ar  
    16    9   10 ar  
    17    9   46 1   
    18   10   11 ar  
    19   10   47 1   
    20   11   12 1   
    21   12   13 ar  
    22   12   15 ar  
    23   13   14 1   
    24   13   19 ar  
    25   14   48 1   
    26   14   49 1   
    27   15   16 1   
    28   15   17 ar  
    29   16   50 1   
    30   16   51 1   
    31   16   52 1   
    32   17   18 ar  
    33   17   53 1   
    34   18   19 ar  
    35   18   54 1   
    36   19   20 1   
    37   20   21 2   
    38   20   22 1   
    39   22   23 1   
    40   22   34 2   
    41   23   24 2   
    42   23   25 1   
    43   25   26 1   
    44   25   32 1   
    45   26   27 ar  
    46   26   31 ar  
    47   27   28 ar  
    48   27   55 1   
    49   28   29 ar  
    50   28   56 1   
    51   29   30 ar  
    52   29   57 1   
    53   30   31 ar  
    54   30   58 1   
    55   31   59 1   
    56   32   33 1   
    57   32   34 1   
    58   33   60 1   
    59   33   61 1   
    60   33   62 1   
    61   34   35 1   
    62   35   36 ar  
    63   35   40 ar  
    64   36   37 ar  
    65   36   63 1   
    66   37   38 ar  
    67   37   64 1   
    68   38   39 ar  
    69   38   65 1   
    70   39   40 ar  
    71   39   66 1   
    72   40   67 1   
@<TRIPOS>SUBSTRUCTURE
     1 3Z4         1 TEMP              0 ****  ****    0 ROOT
