@<TRIPOS>MOLECULE
3Z4
   67    72     1     0     0
SMALL
bcc


@<TRIPOS>ATOM
      1 C32         0.0830    1.9230    0.0460 c3        1 3Z4      0.172100
      2 N4          1.4990    1.6860    0.1360 nh        1 3Z4     -0.768200
      3 C24         2.0420    1.3290    1.3680 cc        1 3Z4      0.572100
      4 N3          1.3710    1.0300    2.4850 nd        1 3Z4     -0.591100
      5 S1          3.8000    1.1130    1.4790 ss        1 3Z4     -0.085100
      6 C23         3.6480    0.5960    3.0830 ca        1 3Z4     -0.096100
      7 C28         4.6350    0.2010    3.9830 ca        1 3Z4     -0.085000
      8 C22         2.2680    0.5970    3.4700 ca        1 3Z4      0.116400
      9 C25         1.9170    0.1870    4.7710 ca        1 3Z4     -0.093000
     10 C26         2.9140   -0.2000    5.6500 ca        1 3Z4     -0.108000
     11 C27         4.2730   -0.1930    5.2710 cp        1 3Z4     -0.033000
     12 C16         5.3030   -0.6120    6.2280 cp        1 3Z4     -0.128000
     13 C17         5.9120   -1.8940    6.0840 ca        1 3Z4      0.224600
     14 N5          5.4890   -2.7820    5.1060 nh        1 3Z4     -0.815200
     15 C21         5.6820    0.2360    7.2750 ca        1 3Z4     -0.002300
     16 C29         5.0580    1.5730    7.4270 c3        1 3Z4     -0.060800
     17 C20         6.6710   -0.1660    8.1810 ca        1 3Z4     -0.193000
     18 C19         7.2790   -1.4070    8.0480 ca        1 3Z4     -0.050000
     19 C18         6.9170   -2.2700    7.0140 ca        1 3Z4     -0.239600
     20 C30         7.5730   -3.5970    6.9280 c         1 3Z4      0.636900
     21 O2          7.0680   -4.6220    7.3930 o         1 3Z4     -0.504100
     22 C13         8.8790   -3.6200    6.2570 cc        1 3Z4     -0.332400
     23 C15         9.0530   -3.3130    4.8120 c         1 3Z4      0.693700
     24 O1          8.2030   -3.0490    3.9570 o         1 3Z4     -0.596500
     25 N2         10.4730   -3.4800    4.5330 n         1 3Z4     -0.209400
     26 C7         11.0910   -2.5660    3.6080 ca        1 3Z4      0.021600
     27 C8         12.1340   -3.0380    2.7880 ca        1 3Z4     -0.114500
     28 C9         12.7160   -2.1900    1.8490 ca        1 3Z4     -0.126500
     29 C10        12.2760   -0.8740    1.7140 ca        1 3Z4     -0.122000
     30 C11        11.2430   -0.4020    2.5230 ca        1 3Z4     -0.126500
     31 C12        10.6540   -1.2340    3.4710 ca        1 3Z4     -0.114500
     32 N1         11.1500   -3.6460    5.7730 na        1 3Z4     -0.387400
     33 C31        12.2340   -4.6250    5.7540 c3        1 3Z4      0.158100
     34 C14        10.1310   -3.8710    6.7760 cd        1 3Z4      0.206800
     35 C1         10.4810   -4.2130    8.1490 ca        1 3Z4     -0.091800
     36 C2          9.7490   -5.1980    8.8280 ca        1 3Z4     -0.095000
     37 C3         10.0720   -5.5180   10.1460 ca        1 3Z4     -0.137500
     38 C4         11.1160   -4.8590   10.7940 ca        1 3Z4     -0.107000
     39 C5         11.8410   -3.8730   10.1230 ca        1 3Z4     -0.137500
     40 C6         11.5300   -3.5500    8.8040 ca        1 3Z4     -0.095000
     41 H1         -0.4700    1.0130    0.3990 h1        1 3Z4      0.048367
     42 H2         -0.2540    2.8030    0.6590 h1        1 3Z4      0.048367
     43 H3         -0.1670    2.1100   -1.0320 h1        1 3Z4      0.048367
     44 H4          2.0540    2.3700   -0.3390 hn        1 3Z4      0.406800
     45 H5          5.6940    0.2030    3.6820 ha        1 3Z4      0.145000
     46 H6          0.8600    0.1740    5.0760 ha        1 3Z4      0.151000
     47 H7          2.6490   -0.5280    6.6680 ha        1 3Z4      0.145000
     48 H8          6.1620   -3.4620    4.8220 hn        1 3Z4      0.413300
     49 H9          4.9810   -2.3760    4.3510 hn        1 3Z4      0.413300
     50 H10         3.9430    1.4940    7.3640 hc        1 3Z4      0.049033
     51 H11         5.3270    2.0380    8.4070 hc        1 3Z4      0.049033
     52 H12         5.4030    2.2510    6.6060 hc        1 3Z4      0.049033
     53 H13         6.9650    0.5040    9.0020 ha        1 3Z4      0.134000
     54 H14         8.0530   -1.7180    8.7670 ha        1 3Z4      0.133000
     55 H15        12.4850   -4.0780    2.8730 ha        1 3Z4      0.144000
     56 H16        13.5270   -2.5670    1.2080 ha        1 3Z4      0.136500
     57 H17        12.7390   -0.2110    0.9690 ha        1 3Z4      0.135000
     58 H18        10.8890    0.6340    2.4170 ha        1 3Z4      0.136500
     59 H19         9.8300   -0.8540    4.0960 ha        1 3Z4      0.144000
     60 H20        13.0320   -4.2500    5.0610 h1        1 3Z4      0.059700
     61 H21        12.6450   -4.6850    6.7960 h1        1 3Z4      0.059700
     62 H22        11.9110   -5.6470    5.4210 h1        1 3Z4      0.059700
     63 H23         8.9100   -5.7060    8.3210 ha        1 3Z4      0.157000
     64 H24         9.4940   -6.2920   10.6740 ha        1 3Z4      0.140500
     65 H25        11.3660   -5.1130   11.8350 ha        1 3Z4      0.137000
     66 H26        12.6590   -3.3470   10.6360 ha        1 3Z4      0.140500
     67 H27        12.1000   -2.7670    8.2810 ha        1 3Z4      0.157000
@<TRIPOS>BOND
     1    1    2 1   
     2    1   41 1   
     3    1   42 1   
     4    1   43 1   
     5    2    3 1   
     6    2   44 1   
     7    3    4 2   
     8    3    5 1   
     9    4    8 1   
    10    5    6 1   
    11    6    7 ar  
    12    6    8 ar  
    13    7   11 ar  
    14    7   45 1   
    15    8    9 ar  
    16    9   10 ar  
    17    9   46 1   
    18   10   11 ar  
    19   10   47 1   
    20   11   12 1   
    21   12   13 ar  
    22   12   15 ar  
    23   13   14 1   
    24   13   19 ar  
    25   14   48 1   
    26   14   49 1   
    27   15   16 1   
    28   15   17 ar  
    29   16   50 1   
    30   16   51 1   
    31   16   52 1   
    32   17   18 ar  
    33   17   53 1   
    34   18   19 ar  
    35   18   54 1   
    36   19   20 1   
    37   20   21 2   
    38   20   22 1   
    39   22   23 1   
    40   22   34 2   
    41   23   24 2   
    42   23   25 1   
    43   25   26 1   
    44   25   32 1   
    45   26   27 ar  
    46   26   31 ar  
    47   27   28 ar  
    48   27   55 1   
    49   28   29 ar  
    50   28   56 1   
    51   29   30 ar  
    52   29   57 1   
    53   30   31 ar  
    54   30   58 1   
    55   31   59 1   
    56   32   33 1   
    57   32   34 1   
    58   33   60 1   
    59   33   61 1   
    60   33   62 1   
    61   34   35 1   
    62   35   36 ar  
    63   35   40 ar  
    64   36   37 ar  
    65   36   63 1   
    66   37   38 ar  
    67   37   64 1   
    68   38   39 ar  
    69   38   65 1   
    70   39   40 ar  
    71   39   66 1   
    72   40   67 1   
@<TRIPOS>SUBSTRUCTURE
     1 3Z4         1 TEMP              0 ****  ****    0 ROOT
