@<TRIPOS>MOLECULE
3Z5
   68    73     1     0     0
SMALL
bcc


@<TRIPOS>ATOM
      1 C27        -0.4210    0.0580    0.1190 ca        1 3Z5     -0.113000
      2 C25         0.9680   -0.1920    0.2310 ca        1 3Z5     -0.155300
      3 C28         1.6870    0.0550    1.4360 ca        1 3Z5     -0.079000
      4 C31         3.0300   -0.2050    1.4840 ca        1 3Z5     -0.251300
      5 C32         3.6860   -0.7250    0.3140 ca        1 3Z5      0.429600
      6 C34         5.1540   -0.9890    0.4300 c3        1 3Z5     -0.153400
      7 N4          3.0490   -0.9670   -0.8280 nb        1 3Z5     -0.662000
      8 C26         1.6940   -0.7060   -0.8870 ca        1 3Z5      0.401600
      9 C29         0.9770   -0.9520   -2.1020 ca        1 3Z5     -0.171300
     10 C33        -0.3680   -0.6960   -2.1810 ca        1 3Z5     -0.109000
     11 C30        -1.0870   -0.1840   -1.0650 cp        1 3Z5     -0.030000
     12 C12        -2.5270    0.0700   -1.1850 cp        1 3Z5     -0.136000
     13 C13        -3.4510   -0.8600   -0.6170 ca        1 3Z5      0.229600
     14 N3         -2.9910   -2.0580   -0.0930 nh        1 3Z5     -0.837200
     15 C11        -2.9880    1.2120   -1.8460 ca        1 3Z5      0.009700
     16 C14        -2.0330    2.1880   -2.4270 c3        1 3Z5     -0.063800
     17 C10        -4.3650    1.4520   -1.9530 ca        1 3Z5     -0.194000
     18 C9         -5.2710    0.5680   -1.3890 ca        1 3Z5     -0.026000
     19 C8         -4.8380   -0.5720   -0.7000 ca        1 3Z5     -0.236600
     20 C7         -5.8840   -1.4300   -0.1070 c         1 3Z5      0.639900
     21 O2         -6.9120   -1.7190   -0.7350 o         1 3Z5     -0.534100
     22 C1         -5.7070   -1.8740    1.2810 cc        1 3Z5     -0.337400
     23 C3         -5.4280   -0.9340    2.4030 c         1 3Z5      0.690700
     24 O1         -5.3140    0.2910    2.4050 o         1 3Z5     -0.563500
     25 N2         -5.3970   -1.7570    3.6110 n         1 3Z5     -0.221400
     26 C4         -4.4940   -1.3930    4.6630 ca        1 3Z5      0.032600
     27 C15        -3.5770   -2.2940    5.2400 ca        1 3Z5     -0.137000
     28 C16        -2.7850   -1.8920    6.3130 ca        1 3Z5     -0.119000
     29 C17        -2.8780   -0.5990    6.8220 ca        1 3Z5     -0.140000
     30 C18        -3.7740    0.3020    6.2470 ca        1 3Z5     -0.119000
     31 C19        -4.5800   -0.0800    5.1790 ca        1 3Z5     -0.137000
     32 N1         -5.4550   -3.1170    3.2270 na        1 3Z5     -0.393400
     33 C5         -6.2910   -3.9590    4.0820 c3        1 3Z5      0.159100
     34 C2         -5.7870   -3.1420    1.8190 cd        1 3Z5      0.209800
     35 C6         -6.0370   -4.4070    1.1370 ca        1 3Z5     -0.096800
     36 C20        -7.1100   -4.5210    0.2420 ca        1 3Z5     -0.090000
     37 C21        -7.3390   -5.7290   -0.4170 ca        1 3Z5     -0.137000
     38 C22        -6.5030   -6.8210   -0.1950 ca        1 3Z5     -0.103000
     39 C23        -5.4310   -6.7090    0.6920 ca        1 3Z5     -0.137000
     40 C24        -5.1980   -5.5100    1.3600 ca        1 3Z5     -0.090000
     41 H1         -0.9590    0.4600    0.9920 ha        1 3Z5      0.142000
     42 H2          1.1460    0.4540    2.3080 ha        1 3Z5      0.140000
     43 H3          3.6230   -0.0290    2.3910 ha        1 3Z5      0.142000
     44 H4          5.3310   -1.7230    1.2540 hc        1 3Z5      0.055033
     45 H5          5.5910   -1.3990   -0.5130 hc        1 3Z5      0.055033
     46 H6          5.6790   -0.0340    0.6810 hc        1 3Z5      0.055033
     47 H7          1.5230   -1.3500   -2.9720 ha        1 3Z5      0.152000
     48 H8         -0.9180   -0.8880   -3.1160 ha        1 3Z5      0.145000
     49 H9         -3.5960   -2.5400    0.5290 hn        1 3Z5      0.410800
     50 H10        -2.0260   -2.0900    0.1460 hn        1 3Z5      0.410800
     51 H11        -1.5710    2.7980   -1.6110 hc        1 3Z5      0.050700
     52 H12        -1.2130    1.6580   -2.9740 hc        1 3Z5      0.050700
     53 H13        -2.5460    2.8800   -3.1380 hc        1 3Z5      0.050700
     54 H14        -4.7230    2.3470   -2.4820 ha        1 3Z5      0.138000
     55 H15        -6.3540    0.7550   -1.4720 ha        1 3Z5      0.146000
     56 H16        -3.4680   -3.3210    4.8600 ha        1 3Z5      0.153000
     57 H17        -2.0760   -2.6080    6.7580 ha        1 3Z5      0.135500
     58 H18        -2.2490   -0.2900    7.6680 ha        1 3Z5      0.134000
     59 H19        -3.8490    1.3280    6.6380 ha        1 3Z5      0.135500
     60 H20        -5.2720    0.6510    4.7290 ha        1 3Z5      0.153000
     61 H21        -6.2550   -4.9970    3.6590 h1        1 3Z5      0.062033
     62 H22        -7.3580   -3.6170    4.1430 h1        1 3Z5      0.062033
     63 H23        -5.8490   -3.9580    5.1140 h1        1 3Z5      0.062033
     64 H24        -7.7610   -3.6510    0.0490 ha        1 3Z5      0.156500
     65 H25        -8.1820   -5.8110   -1.1200 ha        1 3Z5      0.141000
     66 H26        -6.6840   -7.7710   -0.7200 ha        1 3Z5      0.138000
     67 H27        -4.7650   -7.5680    0.8630 ha        1 3Z5      0.141000
     68 H28        -4.3470   -5.4250    2.0540 ha        1 3Z5      0.156500
@<TRIPOS>BOND
     1    1    2 ar  
     2    1   11 ar  
     3    1   41 1   
     4    2    3 ar  
     5    2    8 ar  
     6    3    4 ar  
     7    3   42 1   
     8    4    5 ar  
     9    4   43 1   
    10    5    6 1   
    11    5    7 ar  
    12    6   44 1   
    13    6   45 1   
    14    6   46 1   
    15    7    8 ar  
    16    8    9 ar  
    17    9   10 ar  
    18    9   47 1   
    19   10   11 ar  
    20   10   48 1   
    21   11   12 1   
    22   12   13 ar  
    23   12   15 ar  
    24   13   14 1   
    25   13   19 ar  
    26   14   49 1   
    27   14   50 1   
    28   15   16 1   
    29   15   17 ar  
    30   16   51 1   
    31   16   52 1   
    32   16   53 1   
    33   17   18 ar  
    34   17   54 1   
    35   18   19 ar  
    36   18   55 1   
    37   19   20 1   
    38   20   21 2   
    39   20   22 1   
    40   22   23 1   
    41   22   34 2   
    42   23   24 2   
    43   23   25 1   
    44   25   26 1   
    45   25   32 1   
    46   26   27 ar  
    47   26   31 ar  
    48   27   28 ar  
    49   27   56 1   
    50   28   29 ar  
    51   28   57 1   
    52   29   30 ar  
    53   29   58 1   
    54   30   31 ar  
    55   30   59 1   
    56   31   60 1   
    57   32   33 1   
    58   32   34 1   
    59   33   61 1   
    60   33   62 1   
    61   33   63 1   
    62   34   35 1   
    63   35   36 ar  
    64   35   40 ar  
    65   36   37 ar  
    66   36   64 1   
    67   37   38 ar  
    68   37   65 1   
    69   38   39 ar  
    70   38   66 1   
    71   39   40 ar  
    72   39   67 1   
    73   40   68 1   
@<TRIPOS>SUBSTRUCTURE
     1 3Z5         1 TEMP              0 ****  ****    0 ROOT
