@<TRIPOS>MOLECULE
3Z5
   68    73     1     0     0
SMALL
bcc


@<TRIPOS>ATOM
      1 C27        -0.4340    0.0750    0.1170 ca        1 3Z5     -0.113000
      2 C25         0.9570   -0.1690    0.2190 ca        1 3Z5     -0.155300
      3 C28         1.6810    0.0720    1.4230 ca        1 3Z5     -0.079000
      4 C31         3.0260   -0.1820    1.4610 ca        1 3Z5     -0.251300
      5 C32         3.6780   -0.6890    0.2830 ca        1 3Z5      0.429600
      6 C34         5.1480   -0.9470    0.3890 c3        1 3Z5     -0.153400
      7 N4          3.0360   -0.9250   -0.8570 nb        1 3Z5     -0.662000
      8 C26         1.6790   -0.6700   -0.9060 ca        1 3Z5      0.401600
      9 C29         0.9560   -0.9100   -2.1200 ca        1 3Z5     -0.171300
     10 C33        -0.3900   -0.6600   -2.1880 ca        1 3Z5     -0.109000
     11 C30        -1.1050   -0.1610   -1.0650 cp        1 3Z5     -0.030000
     12 C12        -2.5470    0.0870   -1.1750 cp        1 3Z5     -0.136000
     13 C13        -3.4640   -0.8520   -0.6090 ca        1 3Z5      0.229600
     14 N3         -2.9950   -2.0520   -0.0970 nv        1 3Z5     -0.837200
     15 C11        -3.0180    1.2330   -1.8240 ca        1 3Z5      0.009700
     16 C14        -2.0710    2.2170   -2.4020 c3        1 3Z5     -0.063800
     17 C10        -4.3960    1.4660   -1.9210 ca        1 3Z5     -0.194000
     18 C9         -5.2950    0.5740   -1.3590 ca        1 3Z5     -0.026000
     19 C8         -4.8530   -0.5700   -0.6810 ca        1 3Z5     -0.236600
     20 C7         -5.8910   -1.4380   -0.0900 c         1 3Z5      0.639900
     21 O2         -6.9210   -1.7270   -0.7150 o         1 3Z5     -0.534100
     22 C1         -5.7040   -1.8920    1.2940 cc        1 3Z5     -0.337400
     23 C3         -5.4250   -0.9590    2.4210 c         1 3Z5      0.690700
     24 O1         -5.3170    0.2670    2.4330 o         1 3Z5     -0.564500
     25 N2         -5.3830   -1.7910    3.6230 n         1 3Z5     -0.221400
     26 C4         -4.4760   -1.4310    4.6730 ca        1 3Z5      0.032600
     27 C15        -3.5530   -2.3320    5.2390 ca        1 3Z5     -0.137000
     28 C16        -2.7570   -1.9350    6.3110 ca        1 3Z5     -0.119000
     29 C17        -2.8540   -0.6460    6.8300 ca        1 3Z5     -0.140000
     30 C18        -3.7560    0.2550    6.2660 ca        1 3Z5     -0.119000
     31 C19        -4.5660   -0.1220    5.2000 ca        1 3Z5     -0.137000
     32 N1         -5.4360   -3.1490    3.2280 na        1 3Z5     -0.393400
     33 C5         -6.2640   -4.0020    4.0810 c3        1 3Z5      0.159100
     34 C2         -5.7750   -3.1650    1.8220 cd        1 3Z5      0.209800
     35 C6         -6.0220   -4.4250    1.1310 ca        1 3Z5     -0.096800
     36 C20        -7.0990   -4.5380    0.2410 ca        1 3Z5     -0.090000
     37 C21        -7.3250   -5.7420   -0.4260 ca        1 3Z5     -0.137000
     38 C22        -6.4820   -6.8310   -0.2170 ca        1 3Z5     -0.103000
     39 C23        -5.4060   -6.7200    0.6660 ca        1 3Z5     -0.137000
     40 C24        -5.1760   -5.5250    1.3420 ca        1 3Z5     -0.090000
     41 H1         -0.9690    0.4670    0.9970 ha        1 3Z5      0.142000
     42 H2          1.1430    0.4620    2.3000 ha        1 3Z5      0.140000
     43 H3          3.6230   -0.0100    2.3660 ha        1 3Z5      0.142000
     44 H4          5.5810   -1.3480   -0.5600 hc        1 3Z5      0.055033
     45 H5          5.6700    0.0090    0.6430 hc        1 3Z5      0.055033
     46 H6          5.3330   -1.6860    1.2060 hc        1 3Z5      0.055033
     47 H7          1.5000   -1.2990   -2.9960 ha        1 3Z5      0.152000
     48 H8         -0.9440   -0.8470   -3.1220 ha        1 3Z5      0.145000
     49 H9         -2.0280   -2.0810    0.1370 hn        1 3Z5      0.410800
     50 H10        -3.5950   -2.5410    0.5250 hn        1 3Z5      0.410800
     51 H11        -1.6060    2.8220   -1.5840 hc        1 3Z5      0.050700
     52 H12        -2.5910    2.9130   -3.1040 hc        1 3Z5      0.050700
     53 H13        -1.2510    1.6960   -2.9580 hc        1 3Z5      0.050700
     54 H14        -4.7620    2.3630   -2.4410 ha        1 3Z5      0.138000
     55 H15        -6.3790    0.7560   -1.4350 ha        1 3Z5      0.146000
     56 H16        -3.4410   -3.3550    4.8500 ha        1 3Z5      0.153000
     57 H17        -2.0430   -2.6500    6.7460 ha        1 3Z5      0.135500
     58 H18        -2.2220   -0.3400    7.6760 ha        1 3Z5      0.134000
     59 H19        -3.8350    1.2780    6.6660 ha        1 3Z5      0.135500
     60 H20        -5.2640    0.6090    4.7580 ha        1 3Z5      0.153000
     61 H21        -7.3320   -3.6650    4.1500 h1        1 3Z5      0.062033
     62 H22        -6.2250   -5.0360    3.6490 h1        1 3Z5      0.062033
     63 H23        -5.8160   -4.0060    5.1100 h1        1 3Z5      0.062033
     64 H24        -7.7560   -3.6690    0.0580 ha        1 3Z5      0.156500
     65 H25        -8.1710   -5.8230   -1.1260 ha        1 3Z5      0.141000
     66 H26        -6.6610   -7.7780   -0.7490 ha        1 3Z5      0.138000
     67 H27        -4.7350   -7.5770    0.8260 ha        1 3Z5      0.141000
     68 H28        -4.3230   -5.4410    2.0320 ha        1 3Z5      0.156500
@<TRIPOS>BOND
     1    1    2 ar  
     2    1   11 ar  
     3    1   41 1   
     4    2    3 ar  
     5    2    8 ar  
     6    3    4 ar  
     7    3   42 1   
     8    4    5 ar  
     9    4   43 1   
    10    5    6 1   
    11    5    7 ar  
    12    6   44 1   
    13    6   45 1   
    14    6   46 1   
    15    7    8 ar  
    16    8    9 ar  
    17    9   10 ar  
    18    9   47 1   
    19   10   11 ar  
    20   10   48 1   
    21   11   12 1   
    22   12   13 ar  
    23   12   15 ar  
    24   13   14 1   
    25   13   19 ar  
    26   14   49 1   
    27   14   50 1   
    28   15   16 1   
    29   15   17 ar  
    30   16   51 1   
    31   16   52 1   
    32   16   53 1   
    33   17   18 ar  
    34   17   54 1   
    35   18   19 ar  
    36   18   55 1   
    37   19   20 1   
    38   20   21 2   
    39   20   22 1   
    40   22   23 1   
    41   22   34 2   
    42   23   24 2   
    43   23   25 1   
    44   25   26 1   
    45   25   32 1   
    46   26   27 ar  
    47   26   31 ar  
    48   27   28 ar  
    49   27   56 1   
    50   28   29 ar  
    51   28   57 1   
    52   29   30 ar  
    53   29   58 1   
    54   30   31 ar  
    55   30   59 1   
    56   31   60 1   
    57   32   33 1   
    58   32   34 1   
    59   33   61 1   
    60   33   62 1   
    61   33   63 1   
    62   34   35 1   
    63   35   36 ar  
    64   35   40 ar  
    65   36   37 ar  
    66   36   64 1   
    67   37   38 ar  
    68   37   65 1   
    69   38   39 ar  
    70   38   66 1   
    71   39   40 ar  
    72   39   67 1   
    73   40   68 1   
@<TRIPOS>SUBSTRUCTURE
     1 3Z5         1 TEMP              0 ****  ****    0 ROOT
