@<TRIPOS>MOLECULE
3Z6
   56    60     1     0     0
SMALL
bcc


@<TRIPOS>ATOM
      1 F1         -0.0690   -0.5460   -0.8520 f         1 3Z6     -0.234967
      2 C23         1.2730   -0.4990   -1.1410 c3        1 3Z6      0.688200
      3 F2          1.8340   -1.4170   -0.2860 f         1 3Z6     -0.234967
      4 F3          1.3730   -1.0890   -2.3780 f         1 3Z6     -0.234967
      5 C9          1.8930    0.8920   -1.0540 ca        1 3Z6     -0.145300
      6 C8          3.0090    1.1930   -1.8350 ca        1 3Z6     -0.094000
      7 C10         1.3460    1.8320   -0.1840 ca        1 3Z6     -0.118000
      8 C11         1.9420    3.1030   -0.1000 ca        1 3Z6      0.125900
      9 F4          1.4270    4.0310    0.7410 f         1 3Z6     -0.128900
     10 C12         3.0680    3.4190   -0.8840 ca        1 3Z6     -0.107000
     11 C7          3.5960    2.4620   -1.7530 ca        1 3Z6     -0.060300
     12 C22         4.7540    2.7860   -2.6330 c3        1 3Z6     -0.105100
     13 C21         5.9460    3.3440   -1.8830 c         1 3Z6      0.667100
     14 O1          5.8630    3.7590   -0.7110 o         1 3Z6     -0.586100
     15 N4          7.1770    3.4520   -2.5240 n         1 3Z6     -0.371000
     16 C15         8.3740    3.7480   -1.7190 c3        1 3Z6      0.085000
     17 C16         9.6030    3.2850   -2.5390 c3        1 3Z6     -0.045100
     18 C13         9.0090    2.8230   -3.8300 ca        1 3Z6     -0.127300
     19 C20         9.6450    2.3670   -4.9630 ca        1 3Z6     -0.082000
     20 C14         7.5810    2.9440   -3.7780 ca        1 3Z6      0.055600
     21 C19         6.8300    2.6380   -4.9130 ca        1 3Z6     -0.170000
     22 C18         7.4890    2.1720   -6.0560 ca        1 3Z6     -0.098000
     23 C17         8.8780    2.0200   -6.0950 ca        1 3Z6     -0.046800
     24 C5          9.5400    1.5560   -7.2930 cc        1 3Z6     -0.058400
     25 C1          9.2980    0.3420   -8.0310 ca        1 3Z6     -0.362400
     26 C6         10.5580    2.2420   -7.9650 cd        1 3Z6     -0.107100
     27 N3         10.9590    1.5320   -9.1030 na        1 3Z6     -0.163100
     28 C25        12.0000    1.9070  -10.0040 c3        1 3Z6      0.030600
     29 C2         10.2060    0.3500   -9.1650 ca        1 3Z6      0.474800
     30 N1         10.2750   -0.6480  -10.0990 nb        1 3Z6     -0.741000
     31 C3          9.4170   -1.6770   -9.8700 ca        1 3Z6      0.697300
     32 C24         9.4340   -2.8180  -10.8650 c3        1 3Z6     -0.133400
     33 N2          8.5300   -1.8140   -8.8270 nb        1 3Z6     -0.794000
     34 C4          8.4540   -0.8050   -7.9080 ca        1 3Z6      0.725200
     35 N5          7.5160   -0.8700   -6.8870 nv        1 3Z6     -0.943500
     36 H1          3.4180    0.4300   -2.5160 ha        1 3Z6      0.152000
     37 H2          0.4630    1.5920    0.4280 ha        1 3Z6      0.169000
     38 H3          3.5440    4.4080   -0.7860 ha        1 3Z6      0.175000
     39 H4          5.0690    1.8600   -3.1900 hc        1 3Z6      0.084700
     40 H5          4.4300    3.5570   -3.3870 hc        1 3Z6      0.084700
     41 H6          8.3120    3.2160   -0.7320 h1        1 3Z6      0.067700
     42 H7         10.1450    2.4590   -2.0170 hc        1 3Z6      0.066700
     43 H8         10.7410    2.2720   -4.9940 ha        1 3Z6      0.144000
     44 H9          5.7410    2.7770   -4.9510 ha        1 3Z6      0.139000
     45 H10         6.8940    1.9340   -6.9530 ha        1 3Z6      0.153000
     46 H11        11.0180    3.2020   -7.7220 h4        1 3Z6      0.173000
     47 H12        12.1560    3.0170   -9.9540 h1        1 3Z6      0.057033
     48 H13        12.9580    1.3870   -9.7290 h1        1 3Z6      0.057033
     49 H14        11.7190    1.6140  -11.0510 h1        1 3Z6      0.057033
     50 H15         9.6670   -3.7730  -10.3330 hc        1 3Z6      0.060367
     51 H16         8.4270   -2.9070  -11.3420 hc        1 3Z6      0.060367
     52 H17        10.1980   -2.6510  -11.6610 hc        1 3Z6      0.060367
     53 H18         7.7050   -0.2980   -6.0960 hn        1 3Z6      0.423800
     54 H19         7.0850   -1.7470   -6.7080 hn        1 3Z6      0.423800
     55 H20         8.4080    4.8530   -1.5260 h1        1 3Z6      0.067700
     56 H21        10.3150    4.1320   -2.6950 hc        1 3Z6      0.066700
@<TRIPOS>BOND
     1    1    2 1   
     2    2    3 1   
     3    2    4 1   
     4    2    5 1   
     5    5    6 ar  
     6    5    7 ar  
     7    6   11 ar  
     8    6   36 1   
     9    7    8 ar  
    10    7   37 1   
    11    8    9 1   
    12    8   10 ar  
    13   10   11 ar  
    14   10   38 1   
    15   11   12 1   
    16   12   13 1   
    17   12   39 1   
    18   12   40 1   
    19   13   14 2   
    20   13   15 1   
    21   15   16 1   
    22   15   20 1   
    23   16   17 1   
    24   16   41 1   
    25   16   55 1   
    26   17   18 1   
    27   17   42 1   
    28   17   56 1   
    29   18   19 ar  
    30   18   20 ar  
    31   19   23 ar  
    32   19   43 1   
    33   20   21 ar  
    34   21   22 ar  
    35   21   44 1   
    36   22   23 ar  
    37   22   45 1   
    38   23   24 1   
    39   24   25 1   
    40   24   26 2   
    41   25   29 ar  
    42   25   34 ar  
    43   26   27 1   
    44   26   46 1   
    45   27   28 1   
    46   27   29 1   
    47   28   47 1   
    48   28   48 1   
    49   28   49 1   
    50   29   30 ar  
    51   30   31 ar  
    52   31   32 1   
    53   31   33 ar  
    54   32   50 1   
    55   32   51 1   
    56   32   52 1   
    57   33   34 ar  
    58   34   35 1   
    59   35   53 1   
    60   35   54 1   
@<TRIPOS>SUBSTRUCTURE
     1 3Z6         1 TEMP              0 ****  ****    0 ROOT
