@<TRIPOS>MOLECULE
3Z6
   56    60     1     0     0
SMALL
bcc


@<TRIPOS>ATOM
      1 F1         -0.0500   -0.5760   -0.8310 f         1 3Z6     -0.234967
      2 C23         1.2920   -0.5210   -1.1200 c3        1 3Z6      0.688200
      3 F2          1.8590   -1.4280   -0.2570 f         1 3Z6     -0.234967
      4 F3          1.3970   -1.1210   -2.3520 f         1 3Z6     -0.234967
      5 C9          1.9010    0.8750   -1.0450 ca        1 3Z6     -0.145300
      6 C8          3.0150    1.1780   -1.8280 ca        1 3Z6     -0.094000
      7 C10         1.3460    1.8190   -0.1830 ca        1 3Z6     -0.118000
      8 C11         1.9330    3.0950   -0.1100 ca        1 3Z6      0.125900
      9 F4          1.4100    4.0260    0.7220 f         1 3Z6     -0.128900
     10 C12         3.0560    3.4120   -0.8970 ca        1 3Z6     -0.107000
     11 C7          3.5930    2.4520   -1.7570 ca        1 3Z6     -0.060300
     12 C22         4.7480    2.7770   -2.6390 c3        1 3Z6     -0.105100
     13 C21         5.9360    3.3520   -1.8930 c         1 3Z6      0.667100
     14 O1          5.8490    3.7760   -0.7250 o         1 3Z6     -0.586100
     15 N4          7.1660    3.4640   -2.5350 n         1 3Z6     -0.371000
     16 C15         8.3600    3.7790   -1.7330 c3        1 3Z6      0.085000
     17 C16         9.5930    3.3220   -2.5500 c3        1 3Z6     -0.045100
     18 C13         9.0040    2.8440   -3.8360 ca        1 3Z6     -0.127300
     19 C20         9.6440    2.3850   -4.9660 ca        1 3Z6     -0.082000
     20 C14         7.5740    2.9500   -3.7850 ca        1 3Z6      0.055600
     21 C19         6.8260    2.6260   -4.9170 ca        1 3Z6     -0.170000
     22 C18         7.4900    2.1580   -6.0570 ca        1 3Z6     -0.098000
     23 C17         8.8800    2.0200   -6.0950 ca        1 3Z6     -0.046800
     24 C5          9.5460    1.5530   -7.2890 cc        1 3Z6     -0.058400
     25 C1          9.3160    0.3300   -8.0180 ca        1 3Z6     -0.362400
     26 C6         10.5580    2.2430   -7.9660 cd        1 3Z6     -0.107100
     27 N3         10.9840    1.5160   -9.0850 na        1 3Z6     -0.163100
     28 C25        11.9320    1.9520  -10.0570 c3        1 3Z6      0.029600
     29 C2         10.2250    0.3370   -9.1510 ca        1 3Z6      0.474800
     30 N1         10.3000   -0.6650  -10.0790 nb        1 3Z6     -0.741000
     31 C3          9.4510   -1.7010   -9.8420 ca        1 3Z6      0.697300
     32 C24         9.4750   -2.8470  -10.8310 c3        1 3Z6     -0.133400
     33 N2          8.5660   -1.8370   -8.7970 nb        1 3Z6     -0.794000
     34 C4          8.4830   -0.8240   -7.8850 ca        1 3Z6      0.725200
     35 N5          7.5490   -0.8910   -6.8600 nh        1 3Z6     -0.943500
     36 H1          3.4300    0.4120   -2.5020 ha        1 3Z6      0.152000
     37 H2          0.4640    1.5770    0.4310 ha        1 3Z6      0.169000
     38 H3          3.5250    4.4060   -0.8070 ha        1 3Z6      0.175000
     39 H4          4.4180    3.5380   -3.4010 hc        1 3Z6      0.084700
     40 H5          5.0710    1.8480   -3.1870 hc        1 3Z6      0.084700
     41 H6          8.3030    3.2530   -0.7420 h1        1 3Z6      0.067700
     42 H7         10.1440    2.5060   -2.0220 hc        1 3Z6      0.066700
     43 H8         10.7410    2.3010   -4.9970 ha        1 3Z6      0.144000
     44 H9          5.7360    2.7540   -4.9560 ha        1 3Z6      0.139000
     45 H10         6.8960    1.9050   -6.9510 ha        1 3Z6      0.153000
     46 H11        11.0100    3.2080   -7.7300 h4        1 3Z6      0.173000
     47 H12        12.6320    2.6940   -9.5890 h1        1 3Z6      0.057033
     48 H13        12.5170    1.0720  -10.4380 h1        1 3Z6      0.057033
     49 H14        11.4070    2.4390  -10.9240 h1        1 3Z6      0.057033
     50 H15         8.4670   -2.9460  -11.3050 hc        1 3Z6      0.060367
     51 H16         9.7170   -3.7970  -10.2940 hc        1 3Z6      0.060367
     52 H17        10.2360   -2.6780  -11.6300 hc        1 3Z6      0.060367
     53 H18         7.7340   -0.3110   -6.0740 hn        1 3Z6      0.423800
     54 H19         7.1280   -1.7710   -6.6740 hn        1 3Z6      0.423800
     55 H20         8.3820    4.8860   -1.5480 h1        1 3Z6      0.067700
     56 H21        10.2960    4.1750   -2.7130 hc        1 3Z6      0.066700
@<TRIPOS>BOND
     1    1    2 1   
     2    2    3 1   
     3    2    4 1   
     4    2    5 1   
     5    5    6 ar  
     6    5    7 ar  
     7    6   11 ar  
     8    6   36 1   
     9    7    8 ar  
    10    7   37 1   
    11    8    9 1   
    12    8   10 ar  
    13   10   11 ar  
    14   10   38 1   
    15   11   12 1   
    16   12   13 1   
    17   12   39 1   
    18   12   40 1   
    19   13   14 2   
    20   13   15 1   
    21   15   16 1   
    22   15   20 1   
    23   16   17 1   
    24   16   41 1   
    25   16   55 1   
    26   17   18 1   
    27   17   42 1   
    28   17   56 1   
    29   18   19 ar  
    30   18   20 ar  
    31   19   23 ar  
    32   19   43 1   
    33   20   21 ar  
    34   21   22 ar  
    35   21   44 1   
    36   22   23 ar  
    37   22   45 1   
    38   23   24 1   
    39   24   25 1   
    40   24   26 2   
    41   25   29 ar  
    42   25   34 ar  
    43   26   27 1   
    44   26   46 1   
    45   27   28 1   
    46   27   29 1   
    47   28   47 1   
    48   28   48 1   
    49   28   49 1   
    50   29   30 ar  
    51   30   31 ar  
    52   31   32 1   
    53   31   33 ar  
    54   32   50 1   
    55   32   51 1   
    56   32   52 1   
    57   33   34 ar  
    58   34   35 1   
    59   35   53 1   
    60   35   54 1   
@<TRIPOS>SUBSTRUCTURE
     1 3Z6         1 TEMP              0 ****  ****    0 ROOT
