@<TRIPOS>MOLECULE
3Z7
   17    17     1     0     0
SMALL
bcc


@<TRIPOS>ATOM
      1 C1          0.0760   -0.0740    0.0490 ca        1 3Z7      0.042100
      2 C2          1.4690   -0.0150    0.0500 ca        1 3Z7     -0.137000
      3 C3         -0.6400   -0.0650    1.2710 ca        1 3Z7      0.125100
      4 C4          0.0570    0.0020    2.4820 ca        1 3Z7     -0.140000
      5 C5          2.1520    0.0520    1.2700 ca        1 3Z7     -0.033900
      6 C6          1.4500    0.0600    2.4760 ca        1 3Z7     -0.097000
      7 O7         -0.7170   -0.1430   -1.0850 os        1 3Z7     -0.346900
      8 Br8         4.0230    0.1310    1.2720 br        1 3Z7     -0.087100
      9 O9         -2.0100   -0.1210    1.3340 oh        1 3Z7     -0.491100
     10 C10        -0.0280   -0.1460   -2.3300 c3        1 3Z7      0.119700
     11 H11         2.0270   -0.0220   -0.8980 ha        1 3Z7      0.152000
     12 H12        -0.5050    0.0080    3.4270 ha        1 3Z7      0.158000
     13 H13         1.9880    0.1130    3.4350 ha        1 3Z7      0.151000
     14 H14        -2.3540   -0.1630    0.4280 ho        1 3Z7      0.439000
     15 H15         0.5590    0.7960   -2.4570 h1        1 3Z7      0.048033
     16 H16        -0.8550   -0.2030   -3.0820 h1        1 3Z7      0.048033
     17 H17         0.6400   -1.0380   -2.4080 h1        1 3Z7      0.048033
@<TRIPOS>BOND
     1    1    2 ar  
     2    1    3 ar  
     3    1    7 1   
     4    2    5 ar  
     5    2   11 1   
     6    3    4 ar  
     7    3    9 1   
     8    4    6 ar  
     9    4   12 1   
    10    5    6 ar  
    11    5    8 1   
    12    6   13 1   
    13    7   10 1   
    14    9   14 1   
    15   10   15 1   
    16   10   16 1   
    17   10   17 1   
@<TRIPOS>SUBSTRUCTURE
     1 3Z7         1 TEMP              0 ****  ****    0 ROOT
