@<TRIPOS>MOLECULE
3Z8
   20    21     1     0     0
SMALL
bcc


@<TRIPOS>ATOM
      1 C12         0.0250    0.0710    0.0270 c3        1 3Z8     -0.054100
      2 C1          1.4510    0.0610   -2.5020 c         1 3Z8      0.710100
      3 C2          2.1990    0.0280   -1.2160 ca        1 3Z8     -0.131600
      4 N3          0.0920    0.3100   -2.4480 n         1 3Z8     -0.572900
      5 C4          1.5110    0.0490    0.0080 ca        1 3Z8     -0.044300
      6 C5          3.5940   -0.0280   -1.2470 ca        1 3Z8     -0.064000
      7 O6          1.9980   -0.1450   -3.6050 o         1 3Z8     -0.640500
      8 C7          2.2380    0.0180    1.2020 ca        1 3Z8     -0.135000
      9 C8          4.3050   -0.0560   -0.0430 ca        1 3Z8      0.000400
     10 C9         -0.5630    0.7070   -1.2350 c3        1 3Z8      0.103000
     11 C10         3.6300   -0.0330    1.1820 ca        1 3Z8     -0.098000
     12 CL          6.0020   -0.1210   -0.0700 cl        1 3Z8     -0.084400
     13 H19        -0.3490    0.6440    0.9160 hc        1 3Z8      0.066200
     14 H20        -0.3450   -0.9860    0.1270 hc        1 3Z8      0.066200
     15 H13        -0.4080    0.3960   -3.3010 hn        1 3Z8      0.326500
     16 H14         4.1130   -0.0520   -2.2210 ha        1 3Z8      0.176000
     17 H15         1.7070    0.0350    2.1660 ha        1 3Z8      0.141000
     18 H17        -1.6510    0.4220   -1.3090 h1        1 3Z8      0.042200
     19 H16        -0.5120    1.8310   -1.1270 h1        1 3Z8      0.042200
     20 H18         4.1940   -0.0550    2.1270 ha        1 3Z8      0.150000
@<TRIPOS>BOND
     1    1    5 1   
     2    1   10 1   
     3    1   13 1   
     4    1   14 1   
     5    2    3 1   
     6    2    4 1   
     7    2    7 2   
     8    3    5 ar  
     9    3    6 ar  
    10    4   10 1   
    11    4   15 1   
    12    5    8 ar  
    13    6    9 ar  
    14    6   16 1   
    15    8   11 ar  
    16    8   17 1   
    17    9   11 ar  
    18    9   12 1   
    19   10   18 1   
    20   10   19 1   
    21   11   20 1   
@<TRIPOS>SUBSTRUCTURE
     1 3Z8         1 TEMP              0 ****  ****    0 ROOT
