@<TRIPOS>MOLECULE
3Z8
   20    21     1     0     0
SMALL
bcc


@<TRIPOS>ATOM
      1 C12         0.0250    0.0700    0.0250 c3        1 3Z8     -0.054100
      2 C1          1.4530    0.0600   -2.5030 c         1 3Z8      0.710100
      3 C2          2.1990    0.0280   -1.2150 ca        1 3Z8     -0.131600
      4 N3          0.0940    0.3080   -2.4490 ns        1 3Z8     -0.572900
      5 C4          1.5110    0.0500    0.0080 ca        1 3Z8     -0.044300
      6 C5          3.5950   -0.0250   -1.2450 ca        1 3Z8     -0.064000
      7 O6          2.0020   -0.1460   -3.6040 o         1 3Z8     -0.640500
      8 C7          2.2360    0.0200    1.2030 ca        1 3Z8     -0.135000
      9 C8          4.3040   -0.0530   -0.0410 ca        1 3Z8      0.000400
     10 C9         -0.5620    0.7040   -1.2380 c3        1 3Z8      0.103000
     11 C10         3.6280   -0.0300    1.1840 ca        1 3Z8     -0.098000
     12 Cl          6.0020   -0.1160   -0.0650 cl        1 3Z8     -0.084400
     13 H19        -0.3510    0.6430    0.9130 hc        1 3Z8      0.066200
     14 H20        -0.3440   -0.9880    0.1250 hc        1 3Z8      0.066200
     15 H13        -0.4050    0.3930   -3.3030 hn        1 3Z8      0.326500
     16 H14         4.1150   -0.0500   -2.2180 ha        1 3Z8      0.176000
     17 H15         1.7040    0.0360    2.1660 ha        1 3Z8      0.141000
     18 H17        -0.5130    1.8290   -1.1300 h1        1 3Z8      0.042200
     19 H16        -1.6510    0.4180   -1.3130 h1        1 3Z8      0.042200
     20 H18         4.1920   -0.0510    2.1300 ha        1 3Z8      0.150000
@<TRIPOS>BOND
     1    1    5 1   
     2    1   10 1   
     3    1   13 1   
     4    1   14 1   
     5    2    3 1   
     6    2    4 1   
     7    2    7 2   
     8    3    5 ar  
     9    3    6 ar  
    10    4   10 1   
    11    4   15 1   
    12    5    8 ar  
    13    6    9 ar  
    14    6   16 1   
    15    8   11 ar  
    16    8   17 1   
    17    9   11 ar  
    18    9   12 1   
    19   10   18 1   
    20   10   19 1   
    21   11   20 1   
@<TRIPOS>SUBSTRUCTURE
     1 3Z8         1 TEMP              0 ****  ****    0 ROOT
