@<TRIPOS>MOLECULE
3Z9
   87    89     1     0     0
SMALL
bcc


@<TRIPOS>ATOM
      1 C13         0.6830    0.6200    0.2580 c3        1 3Z9      0.040000
      2 C18        -2.8280    0.4180   -1.9880 cy        1 3Z9     -0.163000
      3 C15         0.3920   -0.5980   -0.6510 c2        1 3Z9      0.264000
      4 C19        -2.9490    0.8280   -3.4750 cy        1 3Z9     -0.153000
      5 C20        -1.4230    0.9520   -3.6010 cy        1 3Z9     -0.179000
      6 C21        -1.2570    0.6390   -2.0770 cy        1 3Z9      0.026000
      7 C22        -3.5170    1.2740   -1.0010 c2        1 3Z9      0.114000
      8 C23         2.4310    1.2640   -1.4270 c2        1 3Z9     -0.147000
      9 C24         3.2460    2.2600   -2.0820 c2        1 3Z9      0.160000
     10 C34        -4.6190    3.1630    0.7450 c1        1 3Z9      0.142000
     11 C27         1.4280    3.0320   -0.0170 c3        1 3Z9     -0.173000
     12 C33        -2.8590    3.6700   -1.0080 c2        1 3Z9      0.092000
     13 C1          2.7360   -0.9410    2.9580 c2        1 3Z9     -0.065000
     14 C2          4.8230   -0.5320    1.0840 c3        1 3Z9     -0.190000
     15 C3          3.4620   -0.1410    0.7760 c1        1 3Z9     -0.104000
     16 C4          2.4430   -0.2870    1.7740 c2        1 3Z9     -0.046000
     17 C5          5.1060   -1.1580    2.4040 c2        1 3Z9     -0.017000
     18 C6          4.0710   -1.3700    3.2640 c2        1 3Z9     -0.135000
     19 C7          4.2400   -2.0330    4.5950 c2        1 3Z9      0.344000
     20 N8          4.3930   -3.3960    4.5980 n         1 3Z9     -0.429000
     21 C9          7.0940   -1.4180    3.8540 c2        1 3Z9     -0.167000
     22 C10         6.4950   -1.4920    2.6630 c2        1 3Z9     -0.174000
     23 O11         4.2170   -1.3960    5.6670 o         1 3Z9     -0.365000
     24 N12         1.1580    0.2700    1.5830 n3        1 3Z9     -0.233000
     25 C14         1.5560    1.6190   -0.4560 c2        1 3Z9     -0.053000
     26 O16         0.8890   -1.7200   -0.4250 o         1 3Z9     -0.360000
     27 N17        -0.4420   -0.4770   -1.7460 n         1 3Z9     -0.367000
     28 C25         3.1380    3.6010   -1.7010 c2        1 3Z9     -0.070000
     29 C26         2.2560    4.0130   -0.6990 c1        1 3Z9     -0.193000
     30 O28         3.9450    4.5030   -2.3820 os        1 3Z9     -0.204000
     31 C29         3.8310    5.8450   -1.9130 c3        1 3Z9     -0.054000
     32 O30         4.1320    1.9550   -3.0720 os        1 3Z9     -0.168000
     33 C31         4.2580    0.5830   -3.4450 c3        1 3Z9     -0.087000
     34 C32        -3.7390    2.6840   -1.3340 c2        1 3Z9     -0.296000
     35 C35        -4.6200    1.8660    1.0370 c2        1 3Z9     -0.414000
     36 C36        -4.0190    0.8430    0.1920 c2        1 3Z9     -0.761000
     37 S37        -4.1190   -0.7200    0.8120 s6        1 3Z9      2.829000
     38 C38        -2.5750   -0.8480    1.5900 c3        1 3Z9     -0.765000
     39 O39        -5.1360   -0.7980    1.7750 o         1 3Z9     -0.928000
     40 O40        -4.1680   -1.6580   -0.2330 o         1 3Z9     -0.928000
     41 C41        -2.4480    0.0730    2.7800 c3        1 3Z9     -0.197500
     42 C42        -2.3530   -2.2830    2.0190 c3        1 3Z9     -0.197500
     43 C44        -2.0910    5.9850   -1.0390 c2        1 3Z9      0.393000
     44 O45        -2.2660    7.2020   -1.1830 o         1 3Z9     -0.361000
     45 O46        -0.8750    5.4990   -0.6310 os        1 3Z9     -0.277000
     46 C47         0.1600    6.4810   -0.4730 c3        1 3Z9     -0.085000
     47 H57        -0.3170    1.1290    0.4590 h1        1 3Z9      0.107000
     48 H58        -0.6050   -1.3110   -2.2700 hn        1 3Z9      0.237000
     49 H60        -3.1020   -0.6600   -1.8480 hc        1 3Z9      0.157000
     50 H59        -3.4930    1.7820   -3.6440 hc        1 3Z9      0.103500
     51 H62        -3.3950    0.0310   -4.1090 hc        1 3Z9      0.103500
     52 H61        -0.9640    0.2030   -4.2820 hc        1 3Z9      0.104000
     53 H64        -1.0620    1.9670   -3.8710 hc        1 3Z9      0.104000
     54 H63        -0.9340    1.5500   -1.5090 h1        1 3Z9      0.109000
     55 H65         2.5720    0.2030   -1.6900 ha        1 3Z9      0.165000
     56 H75        -1.8960    3.4380   -0.5030 h4        1 3Z9      0.163000
     57 H67         0.3560    3.3850   -0.1090 hc        1 3Z9      0.164000
     58 H48         1.9640   -1.1470    3.7200 ha        1 3Z9      0.146000
     59 H49         5.1590   -1.2320    0.2600 hc        1 3Z9      0.170500
     60 H50         5.4550    0.4030    0.9700 hc        1 3Z9      0.170500
     61 H51         4.4250   -3.9090    3.7560 hn        1 3Z9      0.229500
     62 H53         4.4980   -3.8740    5.4580 hn        1 3Z9      0.229500
     63 H52         6.5720   -1.1050    4.7710 ha        1 3Z9      0.131500
     64 H55         8.1580   -1.6600    3.9800 ha        1 3Z9      0.131500
     65 H54         7.0690   -1.7880    1.7650 ha        1 3Z9      0.130000
     66 H56         0.4560   -0.2680    2.0640 hn        1 3Z9      0.185000
     67 H66         1.6820    3.0920    1.0870 hc        1 3Z9      0.164000
     68 H68         4.1430    5.9110   -0.8430 h1        1 3Z9      0.078667
     69 H69         2.7810    6.2100   -2.0220 h1        1 3Z9      0.078667
     70 H70         4.5300    6.4120   -2.5770 h1        1 3Z9      0.078667
     71 H72         4.6020   -0.0310   -2.5780 h1        1 3Z9      0.092667
     72 H71         3.2910    0.1950   -3.8480 h1        1 3Z9      0.092667
     73 H73         5.0380    0.6110   -4.2480 h1        1 3Z9      0.092667
     74 H74        -4.6860    2.8830   -1.8670 ha        1 3Z9      0.172000
     75 H76        -5.1350    1.5260    1.9630 ha        1 3Z9      0.207000
     76 H77        -3.2590   -0.1390    3.5220 hc        1 3Z9      0.093500
     77 H78        -1.7600   -0.5870    0.8580 h1        1 3Z9      0.132000
     78 H79        -2.5250    1.1420    2.4600 hc        1 3Z9      0.093500
     79 H80        -1.4640   -0.0740    3.2880 hc        1 3Z9      0.093500
     80 H83        -1.3300   -2.4040    2.4520 hc        1 3Z9      0.093500
     81 H81        -2.4480   -2.9710    1.1430 hc        1 3Z9      0.093500
     82 H82        -3.0990   -2.5760    2.7980 hc        1 3Z9      0.093500
     83 H84        -3.9540    5.3330   -1.5690 hn        1 3Z9      0.264000
     84 H85         0.2310    7.1180   -1.3860 h1        1 3Z9      0.114667
     85 H87         1.0840    5.8460   -0.3360 h1        1 3Z9      0.114667
     86 H86        -0.0660    7.1090    0.4210 h1        1 3Z9      0.114667
     87 N43        -3.0510    5.0060   -1.2990 n         1 3Z9     -0.298000
@<TRIPOS>BOND
     1    1    3 1   
     2    1   24 1   
     3    1   25 1   
     4    1   47 1   
     5    2    4 1   
     6    2    6 1   
     7    2    7 1   
     8    2   49 1   
     9    3   26 1   
    10    3   27 1   
    11    4    5 1   
    12    4   50 1   
    13    4   51 1   
    14    5    6 1   
    15    5   52 1   
    16    5   53 1   
    17    6   27 1   
    18    6   54 1   
    19    7   34 1   
    20    7   36 1   
    21    8    9 1   
    22    8   25 1   
    23    8   55 1   
    24    9   28 1   
    25    9   32 1   
    26   10   35 1   
    27   11   25 1   
    28   11   29 1   
    29   11   57 1   
    30   11   67 1   
    31   12   34 1   
    32   12   56 1   
    33   12   87 1   
    34   13   16 1   
    35   13   18 1   
    36   13   58 1   
    37   14   15 1   
    38   14   17 1   
    39   14   59 1   
    40   14   60 1   
    41   15   16 1   
    42   16   24 1   
    43   17   18 1   
    44   17   22 1   
    45   18   19 1   
    46   19   20 1   
    47   19   23 1   
    48   20   61 1   
    49   20   62 1   
    50   21   22 1   
    51   21   63 1   
    52   21   64 1   
    53   22   65 1   
    54   24   66 1   
    55   27   48 1   
    56   28   29 1   
    57   28   30 1   
    58   30   31 1   
    59   31   68 1   
    60   31   69 1   
    61   31   70 1   
    62   32   33 1   
    63   33   71 1   
    64   33   72 1   
    65   33   73 1   
    66   34   74 1   
    67   35   36 1   
    68   35   75 1   
    69   36   37 1   
    70   37   38 1   
    71   37   39 1   
    72   37   40 1   
    73   38   41 1   
    74   38   42 1   
    75   38   77 1   
    76   41   76 1   
    77   41   78 1   
    78   41   79 1   
    79   42   80 1   
    80   42   81 1   
    81   42   82 1   
    82   43   44 1   
    83   43   45 1   
    84   43   87 1   
    85   45   46 1   
    86   46   84 1   
    87   46   85 1   
    88   46   86 1   
    89   83   87 1   
@<TRIPOS>SUBSTRUCTURE
     1 3Z9         1 TEMP              0 ****  ****    0 ROOT
