@<TRIPOS>MOLECULE
3ZA
   31    30     1     0     0
SMALL
bcc


@<TRIPOS>ATOM
      1 O6         -4.5810   -0.8640   -0.1900 oh        1 3ZA     -0.463100
      2 C5         -1.9090   -0.1700   -0.0040 c3        1 3ZA     -0.167400
      3 C3          0.5360   -0.6270    0.0590 c3        1 3ZA     -0.179700
      4 O2          5.1390   -0.0590    0.2150 o         1 3ZA     -0.862800
      5 O1          4.2760    1.9710   -0.1010 o         1 3ZA     -0.862800
      6 C7          0.1090   -1.9160   -0.6850 c         1 3ZA      0.905600
      7 C8         -3.0080    0.8330    0.1970 c         1 3ZA      0.615100
      8 C1          2.8160    0.2660    0.8480 c3        1 3ZA      0.033500
      9 C2          1.9170   -0.1290   -0.3360 c3        1 3ZA     -0.078400
     10 C4         -0.5330    0.4370   -0.1810 c3        1 3ZA     -0.042400
     11 N1          2.2550    1.2370    1.7760 n3        1 3ZA     -0.908800
     12 C6          4.1810    0.7620    0.2700 c         1 3ZA      0.913600
     13 O5         -2.8640    2.0640    0.2700 o         1 3ZA     -0.593100
     14 N2         -4.3330    0.2870    0.4560 n         1 3ZA     -0.293300
     15 C9         -5.4400    1.2070    0.2350 c3        1 3ZA      0.045300
     16 H1         -4.0370   -1.5410    0.2620 ho        1 3ZA      0.441000
     17 H2         -1.8860   -0.8790    0.8740 hc        1 3ZA      0.104700
     18 H3         -2.1470   -0.8030   -0.9050 hc        1 3ZA      0.104700
     19 H4          0.5340   -0.8890    1.1540 hc        1 3ZA      0.040700
     20 H6          3.0180   -0.6660    1.4520 h1        1 3ZA      0.042700
     21 H7          2.4440   -0.9420   -0.9030 hc        1 3ZA      0.051700
     22 H8          1.8300    0.7480   -1.0290 hc        1 3ZA      0.051700
     23 H9         -0.4340    0.8430   -1.2210 hc        1 3ZA      0.032700
     24 H10        -0.4040    1.2980    0.5250 hc        1 3ZA      0.032700
     25 H11         2.5830    2.1540    1.5200 hn        1 3ZA      0.325800
     26 H12         1.2550    1.2440    1.6970 hn        1 3ZA      0.325800
     27 H15        -5.5950    1.4490   -0.8490 h1        1 3ZA      0.039033
     28 H16        -6.3730    0.7350    0.6350 h1        1 3ZA      0.039033
     29 H17        -5.2120    2.1490    0.7960 h1        1 3ZA      0.039033
     30 O3          0.5090   -2.1500   -1.8590 o         1 3ZA     -0.866800
     31 O4         -0.6980   -2.6910   -0.0750 o         1 3ZA     -0.866800
@<TRIPOS>BOND
     1    1   14 1   
     2    1   16 1   
     3    2    7 1   
     4    2   10 1   
     5    2   17 1   
     6    2   18 1   
     7    3    6 1   
     8    3    9 1   
     9    3   10 1   
    10    3   19 1   
    11    4   12 1   
    12    5   12 1   
    13    6   30 1   
    14    6   31 1   
    15    7   13 2   
    16    7   14 1   
    17    8    9 1   
    18    8   11 1   
    19    8   12 1   
    20    8   20 1   
    21    9   21 1   
    22    9   22 1   
    23   10   23 1   
    24   10   24 1   
    25   11   25 1   
    26   11   26 1   
    27   14   15 1   
    28   15   27 1   
    29   15   28 1   
    30   15   29 1   
@<TRIPOS>SUBSTRUCTURE
     1 3ZA         1 TEMP              0 ****  ****    0 ROOT
