@<TRIPOS>MOLECULE
3ZA
   31    29     1     0     0
SMALL
bcc


@<TRIPOS>ATOM
      1 O6       -180.1960  172.1490  527.5860 oh        1 3ZA     -0.309000
      2 C5       -181.5400  172.4850  524.9670 c3        1 3ZA     -0.128000
      3 C3       -181.3590  174.9300  524.5090 c3        1 3ZA     -0.231000
      4 O2        386.7770 -361.1010-1116.5570 o         1 3ZA     -0.528000
      5 O1        384.5570 -361.3380-1116.2610 o         1 3ZA     -0.528000
      6 C7       -181.6570  175.4690  525.9170 c2        1 3ZA      0.332000
      7 C8       -180.7960  171.3160  525.5030 c2        1 3ZA     -0.120000
      8 C1        386.0340 -362.9900-1115.1920 c3        1 3ZA     -0.229000
      9 C2        386.5900 -363.9540-1116.1030 c1        1 3ZA     -0.148000
     10 C4       -180.6210  173.6120  524.5230 c3        1 3ZA     -0.123000
     11 N1        384.8790 -363.4290-1114.4280 n3        1 3ZA     -0.320000
     12 C6        385.7550 -361.6720-1116.1160 c2        1 3ZA      0.356000
     13 O5       -181.1730  170.0410  525.3090 os        1 3ZA      0.032000
     14 N2       -179.7920  171.4740  526.5010 n3        1 3ZA     -0.071000
     15 C9       -182.1610  169.6720  524.5110 c2        1 3ZA     -0.418000
     16 H1       -180.3410  173.0880  527.3040 ho        1 3ZA      0.293000
     17 H2       -182.2200  172.8800  525.7780 hc        1 3ZA      0.109000
     18 H3       -182.1740  172.1690  524.0980 hc        1 3ZA      0.109000
     19 H4       -182.3300  174.8300  523.9600 hc        1 3ZA      0.067500
     20 H6        387.6020 -363.7040-1116.4610 ha        1 3ZA      0.028000
     21 H7       -180.7440  175.6960  523.9730 hc        1 3ZA      0.067500
     22 H8        386.7780 -362.5890-1114.4390 h1        1 3ZA      0.105000
     23 H9       -179.7490  173.7120  525.2220 hc        1 3ZA      0.073000
     24 H10      -180.2170  173.3770  523.5040 hc        1 3ZA      0.073000
     25 H11       384.4860 -364.2440-1114.8640 hn        1 3ZA      0.132000
     26 H12       384.1790 -362.7060-1114.4680 hn        1 3ZA      0.132000
     27 H15      -179.5000  170.5540  526.8340 hn        1 3ZA      0.166000
     28 H16      -182.0110  168.6860  524.0710 h4        1 3ZA      0.129000
     29 H17      -182.9520  170.3510  524.2060 h4        1 3ZA      0.129000
     30 O3       -182.2740  176.5680  526.0000 o         1 3ZA     -0.588500
     31 O4       -181.2810  174.8070  526.9330 o         1 3ZA     -0.588500
@<TRIPOS>BOND
     1    1   14 1   
     2    1   16 1   
     3    2    7 1   
     4    2   10 1   
     5    2   17 1   
     6    2   18 1   
     7    3    6 1   
     8    3   10 1   
     9    3   19 1   
    10    3   21 1   
    11    4   12 1   
    12    5   12 1   
    13    6   30 1   
    14    6   31 1   
    15    7   13 1   
    16    7   14 1   
    17    8    9 1   
    18    8   11 1   
    19    8   12 1   
    20    8   22 1   
    21    9   20 1   
    22   10   23 1   
    23   10   24 1   
    24   11   25 1   
    25   11   26 1   
    26   13   15 1   
    27   14   27 1   
    28   15   28 1   
    29   15   29 1   
@<TRIPOS>SUBSTRUCTURE
     1 3ZA         1 TEMP              0 ****  ****    0 ROOT
