@<TRIPOS>MOLECULE
3ZA
   31    30     1     0     0
SMALL
bcc


@<TRIPOS>ATOM
      1 O6         -1.6630   -0.1410    3.9940 oh        1 3ZA     -0.458100
      2 C5         -0.2710    0.3360    1.4640 c3        1 3ZA     -0.170400
      3 C3          0.0500    0.3610   -1.0460 c3        1 3ZA     -0.171700
      4 O2          1.1170   -1.1490   -4.9150 o         1 3ZA     -0.864800
      5 O1          0.1410    0.7910   -5.2870 o         1 3ZA     -0.864800
      6 C7          0.5830    1.7410   -1.4040 c         1 3ZA      0.904600
      7 C8          0.4240    0.0130    2.8080 c         1 3ZA      0.616100
      8 C1         -0.5080   -0.4130   -3.3300 c3        1 3ZA      0.028500
      9 C2          0.4210   -0.6140   -2.1270 c3        1 3ZA     -0.049400
     10 C4          0.6590   -0.0930    0.2840 c3        1 3ZA     -0.039400
     11 N1         -1.3550   -1.5520   -3.4740 n3        1 3ZA     -0.894800
     12 C6          0.3030   -0.2400   -4.5580 c         1 3ZA      0.887600
     13 O3          1.8300    1.9070   -1.6220 o         1 3ZA     -0.866800
     14 O4         -0.2200    2.7240   -1.5210 o         1 3ZA     -0.866800
     15 O5          1.5860   -0.2140    2.8330 o         1 3ZA     -0.589100
     16 N2         -0.3060    0.0620    4.0080 n         1 3ZA     -0.296300
     17 C9          0.3790    0.2730    5.2560 c3        1 3ZA      0.044300
     18 H1         -1.8890   -0.6130    4.6740 ho        1 3ZA      0.433000
     19 H2         -1.1360   -0.1640    1.4060 hc        1 3ZA      0.101200
     20 H3         -0.4450    1.2980    1.4090 hc        1 3ZA      0.101200
     21 H4         -0.9160    0.4000   -0.9650 hc        1 3ZA      0.044700
     22 H6         -1.0700    0.4070   -3.1830 h1        1 3ZA      0.041700
     23 H7          1.3620   -0.4580   -2.4050 hc        1 3ZA      0.050200
     24 H8          0.3280   -1.5380   -1.7860 hc        1 3ZA      0.050200
     25 H9          1.5420    0.3220    0.3960 hc        1 3ZA      0.035700
     26 H10         0.7560   -1.0810    0.2830 hc        1 3ZA      0.035700
     27 H11        -1.0830   -2.0520   -4.2260 hn        1 3ZA      0.320800
     28 H12        -2.2400   -1.2700   -3.5910 hn        1 3ZA      0.320800
     29 H15         1.0070    1.0380    5.1620 h1        1 3ZA      0.038700
     30 H16        -0.2770    0.4720    5.9630 h1        1 3ZA      0.038700
     31 H17         0.8900   -0.5480    5.4970 h1        1 3ZA      0.038700
@<TRIPOS>BOND
     1    1   16 1   
     2    1   18 1   
     3    2    7 1   
     4    2   10 1   
     5    2   19 1   
     6    2   20 1   
     7    3    6 1   
     8    3    9 1   
     9    3   10 1   
    10    3   21 1   
    11    4   12 1   
    12    5   12 1   
    13    6   13 1   
    14    6   14 1   
    15    7   15 2   
    16    7   16 1   
    17    8    9 1   
    18    8   11 1   
    19    8   12 1   
    20    8   22 1   
    21    9   23 1   
    22    9   24 1   
    23   10   25 1   
    24   10   26 1   
    25   11   27 1   
    26   11   28 1   
    27   16   17 1   
    28   17   29 1   
    29   17   30 1   
    30   17   31 1   
@<TRIPOS>SUBSTRUCTURE
     1 3ZA         1 TEMP              0 ****  ****    0 ROOT
