@<TRIPOS>MOLECULE
3ZC
   60    59     1     0     0
SMALL
bcc


@<TRIPOS>ATOM
      1 C10         0.1800   -0.1240   -0.7060 c2        1 3ZC     -0.199000
      2 C13        -3.2160    0.0010   -1.9700 c2        1 3ZC      0.147000
      3 C17        -5.5520    1.9040    0.0210 c2        1 3ZC     -0.113000
      4 C20        -8.0950    2.4340    1.2870 c2        1 3ZC      0.313000
      5 C21        -7.1900    3.5820    0.9460 c3        1 3ZC     -0.192000
      6 C22        -5.9170    3.2340    0.2470 c2        1 3ZC      0.006000
      7 C24        -3.9240    4.0480   -0.8420 c1        1 3ZC     -0.063000
      8 C28       -12.3540    1.2430    2.6860 c2        1 3ZC      0.243000
      9 C01         4.8310    0.0310   -0.0750 c2        1 3ZC      0.126000
     10 C03         2.4670   -0.6400    0.0100 c2        1 3ZC      0.332000
     11 O04         2.7540   -1.7300   -0.4610 o         1 3ZC     -0.173000
     12 C05         1.1350   -0.1050    0.3850 c2        1 3ZC     -0.102000
     13 C06         0.8970    0.3290    1.6320 c2        1 3ZC     -0.135000
     14 C07        -3.0010   -0.8450    1.0370 c1        1 3ZC      0.285000
     15 C08        -1.7440   -0.8880    0.6260 c2        1 3ZC     -0.491000
     16 C09        -1.1360   -0.4430   -0.6080 c2        1 3ZC      0.122000
     17 C11        -5.2020   -0.0400   -3.4980 c1        1 3ZC      0.303000
     18 C12        -3.9070    0.0180   -3.2420 c2        1 3ZC     -0.500000
     19 C14        -1.9350   -0.3970   -1.8280 c2        1 3ZC     -0.178000
     20 O15        -4.0010    0.3080   -0.8460 os        1 3ZC     -0.195000
     21 C16        -4.3260    1.6530   -0.6880 c2        1 3ZC      0.126000
     22 C18        -6.3900    0.8240    0.4760 c2        1 3ZC     -0.081000
     23 C19        -7.5820    1.0690    1.0670 c2        1 3ZC     -0.061000
     24 N23        -5.0800    4.2560   -0.1830 n3        1 3ZC     -0.120000
     25 C25        -3.5390    2.6970   -1.1170 c2        1 3ZC     -0.258000
     26 C27       -13.4100    3.4410    3.0610 c2        1 3ZC     -0.037000
     27 C29       -12.3410    2.7030    2.7320 c2        1 3ZC     -0.266000
     28 C30       -13.6280    0.5300    3.0050 c3        1 3ZC     -0.264000
     29 N31       -11.2600    0.5760    2.3680 n3        1 3ZC     -0.200000
     30 O32        -8.4690    0.1070    1.5200 os        1 3ZC     -0.247000
     31 C33        -8.0210   -1.2450    1.4170 c3        1 3ZC     -0.080000
     32 H1         -7.7830    4.3070    0.3140 hc        1 3ZC      0.158500
     33 H2         -5.3540    5.2020   -0.0050 hn        1 3ZC      0.269000
     34 H3          4.7870   -2.8380   -1.2870 ha        1 3ZC      0.002000
     35 H4          4.3800   -3.3680   -1.4020 ha        1 3ZC      0.002000
     36 H5          5.0940   -0.9660   -0.5140 h4        1 3ZC      0.217500
     37 H6          5.6470    0.7700    0.0940 h4        1 3ZC      0.217500
     38 H7          1.6490    0.3230    2.4330 ha        1 3ZC      0.152500
     39 H8         -0.0980    0.7060    1.9230 ha        1 3ZC      0.152500
     40 H9         -1.0460   -1.3820    1.3450 ha        1 3ZC      0.199000
     41 H10         0.5950    0.1460   -1.6940 ha        1 3ZC      0.148000
     42 H11        -3.2440    0.0540   -4.1400 ha        1 3ZC      0.219000
     43 H12        -1.4030   -0.7360   -2.7380 ha        1 3ZC      0.163000
     44 H13        -6.0060   -0.2000    0.3190 ha        1 3ZC      0.178000
     45 H14        -2.6110    2.5410   -1.6850 ha        1 3ZC      0.171000
     46 H15       -13.3530    4.5430    3.0820 ha        1 3ZC      0.152500
     47 H16        -6.9490    4.1150    1.9130 hc        1 3ZC      0.158500
     48 H17       -14.3930    3.0200    3.3260 ha        1 3ZC      0.152500
     49 H18       -11.3800    3.1970    2.4760 ha        1 3ZC      0.190000
     50 H19       -14.4270    0.8650    2.2920 hc        1 3ZC      0.145000
     51 H20       -13.9490    0.7960    4.0460 hc        1 3ZC      0.145000
     52 H21       -11.2540   -0.4240    2.3280 hn        1 3ZC      0.287500
     53 H22       -13.5450   -0.5840    2.9380 hc        1 3ZC      0.145000
     54 H24        -8.8570   -1.8320    1.8760 h1        1 3ZC      0.097333
     55 H25        -7.8820   -1.5270    0.3450 h1        1 3ZC      0.097333
     56 H26        -7.0750   -1.3900    1.9920 h1        1 3ZC      0.097333
     57 N02         3.5970    0.3030    0.2260 n         1 3ZC     -0.186000
     58 H313      -10.3890    1.0440    2.1470 hn        1 3ZC      0.287500
     59 H022        3.3360    1.1980    0.6190 hn        1 3ZC      0.283000
     60 O26        -9.2280    2.6480    1.7480 o         1 3ZC     -0.351000
@<TRIPOS>BOND
     1    1   12 1   
     2    1   16 1   
     3    1   41 1   
     4    2   18 1   
     5    2   19 1   
     6    2   20 1   
     7    3    6 1   
     8    3   21 1   
     9    3   22 1   
    10    4    5 1   
    11    4   23 1   
    12    4   60 1   
    13    5    6 1   
    14    5   32 1   
    15    5   47 1   
    16    6   24 1   
    17    7   24 1   
    18    7   25 1   
    19    8   27 1   
    20    8   28 1   
    21    8   29 1   
    22    9   36 1   
    23    9   37 1   
    24    9   57 1   
    25   10   11 1   
    26   10   12 1   
    27   10   57 1   
    28   12   13 1   
    29   13   38 1   
    30   13   39 1   
    31   14   15 1   
    32   15   16 1   
    33   15   40 1   
    34   16   19 1   
    35   17   18 1   
    36   18   42 1   
    37   19   43 1   
    38   20   21 1   
    39   21   25 1   
    40   22   23 1   
    41   22   44 1   
    42   23   30 1   
    43   24   33 1   
    44   25   45 1   
    45   26   27 1   
    46   26   46 1   
    47   26   48 1   
    48   27   49 1   
    49   28   50 1   
    50   28   51 1   
    51   28   53 1   
    52   29   52 1   
    53   29   58 1   
    54   30   31 1   
    55   31   54 1   
    56   31   55 1   
    57   31   56 1   
    58   34   35 1   
    59   57   59 1   
@<TRIPOS>SUBSTRUCTURE
     1 3ZC         1 TEMP              0 ****  ****    0 ROOT
