@<TRIPOS>MOLECULE
3ZC
   60    60     1     0     0
SMALL
bcc


@<TRIPOS>ATOM
      1 C10         0.3440    0.7060   -1.0660 c2        1 3ZC     -0.204000
      2 C13        -3.2930    1.3510   -1.1200 c2        1 3ZC      0.137000
      3 C17        -6.1310    1.3210    0.5300 c2        1 3ZC      0.064000
      4 C20        -8.7580    0.3100    0.8520 c2        1 3ZC      0.038000
      5 C21        -8.5670    1.6600    1.0470 c2        1 3ZC     -0.160000
      6 C22        -7.2620    2.2770    0.7500 c3        1 3ZC     -0.087000
      7 C24        -5.6800    3.8000    1.8290 c1        1 3ZC     -0.027000
      8 C28       -12.2290    2.7050    2.4970 c3        1 3ZC     -0.149000
      9 C01         4.4720   -1.6410   -0.1620 c3        1 3ZC     -0.199000
     10 C03         2.3330   -0.7290   -1.0500 c2        1 3ZC      0.298000
     11 O04         1.9970   -1.6430   -1.7810 o         1 3ZC     -0.143000
     12 C05         1.4930    0.2370   -0.3090 c2        1 3ZC     -0.129000
     13 C06         1.7610    0.5870    0.9620 c2        1 3ZC     -0.103000
     14 C07        -0.4170   -0.2620    1.6230 c1        1 3ZC      0.199000
     15 C08        -1.2470   -0.1110    0.6060 c2        1 3ZC     -0.443000
     16 C09        -0.9420    0.5640   -0.6420 c2        1 3ZC      0.115000
     17 C11        -5.4910    2.3090   -1.7660 c1        1 3ZC      0.180000
     18 C12        -4.2670    1.9060   -2.0440 c2        1 3ZC     -0.440000
     19 C14        -2.0170    1.0740   -1.4720 c2        1 3ZC     -0.168000
     20 O15        -3.7260    1.0670    0.1830 os        1 3ZC     -0.170000
     21 C16        -4.7860    1.8600    0.6290 c2        1 3ZC     -0.023000
     22 C18        -6.3980   -0.0230    0.3110 c2        1 3ZC     -0.163000
     23 C19        -7.6830   -0.5410    0.4620 c2        1 3ZC      0.090000
     24 N23        -6.9060    3.4560    1.5590 n7        1 3ZC     -0.129000
     25 C25        -4.5540    2.9790    1.3800 c2        1 3ZC     -0.055000
     26 C27       -10.9370    3.1630    1.8590 c1        1 3ZC      0.073000
     27 C29       -12.1470    3.9500    1.6180 c3        1 3ZC     -0.349000
     28 C30       -12.3700    2.9760    3.9760 c3        1 3ZC     -0.208000
     29 N31       -12.8120    1.4930    1.9860 n8        1 3ZC     -0.328000
     30 O32        -6.2800   -3.1040   -0.2820 o         1 3ZC     -0.354000
     31 C33        -6.2980   -4.3150   -0.5130 c2        1 3ZC      0.172000
     32 H1         -7.4170    2.7040   -0.3340 h1        1 3ZC      0.258000
     33 H2         -7.6760    4.0360    1.8370 hn        1 3ZC      0.294000
     34 H3          4.2530   -0.4940   -1.8560 hn        1 3ZC      0.257500
     35 H4          4.2270   -2.6160   -0.6680 hx        1 3ZC      0.154667
     36 H5          5.5870   -1.4980   -0.1420 hx        1 3ZC      0.154667
     37 H6          4.0760   -1.6550    0.8890 hx        1 3ZC      0.154667
     38 H7          2.5910    0.1690    1.5510 ha        1 3ZC      0.163500
     39 H8          1.1650    1.3510    1.4980 ha        1 3ZC      0.163500
     40 H9         -2.2720   -0.5370    0.7000 ha        1 3ZC      0.221000
     41 H10         0.5640    1.1740   -2.0410 ha        1 3ZC      0.162000
     42 H11        -3.9270    1.9990   -3.1030 ha        1 3ZC      0.231000
     43 H12        -1.7400    1.2600   -2.5290 ha        1 3ZC      0.163000
     44 H13        -5.5750   -0.7210    0.0530 ha        1 3ZC      0.205000
     45 H14        -3.5420    3.3310    1.6390 ha        1 3ZC      0.202000
     46 H15       -10.6290    0.3200    1.3040 ho        1 3ZC      0.269000
     47 H16        -9.4220    2.3380    1.3880 ha        1 3ZC      0.266000
     48 H17       -12.5850    3.9570    0.5970 hc        1 3ZC      0.183000
     49 H18       -12.3010    4.9360    2.1040 hc        1 3ZC      0.183000
     50 H19       -13.4430    3.1620    4.2290 hc        1 3ZC      0.101000
     51 H20       -11.7790    3.8770    4.2710 hc        1 3ZC      0.101000
     52 H21       -13.6410    1.7010    1.4610 hn        1 3ZC      0.174000
     53 H22       -12.0060    2.1040    4.5720 hc        1 3ZC      0.101000
     54 H24        -7.8700   -1.6260    0.3090 ha        1 3ZC      0.220000
     55 H25        -7.2350   -4.9080   -0.4640 h4        1 3ZC      0.092500
     56 H26        -5.3750   -4.8720   -0.7830 h4        1 3ZC      0.092500
     57 N02         3.8430   -0.5310   -0.9130 ny        1 3ZC     -0.114000
     58 H313      -13.0450    0.8740    2.7400 hn        1 3ZC      0.174000
     59 H022        4.0300    0.3610   -0.4430 hn        1 3ZC      0.257500
     60 O26        -9.9550   -0.3280    1.0280 oh        1 3ZC     -0.223000
@<TRIPOS>BOND
     1    1   12 1   
     2    1   16 1   
     3    1   41 1   
     4    2   18 1   
     5    2   19 1   
     6    2   20 1   
     7    3    6 1   
     8    3   21 1   
     9    3   22 1   
    10    4    5 1   
    11    4   23 1   
    12    4   60 1   
    13    5    6 1   
    14    5   47 1   
    15    6   24 1   
    16    6   32 1   
    17    7   24 1   
    18    7   25 1   
    19    8   26 1   
    20    8   27 1   
    21    8   28 1   
    22    8   29 1   
    23    9   35 1   
    24    9   36 1   
    25    9   37 1   
    26    9   57 1   
    27   10   11 1   
    28   10   12 1   
    29   10   57 1   
    30   12   13 1   
    31   13   38 1   
    32   13   39 1   
    33   14   15 1   
    34   15   16 1   
    35   15   40 1   
    36   16   19 1   
    37   17   18 1   
    38   18   42 1   
    39   19   43 1   
    40   20   21 1   
    41   21   25 1   
    42   22   23 1   
    43   22   44 1   
    44   23   54 1   
    45   24   33 1   
    46   25   45 1   
    47   26   27 1   
    48   27   48 1   
    49   27   49 1   
    50   28   50 1   
    51   28   51 1   
    52   28   53 1   
    53   29   52 1   
    54   29   58 1   
    55   30   31 1   
    56   31   55 1   
    57   31   56 1   
    58   34   57 1   
    59   46   60 1   
    60   57   59 1   
@<TRIPOS>SUBSTRUCTURE
     1 3ZC         1 TEMP              0 ****  ****    0 ROOT
