@<TRIPOS>MOLECULE
3ZE
   38    49     1     0     0
SMALL
bcc


@<TRIPOS>ATOM
      1 C4          0.0000    0.0000    0.0000 c3        1 3ZE     -0.297000
      2 C5          1.3990    0.0000    0.0000 c2        1 3ZE     -0.495000
      3 C6          2.0770    0.0000    1.2420 c3        1 3ZE      0.469000
      4 C8          0.7580   -0.0090   -2.0700 c2        1 3ZE     -0.267000
      5 N1          1.3390    0.0000    2.3750 n7        1 3ZE     -0.411000
      6 N3         -0.6630   -0.0010    1.1620 n2        1 3ZE     -0.091000
      7 OAF        -5.7740    0.7120   -7.8250 o         1 3ZE     -0.488500
      8 PAX        -4.5700    1.1770   -6.8610 p5        1 3ZE      0.965500
      9 OAG        -3.2850    0.2430   -7.1180 o         1 3ZE     -0.488500
     10 OAD        -4.2290    2.5830   -7.1790 o         1 3ZE     -0.488500
     11 CAI        -5.0710    1.0540   -5.1130 c3        1 3ZE     -0.488000
     12 CAO        -3.9840    1.6210   -4.2370 c3        1 3ZE      0.012000
     13 OAB        -3.8870    2.8210   -4.0930 o         1 3ZE     -0.284000
     14 NAV        -3.1210    0.7950   -3.6150 nx        1 3ZE      1.289000
     15 CAK        -2.0190    1.2130   -2.7290 c3        1 3ZE     -0.575000
     16 CAJ        -3.1250   -0.6730   -3.7010 DU        1 3ZE     -0.387000
     17 CAT        -1.9790   -1.1890   -2.8070 DU        1 3ZE     -0.274000
     18 OAE        -0.8040   -1.4340   -3.5820 oh        1 3ZE     -0.545000
     19 CAU        -1.7550   -0.0140   -1.8200 c3        1 3ZE     -0.244000
     20 N9         -0.3790   -0.0060   -1.3150 nx        1 3ZE      0.331000
     21 C2         -0.0230   -0.0010    2.3100 c3        1 3ZE     -0.147000
     22 O6          3.2950    0.0000    1.2900 o         1 3ZE     -0.289000
     23 N7          1.8020   -0.0000   -1.2940 n2        1 3ZE     -0.038000
     24 H1          0.4640   -0.0740   -1.0290 DU        1 3ZE      0.341000
     25 H2          1.2400   -0.0020    1.3790 DU        1 3ZE      0.330000
     26 H3          0.2520    0.0010    3.3950 DU        1 3ZE      0.073000
     27 H4         -1.7410    0.0120    3.5750 hn        1 3ZE      0.031000
     28 H7         -4.6240    0.7940   -4.1610 DU        1 3ZE      0.036000
     29 H8         -5.9870    1.6130   -4.9600 hc        1 3ZE      0.091000
     30 H9         -2.9250    0.8790   -3.2200 hx        1 3ZE     -0.148500
     31 H10        -2.3210    2.0640   -2.1310 hx        1 3ZE     -0.148500
     32 H11        -2.3900    0.1090   -3.5590 DU        1 3ZE      0.170000
     33 H12        -2.9580   -0.9810   -4.7270 hx        1 3ZE      0.199000
     34 H13        -3.0270   -1.1250   -3.0740 DU        1 3ZE      0.224000
     35 H14        -1.4750   -1.7280   -2.9880 DU        1 3ZE      0.323000
     36 H15        -1.4290   -0.7950   -2.4970 DU        1 3ZE      0.292000
     37 N2         -0.7450   -0.0010    3.4760 nz        1 3ZE      0.388000
     38 H23        -0.4290   -0.2250    4.3990 hn        1 3ZE      0.031000
@<TRIPOS>BOND
     1    1    2 1   
     2    1    6 1   
     3    1   20 1   
     4    1   24 1   
     5    2    3 1   
     6    2   23 1   
     7    3    5 1   
     8    3   22 1   
     9    3   25 1   
    10    4   20 1   
    11    4   23 1   
    12    4   24 1   
    13    5   21 1   
    14    5   25 1   
    15    6   21 1   
    16    7    8 1   
    17    8    9 1   
    18    8   10 1   
    19    8   11 1   
    20   11   12 1   
    21   11   28 1   
    22   11   29 1   
    23   12   13 1   
    24   12   14 1   
    25   12   28 1   
    26   14   15 1   
    27   14   16 1   
    28   14   32 1   
    29   15   19 1   
    30   15   30 1   
    31   15   31 1   
    32   16   17 1   
    33   16   32 1   
    34   16   33 1   
    35   16   34 1   
    36   17   18 1   
    37   17   19 1   
    38   17   34 1   
    39   17   35 1   
    40   17   36 1   
    41   18   35 1   
    42   19   20 1   
    43   19   36 1   
    44   20   24 1   
    45   21   26 1   
    46   21   37 1   
    47   26   37 1   
    48   27   37 1   
    49   37   38 1   
@<TRIPOS>SUBSTRUCTURE
     1 3ZE         1 TEMP              0 ****  ****    0 ROOT
