@<TRIPOS>MOLECULE
3ZF
   37    47     1     0     0
SMALL
bcc


@<TRIPOS>ATOM
      1 N1          0.0000    0.0000    0.0000 ns        1 3ZF     -0.302000
      2 C2          1.3630    0.0000    0.0000 DU        1 3ZF     -0.261000
      3 N2          2.0290    0.0010   -1.2000 nz        1 3ZF      0.147000
      4 N3          2.0580    0.0000    1.1150 n2        1 3ZF     -0.124000
      5 C4          1.4510   -0.0010    2.3080 c2        1 3ZF     -0.127000
      6 C5          0.0530   -0.0010    2.3740 c3        1 3ZF     -0.389000
      7 C6         -0.6820   -0.0010    1.1660 c2        1 3ZF      0.396000
      8 O6         -1.9020   -0.0010    1.1770 o         1 3ZF     -0.369000
      9 N7         -0.2870   -0.0010    3.6860 n7        1 3ZF     -0.016000
     10 C8          0.7930   -0.0020    4.4110 c2        1 3ZF     -0.463000
     11 N9          1.8920   -0.0010    3.6040 n3        1 3ZF      0.254000
     12 OAB         5.4500   -2.7330    6.4130 o         1 3ZF     -0.293000
     13 OAD         9.4990   -0.5060    7.1470 o         1 3ZF     -0.408167
     14 OAE         8.1020   -0.0840    4.9590 o         1 3ZF     -0.408167
     15 OAF         8.4940   -2.4170    5.8390 o         1 3ZF     -0.408167
     16 CAH         3.5950    1.2340    4.9300 DU        1 3ZF     -0.132000
     17 CAI         4.7670    0.7480    5.8080 c3        1 3ZF     -0.826000
     18 CAJ         6.7280   -0.9350    7.2520 c3        1 3ZF     -0.736000
     19 CAK         3.5630   -1.1660    5.0260 DU        1 3ZF     -0.363000
     20 CAT         3.2910   -0.0020    4.0420 c3        1 3ZF     -0.621000
     21 NAU         4.7180   -0.7220    5.8260 nx        1 3ZF      0.470000
     22 PAW         8.2560   -1.0190    6.2610 p5        1 3ZF      0.995500
     23 HN2         2.4190   -0.3100   -0.3330 DU        1 3ZF      0.191000
     24 HN2A        2.9530   -0.3620   -1.0770 hn        1 3ZF      0.011500
     25 HN1         0.7670    0.3490   -0.5400 DU        1 3ZF      0.335000
     26 H8          0.5030    0.0090    3.3680 DU        1 3ZF      0.346000
     27 HAH         2.6140    0.8580    5.1950 ha        1 3ZF      0.269000
     28 HAHA        2.7190    1.5190    5.5000 ha        1 3ZF      0.269000
     29 HAI         4.3950    1.4380    5.0600 DU        1 3ZF      0.278000
     30 HAIA        5.7190    1.1570    5.4910 hx        1 3ZF      0.178000
     31 HAJ         5.9450   -0.1910    7.1700 DU        1 3ZF      0.247500
     32 HAJA        6.2940    0.0560    7.2040 DU        1 3ZF      0.247500
     33 HAK         4.2650   -1.2130    5.8500 DU        1 3ZF      0.131000
     34 HAKA        3.7780   -2.1070    4.5340 hx        1 3ZF      0.151000
     35 HAT         2.9390   -0.5940    4.8780 DU        1 3ZF      0.240000
     36 CAO         5.5870   -1.5290    6.4670 c2        1 3ZF      0.077000
     37 H23         1.6110   -0.6570   -1.8280 hn        1 3ZF      0.011500
@<TRIPOS>BOND
     1    1    2 1   
     2    1    7 1   
     3    1   25 1   
     4    2    3 1   
     5    2    4 1   
     6    2   23 1   
     7    2   25 1   
     8    3   23 1   
     9    3   24 1   
    10    3   37 1   
    11    4    5 1   
    12    5    6 1   
    13    5   11 1   
    14    6    7 1   
    15    6    9 1   
    16    6   26 1   
    17    7    8 1   
    18    9   10 1   
    19    9   26 1   
    20   10   11 1   
    21   10   26 1   
    22   11   20 1   
    23   12   36 1   
    24   13   22 1   
    25   14   22 1   
    26   15   22 1   
    27   16   17 1   
    28   16   20 1   
    29   16   27 1   
    30   16   28 1   
    31   16   29 1   
    32   17   21 1   
    33   17   29 1   
    34   17   30 1   
    35   18   22 1   
    36   18   31 1   
    37   18   32 1   
    38   18   36 1   
    39   19   20 1   
    40   19   21 1   
    41   19   33 1   
    42   19   34 1   
    43   19   35 1   
    44   20   35 1   
    45   21   33 1   
    46   21   36 1   
    47   31   32 1   
@<TRIPOS>SUBSTRUCTURE
     1 3ZF         1 TEMP              0 ****  ****    0 ROOT
