@<TRIPOS>MOLECULE
3ZG
   41    40     1     0     0
SMALL
bcc


@<TRIPOS>ATOM
      1 C4         -1.4300    0.3430    1.1820 ca        1 3ZG     -0.135000
      2 C5         -0.2190    1.0150    1.0560 ca        1 3ZG     -0.106000
      3 C6          0.9280    0.5600    1.7070 ca        1 3ZG     -0.088000
      4 C7          3.6610    2.4900    1.0780 c1        1 3ZG      0.405800
      5 C8          2.9970   -1.4610    3.7250 c1        1 3ZG     -0.081500
      6 N2          4.6490    3.0990    0.8900 n1        1 3ZG     -0.849200
      7 C9          2.0140   -1.0650    3.1670 cg        1 3ZG     -0.159000
      8 C10         0.8650   -0.5920    2.5050 ca        1 3ZG      0.060000
      9 C11        -0.3490   -1.2830    2.6500 ca        1 3ZG     -0.111000
     10 C12        -7.6780    0.0270    3.5770 c3        1 3ZG      0.084000
     11 N3         -6.9230   -1.1850    3.8830 n         1 3ZG     -0.347000
     12 C13        -7.1950    1.2680    4.3080 c3        1 3ZG     -0.118100
     13 C14        -8.3570   -2.1580    5.6120 c2        1 3ZG     -0.176000
     14 C15        -7.1530   -1.8500    5.1130 c2        1 3ZG     -0.102400
     15 O1         -2.0610   -3.6400    2.6750 o         1 3ZG     -0.495100
     16 C2         -2.8900   -2.7820    2.3570 c         1 3ZG      0.638100
     17 N          -4.3230   -3.3770    2.2780 ny        1 3ZG     -0.667800
     18 C1         -5.1960   -2.9160    3.3880 c3        1 3ZG      0.019800
     19 C          -5.9590   -1.6260    3.0210 c         1 3ZG      0.650100
     20 O          -5.6820   -1.0570    1.9380 o         1 3ZG     -0.641100
     21 C3         -1.4970   -0.8130    1.9920 ca        1 3ZG     -0.014400
     22 H1         -2.3190    0.7240    0.6570 ha        1 3ZG      0.145000
     23 H2         -0.1650    1.9190    0.4280 ha        1 3ZG      0.159000
     24 H3         -3.5620   -0.9040    1.8430 hn        1 3ZG      0.372500
     25 H4          1.8850    1.1070    1.5900 ha        1 3ZG      0.198000
     26 H5          5.4630    3.6010    0.7350 hn        1 3ZG      0.448400
     27 H6          3.8700   -1.8100    4.2190 ha        1 3ZG      0.177500
     28 H7         -0.3780   -2.1910    3.2740 ha        1 3ZG      0.164000
     29 H10        -6.1480    1.5270    4.0190 hc        1 3ZG      0.057033
     30 H11        -7.8620    2.1200    4.0260 hc        1 3ZG      0.057033
     31 H12        -7.2380    1.1340    5.4150 hc        1 3ZG      0.057033
     32 H13        -8.4410   -2.6490    6.5920 ha        1 3ZG      0.147500
     33 H14        -9.3110   -1.9420    5.1120 ha        1 3ZG      0.147500
     34 H15        -6.2260   -2.0780    5.6760 h4        1 3ZG      0.136000
     35 H16        -5.9380   -3.7340    3.6260 hx        1 3ZG      0.129700
     36 H17        -4.2120   -4.3980    2.3290 hn        1 3ZG      0.472800
     37 H18        -4.5560   -2.7290    4.2990 hx        1 3ZG      0.129700
     38 N1         -2.7680   -1.4430    2.1480 ns        1 3ZG     -0.393100
     39 H8         -8.7540   -0.1730    3.8490 h1        1 3ZG      0.078700
     40 HN3        -4.7540   -3.1210    1.3780 hn        1 3ZG      0.472800
     41 H9         -7.6200    0.2040    2.4640 h1        1 3ZG      0.078700
@<TRIPOS>BOND
     1    1    2 ar  
     2    1   21 ar  
     3    1   22 1   
     4    2    3 ar  
     5    2   23 1   
     6    3    8 ar  
     7    3   25 1   
     8    4    6 3   
     9    5    7 3   
    10    5   27 1   
    11    6   26 1   
    12    7    8 1   
    13    8    9 ar  
    14    9   21 ar  
    15    9   28 1   
    16   10   11 1   
    17   10   12 1   
    18   10   39 1   
    19   10   41 1   
    20   11   14 1   
    21   11   19 1   
    22   12   29 1   
    23   12   30 1   
    24   12   31 1   
    25   13   14 2   
    26   13   32 1   
    27   13   33 1   
    28   14   34 1   
    29   15   16 2   
    30   16   17 1   
    31   16   38 1   
    32   17   18 1   
    33   17   36 1   
    34   17   40 1   
    35   18   19 1   
    36   18   35 1   
    37   18   37 1   
    38   19   20 2   
    39   21   38 1   
    40   24   38 1   
@<TRIPOS>SUBSTRUCTURE
     1 3ZG         1 TEMP              0 ****  ****    0 ROOT
