@<TRIPOS>MOLECULE
3ZG
   41    40     1     0     0
SMALL
bcc


@<TRIPOS>ATOM
      1 C4          0.3270    0.1900    0.2130 ca        1 3ZG     -0.139000
      2 C5          1.6330    0.4820   -0.1630 ca        1 3ZG     -0.103000
      3 C6          2.6830    0.3890    0.7510 ca        1 3ZG     -0.087000
      4 C7          5.6930    1.1850   -0.6110 c1        1 3ZG      0.404800
      5 C8          4.3710   -0.1870    3.7940 c1        1 3ZG     -0.075500
      6 N2          6.7670    1.4460   -1.0110 n1        1 3ZG     -0.848200
      7 C9          3.4730   -0.1030    3.0070 cg        1 3ZG     -0.162000
      8 C10         2.4230   -0.0030    2.0740 ca        1 3ZG      0.064000
      9 C11         1.1100   -0.2970    2.4750 ca        1 3ZG     -0.105000
     10 C12       -10.4270   -1.3280    3.3860 c3        1 3ZG      0.136800
     11 N3         -8.9870   -1.4440    3.6220 n3        1 3ZG     -0.797200
     12 C13       -11.1840   -1.5830    4.7030 c3        1 3ZG     -0.106400
     13 C14       -10.1340   -2.0520    5.7040 c3        1 3ZG     -0.097400
     14 C15        -8.8280   -2.1870    4.8850 c3        1 3ZG      0.220700
     15 O1         -0.9410   -2.0070    3.6430 o         1 3ZG     -0.475100
     16 C2         -1.6370   -1.3700    2.8490 c         1 3ZG      0.639100
     17 N          -3.1390   -1.6520    3.0340 n4        1 3ZG     -0.751400
     18 C1         -7.6280   -1.7920    5.6880 c2        1 3ZG     -0.380300
     19 C          -6.4460   -1.6620    5.1460 c1        1 3ZG      0.578600
     20 O          -5.3630   -1.5350    4.6380 o         1 3ZG     -0.532500
     21 C3          0.0630   -0.1970    1.5460 ca        1 3ZG     -0.015400
     22 H1         -0.4810    0.2720   -0.5290 ha        1 3ZG      0.139000
     23 H2          1.8420    0.7900   -1.2000 ha        1 3ZG      0.160000
     24 H3         -1.9820   -0.0480    1.3060 hn        1 3ZG      0.344500
     25 H4          3.7190    0.6230    0.4310 ha        1 3ZG      0.200000
     26 H5          7.6530    1.6620   -1.3400 hn        1 3ZG      0.449400
     27 H6          5.1690   -0.2600    4.4910 ha        1 3ZG      0.178500
     28 H7          0.9250   -0.6120    3.5160 ha        1 3ZG      0.164000
     29 H10        -8.5870   -0.5260    3.7160 hn        1 3ZG      0.340800
     30 H11       -11.9730   -2.3590    4.5520 hc        1 3ZG      0.060200
     31 H12       -11.6860   -0.6510    5.0570 hc        1 3ZG      0.060200
     32 H13       -10.0160   -1.3110    6.5320 hc        1 3ZG      0.058200
     33 H14       -10.4070   -3.0350    6.1570 hc        1 3ZG      0.058200
     34 H15        -8.7070   -3.2730    4.5900 h1        1 3ZG      0.076700
     35 H16        -3.2400   -2.3020    3.8290 hn        1 3ZG      0.473133
     36 H17        -3.6660   -0.8020    3.2610 hn        1 3ZG      0.473133
     37 H18        -7.7610   -1.6490    6.7730 ha        1 3ZG      0.205000
     38 N1         -1.2950   -0.4310    1.9190 n         1 3ZG     -0.404100
     39 H8        -10.6860   -0.3240    2.9600 h1        1 3ZG      0.059700
     40 HN3        -3.5400   -2.0840    2.2010 hn        1 3ZG      0.473133
     41 H9        -10.7040   -2.1090    2.6260 h1        1 3ZG      0.059700
@<TRIPOS>BOND
     1    1    2 ar  
     2    1   21 ar  
     3    1   22 1   
     4    2    3 ar  
     5    2   23 1   
     6    3    8 ar  
     7    3   25 1   
     8    4    6 3   
     9    5    7 3   
    10    5   27 1   
    11    6   26 1   
    12    7    8 1   
    13    8    9 ar  
    14    9   21 ar  
    15    9   28 1   
    16   10   11 1   
    17   10   12 1   
    18   10   39 1   
    19   10   41 1   
    20   11   14 1   
    21   11   29 1   
    22   12   13 1   
    23   12   30 1   
    24   12   31 1   
    25   13   14 1   
    26   13   32 1   
    27   13   33 1   
    28   14   18 1   
    29   14   34 1   
    30   15   16 2   
    31   16   17 1   
    32   16   38 1   
    33   17   35 1   
    34   17   36 1   
    35   17   40 1   
    36   18   19 2   
    37   18   37 1   
    38   19   20 2   
    39   21   38 1   
    40   24   38 1   
@<TRIPOS>SUBSTRUCTURE
     1 3ZG         1 TEMP              0 ****  ****    0 ROOT
