@<TRIPOS>MOLECULE
3ZJ
   78    75     1     0     0
SMALL
bcc


@<TRIPOS>ATOM
      1 C1          0.2670    0.1580    1.1390 c2        1 3ZJ      0.338000
      2 C3          2.5340    0.5670    2.0620 c3        1 3ZJ     -0.027000
      3 C11         5.7130   -0.9160    8.5410 c2        1 3ZJ      0.110000
      4 C13        -2.8290   -1.3510    3.1990 c2        1 3ZJ      0.017000
      5 C14        -0.3190   -0.9890    3.2900 c3        1 3ZJ     -0.199000
      6 C15        -2.5920   -0.4670   -0.8890 c2        1 3ZJ      0.342000
      7 C16        -1.5010   -1.8040    3.5150 c1        1 3ZJ     -0.052000
      8 C17         4.4160   -0.9040    1.2320 c3        1 3ZJ     -0.223000
      9 C18         4.7460    0.2270    4.0720 c2        1 3ZJ     -0.068000
     10 C20         6.9050   -0.3860    8.7310 c1        1 3ZJ     -0.206000
     11 C22        -4.5790    3.1070   -0.5080 c3        1 3ZJ     -0.222500
     12 C24        -2.6790    1.7480    2.0710 cv        1 3ZJ      0.025000
     13 C25        -4.2660    3.4130   -1.9420 c3        1 3ZJ     -0.222500
     14 C26        -2.2730    0.3480   -2.0320 c3        1 3ZJ     -0.325000
     15 C27        -2.5710   -1.9100   -0.9220 c3        1 3ZJ     -0.325000
     16 C28         8.4740    1.9620    6.4560 c2        1 3ZJ      0.003000
     17 C29         8.0330    0.1200    8.9040 c1        1 3ZJ      0.138000
     18 C30        -3.7260   -3.3130    4.1660 c3        1 3ZJ     -0.065000
     19 N2          1.6200    0.2610    0.9910 ns        1 3ZJ     -0.348000
     20 C4          4.0090    0.4920    1.6450 c3        1 3ZJ     -0.118000
     21 N5          6.5700    3.6700    1.8370 n8        1 3ZJ     -0.807000
     22 C6         -0.3740    0.3530    2.5130 c3        1 3ZJ     -0.065000
     23 C7          4.9010    1.0150    2.7840 c3        1 3ZJ      0.057000
     24 C8         -1.7610    0.7840    2.3860 cv        1 3ZJ     -0.226000
     25 C9         -2.9110   -0.1010    2.7000 cv        1 3ZJ      0.024000
     26 N10         4.9980    0.5980    5.2640 n2        1 3ZJ     -0.255000
     27 O12        -0.4220   -0.1230    0.1170 o         1 3ZJ     -0.507000
     28 O19        -3.8330    0.9100    2.3150 os        1 3ZJ     -0.139000
     29 O23        -5.2690    6.4300   -3.1530 o         1 3ZJ     -0.312000
     30 C31        -5.9330    7.3340   -3.6570 c2        1 3ZJ      0.153000
     31 C32         9.6370    2.0980    7.1310 c2        1 3ZJ     -0.259000
     32 C33         9.2570    0.6190    9.1620 c2        1 3ZJ     -0.194000
     33 C34         9.9820    1.5000    8.3690 c2        1 3ZJ      0.172000
     34 S35         5.7740    3.5990    3.2040 s4        1 3ZJ      1.641000
     35 O36         6.6160    2.8660    4.1630 o         1 3ZJ     -0.854000
     36 O37         4.5840    2.3700    2.9890 os        1 3ZJ     -0.605000
     37 H1          2.3540   -0.1510    2.9150 h1        1 3ZJ      0.099000
     38 H2          2.3340    1.6140    2.4390 h1        1 3ZJ      0.099000
     39 H3          5.1120   -0.6890    7.6390 ha        1 3ZJ      0.184000
     40 H4          5.2680   -1.6100    9.2780 ha        1 3ZJ      0.184000
     41 H5          0.4510   -1.6650    2.8170 hc        1 3ZJ      0.153500
     42 H6         -2.8590    0.0400    0.0690 ha        1 3ZJ      0.185000
     43 H7          0.0600   -0.7730    4.3370 hc        1 3ZJ      0.153500
     44 H8          4.0890   -1.6630    1.9830 hc        1 3ZJ      0.088333
     45 H9          3.9570   -1.1690    0.2480 hc        1 3ZJ      0.088333
     46 H10         5.5260   -0.9720    1.1220 hc        1 3ZJ      0.088333
     47 H11         4.4040   -0.8190    3.9220 h4        1 3ZJ      0.147000
     48 H12        -4.0800    2.1600   -0.1760 hc        1 3ZJ      0.074667
     49 H13        -5.6800    2.9880   -0.3600 hc        1 3ZJ      0.074667
     50 H14        -4.2280    3.9330    0.1570 hc        1 3ZJ      0.074667
     51 H15        -2.8190    2.7770    1.7680 h4        1 3ZJ      0.222000
     52 H16        -3.1650    3.5110   -2.1010 hc        1 3ZJ      0.074667
     53 H17        -4.6550    2.6110   -2.6160 hc        1 3ZJ      0.074667
     54 H18        -1.2130    0.7350   -1.8650 hc        1 3ZJ      0.182667
     55 H19        -2.2890   -0.2000   -3.0090 hc        1 3ZJ      0.182667
     56 H20        -2.9290    1.2660   -2.0940 hc        1 3ZJ      0.182667
     57 H21        -2.5990   -2.3430   -1.9560 hc        1 3ZJ      0.182667
     58 H22        -3.3940   -2.3600   -0.2990 hc        1 3ZJ      0.182667
     59 H23        -1.5930   -2.2310   -0.4380 hc        1 3ZJ      0.182667
     60 H24         8.2950    2.4750    5.4920 ha        1 3ZJ      0.160500
     61 H25         7.6320    1.3480    6.8130 ha        1 3ZJ      0.160500
     62 H26        -3.3740   -3.0430    5.1890 h1        1 3ZJ      0.100000
     63 H27        -2.9840   -3.9740    3.6610 h1        1 3ZJ      0.100000
     64 H28        -4.7440   -3.7790    4.1940 h1        1 3ZJ      0.100000
     65 H29         4.1690    1.1890    0.7720 hc        1 3ZJ      0.109000
     66 H30         6.2890    4.2860    1.1130 hn        1 3ZJ      0.242500
     67 H31         5.9810    0.9140    2.4620 h1        1 3ZJ      0.096000
     68 H32         0.2120    1.1300    3.0860 hc        1 3ZJ      0.134000
     69 H33         5.3150    1.5410    5.3790 hn        1 3ZJ      0.160000
     70 H35        -4.7430    4.3800   -2.2500 hc        1 3ZJ      0.074667
     71 H36        -6.9960    7.1940   -3.9460 h4        1 3ZJ      0.080000
     72 H37        -5.5060    8.3410   -3.8500 h4        1 3ZJ      0.080000
     73 H38        10.4260    2.7480    6.6950 ha        1 3ZJ      0.173000
     74 H39        10.9880    1.7790    8.7620 ha        1 3ZJ      0.175000
     75 H40         9.7340    0.2840   10.1130 ha        1 3ZJ      0.196000
     76 H211        2.0040    0.1150    0.0820 hn        1 3ZJ      0.245000
     77 H52         7.3670    3.1360    1.5900 hn        1 3ZJ      0.242500
     78 O21        -3.9430   -2.1260    3.3900 os        1 3ZJ     -0.188000
@<TRIPOS>BOND
     1    1   19 1   
     2    1   22 1   
     3    1   27 1   
     4    2   19 1   
     5    2   20 1   
     6    2   37 1   
     7    2   38 1   
     8    3   10 1   
     9    3   39 1   
    10    3   40 1   
    11    4    7 1   
    12    4   25 1   
    13    4   78 1   
    14    5    7 1   
    15    5   22 1   
    16    5   41 1   
    17    5   43 1   
    18    6   14 1   
    19    6   15 1   
    20    6   42 1   
    21    8   20 1   
    22    8   44 1   
    23    8   45 1   
    24    8   46 1   
    25    9   23 1   
    26    9   26 1   
    27    9   47 1   
    28   10   17 1   
    29   11   13 1   
    30   11   48 1   
    31   11   49 1   
    32   11   50 1   
    33   12   24 1   
    34   12   28 1   
    35   12   51 1   
    36   13   52 1   
    37   13   53 1   
    38   13   70 1   
    39   14   54 1   
    40   14   55 1   
    41   14   56 1   
    42   15   57 1   
    43   15   58 1   
    44   15   59 1   
    45   16   31 1   
    46   16   60 1   
    47   16   61 1   
    48   17   32 1   
    49   18   62 1   
    50   18   63 1   
    51   18   64 1   
    52   18   78 1   
    53   19   76 1   
    54   20   23 1   
    55   20   65 1   
    56   21   34 1   
    57   21   66 1   
    58   21   77 1   
    59   22   24 1   
    60   22   68 1   
    61   23   36 1   
    62   23   67 1   
    63   24   25 1   
    64   25   28 1   
    65   26   69 1   
    66   29   30 1   
    67   30   71 1   
    68   30   72 1   
    69   31   33 1   
    70   31   73 1   
    71   32   33 1   
    72   32   75 1   
    73   33   74 1   
    74   34   35 1   
    75   34   36 1   
@<TRIPOS>SUBSTRUCTURE
     1 3ZJ         1 TEMP              0 ****  ****    0 ROOT
