@<TRIPOS>MOLECULE
3ZJ
   78    79     1     0     0
SMALL
bcc


@<TRIPOS>ATOM
      1 C1         -0.1550    0.9410    1.6110 c         1 3ZJ      0.589700
      2 C3          2.1260    0.4370    2.3980 c3        1 3ZJ      0.108800
      3 C11         8.0200    0.4560    4.9390 c3        1 3ZJ     -0.357800
      4 C13        -4.1080   -0.6250    1.8500 ca        1 3ZJ      0.207100
      5 C14        -1.7380   -0.9080    2.2690 ca        1 3ZJ     -0.066000
      6 C15         1.3940   -0.1730    0.0250 c3        1 3ZJ      0.135500
      7 C16        -3.0410   -1.3910    2.3380 ca        1 3ZJ     -0.208000
      8 C17         2.8360   -1.8390    3.3440 c3        1 3ZJ      0.150800
      9 C18         4.0530   -0.6230    4.9560 c3        1 3ZJ      0.148800
     10 C20         9.1070    1.1880    5.6570 ca        1 3ZJ     -0.207300
     11 C22        -6.1510    3.1740    0.0140 c3        1 3ZJ     -0.093400
     12 C24        -4.7630    2.6790    0.3710 c3        1 3ZJ      0.125400
     13 C25        -6.0700    4.6030   -0.4950 c3        1 3ZJ      0.133400
     14 C26         2.3850    0.8690   -0.4660 c3        1 3ZJ     -0.127100
     15 C27         1.8690   -1.5790   -0.3200 c3        1 3ZJ     -0.127100
     16 C28         8.9070    1.6210    6.9760 ca        1 3ZJ     -0.093500
     17 C29        10.3550    1.3680    5.0420 ca        1 3ZJ     -0.093500
     18 C30        -5.7280   -2.2780    2.4170 c3        1 3ZJ      0.098700
     19 N2          1.0380   -0.0360    1.4970 n4        1 3ZJ     -0.607200
     20 C4          3.2760   -0.5370    2.6340 c3        1 3ZJ     -0.120700
     21 N5          5.6990    0.0110    3.1720 n3        1 3ZJ     -1.008800
     22 C6         -1.4760    0.3460    1.7080 ca        1 3ZJ     -0.226600
     23 C7          4.3050    0.1240    3.6090 c3        1 3ZJ      0.138500
     24 C8         -2.5450    1.1450    1.2300 ca        1 3ZJ     -0.127000
     25 C9         -3.8470    0.6720    1.2900 ca        1 3ZJ      0.122100
     26 N10         3.5660   -1.9440    4.5980 n3        1 3ZJ     -0.822200
     27 O12         0.1570    2.1240    1.5640 o         1 3ZJ     -0.448100
     28 O19        -4.9590    1.3330    0.8450 os        1 3ZJ     -0.283900
     29 O23        -7.4030    4.9750   -0.8270 os        1 3ZJ     -0.413600
     30 C31        -7.4960    6.3060   -1.3100 c3        1 3ZJ      0.112700
     31 C32         9.9370    2.2650    7.6570 ca        1 3ZJ     -0.112500
     32 C33        11.3790    2.0130    5.7300 ca        1 3ZJ     -0.112500
     33 C34        11.1730    2.4630    7.0360 ca        1 3ZJ     -0.057000
     34 S35         7.1360    1.5750    4.1350 s4        1 3ZJ      1.571500
     35 O36         6.1510    2.2150    4.8140 o         1 3ZJ     -0.413900
     36 O37         7.5780    1.9810    2.9180 o         1 3ZJ     -0.413900
     37 H1          2.5260    1.4050    1.9730 hx        1 3ZJ      0.110200
     38 H2          1.6410    0.6750    3.3930 hx        1 3ZJ      0.110200
     39 H3          8.5070   -0.3310    4.2840 h1        1 3ZJ      0.180200
     40 H4          7.4440   -0.1510    5.7010 h1        1 3ZJ      0.180200
     41 H5         -0.9430   -1.5330    2.7030 ha        1 3ZJ      0.118000
     42 H6          0.4110   -0.0050   -0.5240 hx        1 3ZJ      0.113700
     43 H7         -3.2330   -2.3770    2.7890 ha        1 3ZJ      0.170000
     44 H8          1.7200   -1.8500    3.4990 h1        1 3ZJ      0.055700
     45 H9          3.1040   -2.7360    2.7180 h1        1 3ZJ      0.055700
     46 H10         4.9850   -0.7430    5.5720 h1        1 3ZJ      0.066200
     47 H11         3.3220   -0.0130    5.5590 h1        1 3ZJ      0.066200
     48 H12        -6.6060    2.5150   -0.7710 hc        1 3ZJ      0.083700
     49 H13        -6.8200    3.1270    0.9130 hc        1 3ZJ      0.083700
     50 H14        -4.0900    2.6580   -0.5260 h1        1 3ZJ      0.043200
     51 H15        -4.3010    3.2970    1.1850 h1        1 3ZJ      0.043200
     52 H16        -5.6670    5.2920    0.2950 h1        1 3ZJ      0.025700
     53 H17        -5.4190    4.6720   -1.4070 h1        1 3ZJ      0.025700
     54 H18         2.4390    0.7960   -1.5830 hc        1 3ZJ      0.074533
     55 H19         2.0530    1.9050   -0.2030 hc        1 3ZJ      0.074533
     56 H20         3.4060    0.6890   -0.0550 hc        1 3ZJ      0.074533
     57 H21         2.8330   -1.8340    0.1800 hc        1 3ZJ      0.074533
     58 H22         1.1040   -2.3490   -0.0510 hc        1 3ZJ      0.074533
     59 H23         2.0270   -1.6270   -1.4280 hc        1 3ZJ      0.074533
     60 H24         7.9440    1.4470    7.4820 ha        1 3ZJ      0.146000
     61 H25        10.5350    0.9950    4.0210 ha        1 3ZJ      0.146000
     62 H26        -6.8430   -2.3280    2.2980 h1        1 3ZJ      0.069033
     63 H27        -5.2280   -3.0900    1.8370 h1        1 3ZJ      0.069033
     64 H28        -5.4400   -2.3120    3.4950 h1        1 3ZJ      0.069033
     65 H29         3.7570   -0.7890    1.6520 hc        1 3ZJ      0.084700
     66 H30         5.7690    0.2040    2.1830 hn        1 3ZJ      0.411800
     67 H31         4.0900    1.2240    3.7380 h1        1 3ZJ      0.105700
     68 H32        -2.3270    2.1440    0.8190 ha        1 3ZJ      0.171000
     69 H33         3.0280   -2.3700    5.3280 hn        1 3ZJ      0.410800
     70 H35        -6.8940    6.4290   -2.2440 h1        1 3ZJ      0.041700
     71 H36        -8.5860    6.4440   -1.5230 h1        1 3ZJ      0.041700
     72 H37        -7.1510    7.0320   -0.5340 h1        1 3ZJ      0.041700
     73 H38         9.7780    2.6090    8.6930 ha        1 3ZJ      0.171500
     74 H39        12.3590    2.1580    5.2440 ha        1 3ZJ      0.171500
     75 H40        11.9890    2.9680    7.5810 ha        1 3ZJ      0.173000
     76 H211        0.7360   -0.9650    1.8130 hn        1 3ZJ      0.445800
     77 H52         6.0330   -0.9290    3.3340 hn        1 3ZJ      0.411800
     78 O21        -5.4130   -0.9980    1.8580 os        1 3ZJ     -0.262900
@<TRIPOS>BOND
     1    1   19 1   
     2    1   22 1   
     3    1   27 2   
     4    2   19 1   
     5    2   20 1   
     6    2   37 1   
     7    2   38 1   
     8    3   10 1   
     9    3   34 1   
    10    3   39 1   
    11    3   40 1   
    12    4    7 ar  
    13    4   25 ar  
    14    4   78 1   
    15    5    7 ar  
    16    5   22 ar  
    17    5   41 1   
    18    6   14 1   
    19    6   15 1   
    20    6   19 1   
    21    6   42 1   
    22    7   43 1   
    23    8   20 1   
    24    8   26 1   
    25    8   44 1   
    26    8   45 1   
    27    9   23 1   
    28    9   26 1   
    29    9   46 1   
    30    9   47 1   
    31   10   16 ar  
    32   10   17 ar  
    33   11   12 1   
    34   11   13 1   
    35   11   48 1   
    36   11   49 1   
    37   12   28 1   
    38   12   50 1   
    39   12   51 1   
    40   13   29 1   
    41   13   52 1   
    42   13   53 1   
    43   14   54 1   
    44   14   55 1   
    45   14   56 1   
    46   15   57 1   
    47   15   58 1   
    48   15   59 1   
    49   16   31 ar  
    50   16   60 1   
    51   17   32 ar  
    52   17   61 1   
    53   18   62 1   
    54   18   63 1   
    55   18   64 1   
    56   18   78 1   
    57   19   76 1   
    58   20   23 1   
    59   20   65 1   
    60   21   23 1   
    61   21   66 1   
    62   21   77 1   
    63   22   24 ar  
    64   23   67 1   
    65   24   25 ar  
    66   24   68 1   
    67   25   28 1   
    68   26   69 1   
    69   29   30 1   
    70   30   70 1   
    71   30   71 1   
    72   30   72 1   
    73   31   33 ar  
    74   31   73 1   
    75   32   33 ar  
    76   32   74 1   
    77   33   75 1   
    78   34   35 1   
    79   34   36 1   
@<TRIPOS>SUBSTRUCTURE
     1 3ZJ         1 TEMP              0 ****  ****    0 ROOT
