@<TRIPOS>MOLECULE
3ZK
   78    73     1     0     0
SMALL
bcc


@<TRIPOS>ATOM
      1 C2        -91.0410   23.7480  -82.3570 c2        1 3ZK      0.359000
      2 C13       -87.6000   22.9360  -81.1170 ca        1 3ZK      0.068000
      3 C16       -87.1950   21.9600  -82.0600 ca        1 3ZK     -0.029000
      4 C17       -89.3160   22.1460  -83.1970 ca        1 3ZK     -0.098000
      5 C19       -88.0550   21.5630  -83.0840 ca        1 3ZK     -0.097000
      6 C20       170.6410  -43.5350  162.0510 ca        1 3ZK      0.020000
      7 C21       169.5970  -45.3430  160.8300 ca        1 3ZK      0.020000
      8 C22       -92.5070   23.3490  -86.7790 c2        1 3ZK     -0.130000
      9 C23       174.2930  -45.3150  157.7550 c2        1 3ZK     -0.106000
     10 C25       170.1840  -44.0710  163.2400 ca        1 3ZK     -0.160000
     11 C26       169.1370  -45.8820  162.0170 ca        1 3ZK     -0.160000
     12 C27       169.4220  -45.2540  163.2440 ca        1 3ZK      0.091000
     13 N3        -91.6870   24.1340  -83.4600 n7        1 3ZK     -0.253000
     14 N4        172.5510  -44.4020  159.3040 ny        1 3ZK     -0.451000
     15 C5        -91.1690   24.0750  -84.8210 c3        1 3ZK     -0.020000
     16 C6        -91.8480   23.0430  -85.6630 c2        1 3ZK     -0.246000
     17 C7        -89.7120   23.1290  -82.2810 ca        1 3ZK     -0.130000
     18 C8        172.9980  -44.5390  157.9050 c3        1 3ZK     -0.171000
     19 C9        170.3670  -44.1550  160.8070 ca        1 3ZK     -1.023000
     20 C10       -88.8670   23.5150  -81.2240 ca        1 3ZK     -0.127000
     21 O11       171.2630  -42.1890  159.5230 o         1 3ZK     -0.849500
     22 O12       170.1950  -43.9700  158.3070 o         1 3ZK     -0.849500
     23 N14       174.5970  -46.1780  156.8760 n2        1 3ZK     -0.142000
     24 O15       -91.5820   23.9580  -81.1330 oh        1 3ZK     -0.206000
     25 O30       -83.3340   24.3910  -78.2720 oh        1 3ZK     -0.138000
     26 C31       -86.9820   24.3320  -79.2800 c3        1 3ZK     -0.113000
     27 C32       -84.7860   20.9010  -76.5100 c2        1 3ZK     -0.229500
     28 C33       -94.1730   27.3930  -81.8920 c3        1 3ZK     -0.143000
     29 C34       -94.5600   24.8040  -82.1140 c1        1 3ZK     -0.309000
     30 C36       -85.2090   21.0830  -81.0360 c1        1 3ZK      0.024000
     31 C37       -84.2830   24.3030  -77.4150 c1        1 3ZK     -0.055000
     32 H1        -89.9960   21.8040  -83.9940 ha        1 3ZK      0.151000
     33 H2        -92.4720   24.3750  -81.1510 ho        1 3ZK      0.279000
     34 H3        -87.7240   20.7930  -83.8010 ha        1 3ZK      0.181000
     35 H4        171.2190  -42.5900  162.0640 ha        1 3ZK      0.166500
     36 H5        169.3430  -45.8360  159.8720 ha        1 3ZK      0.166500
     37 H6        -92.9560   22.5740  -87.4180 ha        1 3ZK      0.138000
     38 H7        -92.6350   24.3800  -87.1420 ha        1 3ZK      0.138000
     39 H8        -91.7360   21.9980  -85.3290 ha        1 3ZK      0.141000
     40 H9        173.9180  -46.4260  156.1860 hn        1 3ZK      0.168000
     41 H10       170.4070  -43.5650  164.1960 ha        1 3ZK      0.176000
     42 H11       168.5350  -46.8070  162.0070 ha        1 3ZK      0.176000
     43 H12       -86.0420   24.4200  -78.6530 h1        1 3ZK      0.113333
     44 H13       -85.5400   22.3360  -77.9030 ha        1 3ZK      0.117250
     45 H14       172.5000  -45.3240  159.7300 hn        1 3ZK      0.236000
     46 H15       -90.0580   23.8740  -84.7940 h1        1 3ZK      0.135000
     47 H16       -91.3240   25.1070  -85.2590 h1        1 3ZK      0.135000
     48 H17       173.1620  -43.5010  157.4850 hx        1 3ZK      0.157000
     49 H18       172.1590  -45.0260  157.3220 hx        1 3ZK      0.157000
     50 H19       -89.2080   24.2620  -80.4900 ha        1 3ZK      0.168000
     51 H20       175.0810  -45.0480  158.4940 h4        1 3ZK      0.163000
     52 H22       -87.1560   25.2590  -79.8760 h1        1 3ZK      0.113333
     53 H23       -87.8690   24.0930  -78.6450 h1        1 3ZK      0.113333
     54 H24       -83.9620   20.2440  -76.1970 ha        1 3ZK      0.117250
     55 H25       -85.6760   20.8540  -75.8670 ha        1 3ZK      0.117250
     56 H26       -93.5400   27.6300  -80.9980 hc        1 3ZK      0.116333
     57 H27       -93.6740   27.8080  -82.8060 hc        1 3ZK      0.116333
     58 H28       -95.1620   27.9120  -81.7670 hc        1 3ZK      0.116333
     59 H29       -94.8270   23.7780  -82.1870 ha        1 3ZK      0.237000
     60 H30       -91.7460   24.4940  -78.8580 ha        1 3ZK      0.005000
     61 H31       -91.0790   24.3950  -78.9340 ha        1 3ZK      0.005000
     62 H32       168.8020  -46.9260  164.4480 hc        1 3ZK      0.122667
     63 H33       169.5890  -45.5680  165.3660 hc        1 3ZK      0.122667
     64 H34       167.9010  -45.3780  164.7300 hc        1 3ZK      0.122667
     65 H35       -84.2960   23.1520  -80.0160 ha        1 3ZK      0.005000
     66 H36       -84.0920   23.1520  -80.6640 ha        1 3ZK      0.005000
     67 H37       -85.5660   21.1840  -79.9930 ha        1 3ZK      0.082000
     68 H38       -84.0340   24.1090  -76.3490 ha        1 3ZK      0.031000
     69 H39       -83.8240   21.7280  -78.2250 ha        1 3ZK      0.117250
     70 H40       -82.4160   24.2740  -77.9380 ho        1 3ZK      0.166000
     71 O24       -86.6840   23.2310  -80.1400 os        1 3ZK     -0.203000
     72 C18       -94.3790   25.9860  -82.0140 c1        1 3ZK     -0.118000
     73 S1        170.8230  -43.4910  159.4360 s6        1 3ZK      2.838000
     74 C29       -84.7120   21.6860  -77.5770 c2        1 3ZK     -0.229500
     75 H311      -92.6330   24.4790  -83.3780 hn        1 3ZK      0.273000
     76 H42       173.2500  -43.8700  159.8200 hn        1 3ZK      0.236000
     77 O28       -85.8900   21.4010  -82.0610 os        1 3ZK     -0.012000
     78 C35       168.9120  -45.8150  164.5100 c3        1 3ZK     -0.224000
@<TRIPOS>BOND
     1    1   13 1   
     2    1   17 1   
     3    1   24 1   
     4    2    3 1   
     5    2   20 1   
     6    2   71 1   
     7    3    5 1   
     8    3   77 1   
     9    4    5 1   
    10    4   17 1   
    11    4   32 1   
    12    5   34 1   
    13    6   10 1   
    14    6   19 1   
    15    6   35 1   
    16    7   11 1   
    17    7   19 1   
    18    7   36 1   
    19    8   16 1   
    20    8   37 1   
    21    8   38 1   
    22    9   18 1   
    23    9   23 1   
    24    9   51 1   
    25   10   12 1   
    26   10   41 1   
    27   11   12 1   
    28   11   42 1   
    29   12   78 1   
    30   13   15 1   
    31   13   75 1   
    32   14   18 1   
    33   14   45 1   
    34   14   73 1   
    35   14   76 1   
    36   15   16 1   
    37   15   46 1   
    38   15   47 1   
    39   16   39 1   
    40   17   20 1   
    41   18   48 1   
    42   18   49 1   
    43   19   73 1   
    44   20   50 1   
    45   21   73 1   
    46   22   73 1   
    47   23   40 1   
    48   24   33 1   
    49   25   31 1   
    50   25   70 1   
    51   26   43 1   
    52   26   52 1   
    53   26   53 1   
    54   26   71 1   
    55   27   54 1   
    56   27   55 1   
    57   27   74 1   
    58   28   56 1   
    59   28   57 1   
    60   28   58 1   
    61   28   72 1   
    62   29   59 1   
    63   29   72 1   
    64   30   67 1   
    65   30   77 1   
    66   31   68 1   
    67   44   74 1   
    68   60   61 1   
    69   62   78 1   
    70   63   78 1   
    71   64   78 1   
    72   65   66 1   
    73   69   74 1   
@<TRIPOS>SUBSTRUCTURE
     1 3ZK         1 TEMP              0 ****  ****    0 ROOT
