@<TRIPOS>MOLECULE
3ZK
   78    79     1     0     0
SMALL
bcc


@<TRIPOS>ATOM
      1 C2         -0.0760    0.6200    1.6620 c         1 3ZK      0.589700
      2 C13        -3.7710    0.9330    1.3760 ca        1 3ZK      0.122100
      3 C16        -4.2130   -0.3840    1.7420 ca        1 3ZK      0.203100
      4 C17        -1.9080   -1.0570    2.0640 ca        1 3ZK     -0.069000
      5 C19        -3.2660   -1.3570    2.0880 ca        1 3ZK     -0.206000
      6 C20         8.7880   -1.1980    4.7450 ca        1 3ZK      0.037500
      7 C21         7.3130   -1.8590    6.5530 ca        1 3ZK      0.037500
      8 C22         2.1510   -3.0610    2.4810 c3        1 3ZK      0.146800
      9 C23         3.5650   -2.9950    4.3590 c3        1 3ZK      0.146800
     10 C25         9.7640   -2.0390    5.2340 ca        1 3ZK     -0.165500
     11 C26         8.2880   -2.7000    7.0420 ca        1 3ZK     -0.165500
     12 C27         9.5380   -2.8050    6.3960 ca        1 3ZK      0.122700
     13 N3          0.9440   -0.4830    1.3040 n4        1 3ZK     -0.608200
     14 N4          5.2830   -1.4780    3.2780 n3        1 3ZK     -0.997800
     15 C5          1.9940   -0.5130    2.3620 c3        1 3ZK      0.113800
     16 C6          2.9200   -1.7240    2.3450 c3        1 3ZK     -0.139700
     17 C7         -1.4720    0.2180    1.6910 ca        1 3ZK     -0.226600
     18 C8          3.8670   -1.6680    3.5820 c3        1 3ZK      0.112500
     19 C9          7.5200   -1.0690    5.3850 ca        1 3ZK     -0.648500
     20 C10        -2.4140    1.2230    1.3610 ca        1 3ZK     -0.127000
     21 O11         6.7830    0.7560    3.8500 o         1 3ZK     -0.438900
     22 O12         5.3270    0.1070    5.6120 o         1 3ZK     -0.438900
     23 N14         2.7510   -3.8630    3.5300 n3        1 3ZK     -0.787200
     24 O15         0.4140    1.7260    1.8480 o         1 3ZK     -0.445100
     25 O30        -6.6770    5.9700    0.0260 os        1 3ZK     -0.413600
     26 C31        -4.3920    3.1660    0.7970 c3        1 3ZK      0.125400
     27 C32        -5.4120    5.3670    0.2730 c3        1 3ZK      0.132400
     28 C33         2.6190    0.6870   -0.2160 c3        1 3ZK     -0.127100
     29 C34         1.7050   -1.5570   -0.8470 c3        1 3ZK     -0.127100
     30 C36        -6.0510   -1.8580    2.0960 c3        1 3ZK      0.098700
     31 C37        -6.5790    7.3610   -0.2370 c3        1 3ZK      0.112700
     32 H1         -1.2050   -1.8420    2.3850 ha        1 3ZK      0.122000
     33 H2          0.5470    0.2500   -0.6400 hx        1 3ZK      0.110700
     34 H3         -3.5960   -2.3630    2.3930 ha        1 3ZK      0.170000
     35 H4          8.9910   -0.5910    3.8410 ha        1 3ZK      0.171500
     36 H5          6.3440   -1.7770    7.0830 ha        1 3ZK      0.171500
     37 H6          1.0850   -2.8680    2.7930 h1        1 3ZK      0.063200
     38 H7          2.1330   -3.6070    1.4990 h1        1 3ZK      0.063200
     39 H8          2.9600   -2.7270    5.2710 h1        1 3ZK      0.079200
     40 H9          4.4970   -3.5150    4.7050 h1        1 3ZK      0.079200
     41 H10        10.7400   -2.1120    4.7190 ha        1 3ZK      0.186500
     42 H11         8.1000   -3.2940    7.9550 ha        1 3ZK      0.186500
     43 H12        -6.2360    3.4460   -0.3210 hc        1 3ZK      0.083700
     44 H13        -6.3680    3.8040    1.4420 hc        1 3ZK      0.083700
     45 H14         5.3910   -0.9400    2.4310 hn        1 3ZK      0.396300
     46 H15         1.4480   -0.4860    3.3540 hx        1 3ZK      0.109200
     47 H16         2.5990    0.4360    2.2750 hx        1 3ZK      0.109200
     48 H17         3.5100   -1.7290    1.3890 hc        1 3ZK      0.076700
     49 H18         3.5760   -0.7980    4.2450 h1        1 3ZK      0.102700
     50 H19        -2.0570    2.2320    1.1000 ha        1 3ZK      0.170000
     51 H20         3.2750   -4.6320    3.1590 hn        1 3ZK      0.384800
     52 H22        -3.7270    3.1940   -0.1060 h1        1 3ZK      0.043200
     53 H23        -3.8490    3.5760    1.6880 h1        1 3ZK      0.043200
     54 H24        -4.7520    5.4890   -0.6270 h1        1 3ZK      0.025700
     55 H25        -4.9210    5.8580    1.1560 h1        1 3ZK      0.025700
     56 H26         2.7830    0.9260   -1.2980 hc        1 3ZK      0.073700
     57 H27         3.5470    0.2110    0.1800 hc        1 3ZK      0.073700
     58 H28         2.4300    1.6480    0.3260 hc        1 3ZK      0.073700
     59 H29         2.5690   -2.1070   -0.4060 hc        1 3ZK      0.073700
     60 H30         1.9540   -1.3120   -1.9120 hc        1 3ZK      0.073700
     61 H31         0.8100   -2.2270   -0.8510 hc        1 3ZK      0.073700
     62 H32        11.2570   -4.0700    6.1230 hc        1 3ZK      0.095033
     63 H33        10.1580   -4.5500    7.4940 hc        1 3ZK      0.095033
     64 H34        11.2300   -3.0950    7.6520 hc        1 3ZK      0.095033
     65 H35        -7.1610   -1.7340    1.9960 h1        1 3ZK      0.068033
     66 H36        -5.6720   -2.6380    1.3930 h1        1 3ZK      0.068033
     67 H37        -5.7690   -2.0920    3.1510 h1        1 3ZK      0.068033
     68 H38        -7.6370    7.6830   -0.4080 h1        1 3ZK      0.041033
     69 H39        -5.9590    7.5470   -1.1480 h1        1 3ZK      0.041033
     70 H40        -6.1420    7.8980    0.6410 h1        1 3ZK      0.041033
     71 O24        -4.7770    1.8020    1.0570 os        1 3ZK     -0.284900
     72 C18         1.4260   -0.2500   -0.1170 c3        1 3ZK      0.137500
     73 S1          6.4570   -0.0700    4.8790 s4        1 3ZK      1.683300
     74 C29        -5.6960    3.9010    0.5500 c3        1 3ZK     -0.093400
     75 H311        0.4600   -1.3900    1.3040 hn        1 3ZK      0.448800
     76 H42         5.7420   -2.3640    3.1480 hn        1 3ZK      0.396300
     77 O28        -5.5580   -0.5670    1.7220 os        1 3ZK     -0.264900
     78 C35        10.5920   -3.6820    6.9350 c3        1 3ZK     -0.110800
@<TRIPOS>BOND
     1    1   13 1   
     2    1   17 1   
     3    1   24 2   
     4    2    3 ar  
     5    2   20 ar  
     6    2   71 1   
     7    3    5 ar  
     8    3   77 1   
     9    4    5 ar  
    10    4   17 ar  
    11    4   32 1   
    12    5   34 1   
    13    6   10 ar  
    14    6   19 ar  
    15    6   35 1   
    16    7   11 ar  
    17    7   19 ar  
    18    7   36 1   
    19    8   16 1   
    20    8   23 1   
    21    8   37 1   
    22    8   38 1   
    23    9   18 1   
    24    9   23 1   
    25    9   39 1   
    26    9   40 1   
    27   10   12 ar  
    28   10   41 1   
    29   11   12 ar  
    30   11   42 1   
    31   12   78 1   
    32   13   15 1   
    33   13   72 1   
    34   13   75 1   
    35   14   18 1   
    36   14   45 1   
    37   14   76 1   
    38   15   16 1   
    39   15   46 1   
    40   15   47 1   
    41   16   18 1   
    42   16   48 1   
    43   17   20 ar  
    44   18   49 1   
    45   19   73 1   
    46   20   50 1   
    47   21   73 1   
    48   22   73 1   
    49   23   51 1   
    50   25   27 1   
    51   25   31 1   
    52   26   52 1   
    53   26   53 1   
    54   26   71 1   
    55   26   74 1   
    56   27   54 1   
    57   27   55 1   
    58   27   74 1   
    59   28   56 1   
    60   28   57 1   
    61   28   58 1   
    62   28   72 1   
    63   29   59 1   
    64   29   60 1   
    65   29   61 1   
    66   29   72 1   
    67   30   65 1   
    68   30   66 1   
    69   30   67 1   
    70   30   77 1   
    71   31   68 1   
    72   31   69 1   
    73   31   70 1   
    74   33   72 1   
    75   43   74 1   
    76   44   74 1   
    77   62   78 1   
    78   63   78 1   
    79   64   78 1   
@<TRIPOS>SUBSTRUCTURE
     1 3ZK         1 TEMP              0 ****  ****    0 ROOT
