@<TRIPOS>MOLECULE
3ZM
   56    78     1     0     0
SMALL
bcc


@<TRIPOS>ATOM
      1 C15         0.0000    0.0000    0.0000 c3        1 3ZM      0.248000
      2 C17         0.0050   -0.0070    2.4010 c2        1 3ZM      0.010000
      3 C20         1.3960    0.0000    0.0000 c3        1 3ZM     -0.167000
      4 C22        -2.1130   -0.0040   -1.4150 c3        1 3ZM     -0.115000
      5 C28         0.0160    4.2950   -6.9550 DU        1 3ZM      0.045000
      6 C01         1.7170   -0.5740   -7.2540 c3        1 3ZM     -0.347000
      7 N02         2.8260   -0.2920   -6.6590 n2        1 3ZM      0.137000
      8 C03         3.9120   -0.9000   -7.0920 c3        1 3ZM     -0.166000
      9 C04         5.2730   -0.6650   -6.4900 c3        1 3ZM     -0.128000
     10 C05         3.7080   -1.7420   -8.1080 c3        1 3ZM     -0.305000
     11 S06         1.9890   -1.7220   -8.4930 ss        1 3ZM      0.481000
     12 C07         4.7610   -2.5700   -8.8000 DU        1 3ZM      0.035000
     13 O08         4.8810   -3.8340   -8.1440 oh        1 3ZM     -0.404000
     14 C09         0.3750    0.0150   -6.9030 DU        1 3ZM      0.038000
     15 N10         0.2060    0.0130   -5.4480 ny        1 3ZM     -0.355000
     16 C12        -1.1990    0.0030   -3.4570 c2        1 3ZM     -0.528000
     17 N13        -0.1860    0.0060   -2.5240 n7        1 3ZM      0.225000
     18 C14        -0.7420    0.0010   -1.2790 c3        1 3ZM      0.266000
     19 C16        -0.6930   -0.0070    1.2110 c3        1 3ZM      0.017000
     20 C18         1.3900   -0.0010    2.3960 c3        1 3ZM     -0.093000
     21 C19         2.0820    0.0000    1.1960 c3        1 3ZM     -0.068000
     22 Cl21        2.2610   -0.0020    3.8970 cl        1 3ZM      0.152000
     23 C23        -2.4020   -0.0060   -2.7790 c2        1 3ZM      0.028000
     24 O24        -2.0070   -0.0040   -5.6380 o         1 3ZM     -0.298000
     25 C25         0.2980    1.4510   -7.4240 DU        1 3ZM     -0.303000
     26 N26         1.3620    2.2540   -6.8070 ny        1 3ZM     -0.287000
     27 C27         1.3480    3.6320   -7.3140 c3        1 3ZM     -0.455000
     28 C29        -1.1310    3.4930   -7.5750 DU        1 3ZM     -0.204000
     29 C30        -1.0650    2.0500   -7.0690 DU        1 3ZM     -0.459000
     30 H171       -0.0820   -0.1000    1.3260 DU        1 3ZM     -0.014000
     31 H201        0.8550   -0.0040    0.9380 DU        1 3ZM     -0.020000
     32 H221       -1.0700   -0.0130   -1.1230 hc        1 3ZM     -0.223000
     33 H282       -0.3620    3.7260   -6.1150 ha        1 3ZM      0.125500
     34 H281        0.0010    5.3060   -7.3440 ha        1 3ZM      0.125500
     35 H043        4.4820    0.0690   -6.3990 DU        1 3ZM      0.156000
     36 H042        5.7060   -1.6130   -6.1950 hc        1 3ZM      0.106000
     37 H041        5.9140   -0.1870   -7.2210 hc        1 3ZM      0.106000
     38 H072        4.8710   -1.8960   -7.9590 DU        1 3ZM      0.225000
     39 H071        4.4780   -2.7240   -9.8340 ha        1 3ZM      0.161000
     40 H081        5.2620   -3.0190   -8.4260 DU        1 3ZM      0.294000
     41 H091        1.1530   -0.6840   -7.1870 DU        1 3ZM      0.270000
     42 H101       -0.0900   -0.2700   -6.3610 DU        1 3ZM      0.201000
     43 H131        0.2690    0.0630   -3.4140 hn        1 3ZM      0.200000
     44 H161       -0.3270   -0.0010    0.1920 hc        1 3ZM     -0.044000
     45 H191        0.9990   -0.0270    1.2020 DU        1 3ZM      0.040000
     46 H231       -1.5200   -0.0060   -2.1500 DU        1 3ZM      0.169000
     47 H251       -0.3900    1.1540   -6.6410 DU        1 3ZM      0.263000
     48 H261        0.9150    1.8740   -7.6180 DU        1 3ZM      0.238000
     49 H272        1.8300    2.6760   -7.1480 DU        1 3ZM      0.233000
     50 H271        1.4660    3.6200   -8.3900 hx        1 3ZM      0.092000
     51 H291       -0.0940    3.7130   -7.3500 DU        1 3ZM      0.279000
     52 H292       -2.0770    3.9350   -7.2860 ha        1 3ZM      0.167000
     53 H301       -1.0500    2.7800   -7.8690 DU        1 3ZM      0.187000
     54 H302       -1.1950    2.0390   -5.9930 ha        1 3ZM      0.079000
     55 H102       -0.4230    0.4560   -6.0870 DU        1 3ZM      0.201000
     56 C11        -1.0300    0.0040   -4.9130 c2        1 3ZM      0.383000
@<TRIPOS>BOND
     1    1    3 1   
     2    1   18 1   
     3    1   19 1   
     4    1   31 1   
     5    2   19 1   
     6    2   20 1   
     7    2   30 1   
     8    3   21 1   
     9    3   31 1   
    10    3   45 1   
    11    4   18 1   
    12    4   23 1   
    13    4   32 1   
    14    4   46 1   
    15    5   27 1   
    16    5   28 1   
    17    5   33 1   
    18    5   34 1   
    19    5   51 1   
    20    6    7 1   
    21    6   11 1   
    22    6   14 1   
    23    6   41 1   
    24    7    8 1   
    25    8    9 1   
    26    8   10 1   
    27    8   35 1   
    28    9   35 1   
    29    9   36 1   
    30    9   37 1   
    31   10   11 1   
    32   10   12 1   
    33   10   38 1   
    34   12   13 1   
    35   12   38 1   
    36   12   39 1   
    37   12   40 1   
    38   13   40 1   
    39   14   15 1   
    40   14   25 1   
    41   14   41 1   
    42   14   42 1   
    43   14   55 1   
    44   15   42 1   
    45   15   55 1   
    46   15   56 1   
    47   16   17 1   
    48   16   23 1   
    49   16   56 1   
    50   17   18 1   
    51   17   43 1   
    52   18   46 1   
    53   19   30 1   
    54   19   44 1   
    55   20   21 1   
    56   20   22 1   
    57   20   45 1   
    58   21   31 1   
    59   21   45 1   
    60   23   46 1   
    61   24   56 1   
    62   25   26 1   
    63   25   29 1   
    64   25   47 1   
    65   25   48 1   
    66   26   27 1   
    67   26   48 1   
    68   26   49 1   
    69   27   49 1   
    70   27   50 1   
    71   28   29 1   
    72   28   51 1   
    73   28   52 1   
    74   28   53 1   
    75   29   47 1   
    76   29   53 1   
    77   29   54 1   
    78   31   45 1   
@<TRIPOS>SUBSTRUCTURE
     1 3ZM         1 TEMP              0 ****  ****    0 ROOT
