@<TRIPOS>MOLECULE
3ZM
   56    59     1     0     0
SMALL
bcc


@<TRIPOS>ATOM
      1 C15        -0.0950    0.2640    0.1140 ca        1 3ZM     -0.085000
      2 C17        -0.2910    1.0790    2.3900 ca        1 3ZM     -0.122000
      3 C20         1.2900    0.1270    0.2870 ca        1 3ZM     -0.089000
      4 C22        -2.0760   -0.5610   -1.3190 cc        1 3ZM     -0.207000
      5 C28        -0.2240    4.1900   -6.5660 c3        1 3ZM     -0.085400
      6 C01         1.9020   -0.6580   -7.2780 cc        1 3ZM      0.194700
      7 N02         3.0890   -0.4910   -6.6510 nd        1 3ZM     -0.644000
      8 C03         4.0700   -1.1550   -7.3530 cd        1 3ZM      0.351600
      9 C04         5.4890   -1.1730   -6.9310 c3        1 3ZM     -0.135400
     10 C05         3.5990   -1.8130   -8.5110 cc        1 3ZM     -0.215700
     11 S06         1.9640   -1.5970   -8.6820 ss        1 3ZM      0.170700
     12 C07         4.4900   -2.5750   -9.4130 c3        1 3ZM      0.203700
     13 O08         3.7030   -3.1440  -10.4490 oh        1 3ZM     -0.609800
     14 C09         0.6360   -0.0280   -6.7910 c3        1 3ZM      0.121200
     15 N10         0.5210   -0.1630   -5.2920 n4        1 3ZM     -0.663800
     16 C12        -1.0540   -0.4100   -3.3590 cd        1 3ZM     -0.297900
     17 N13        -0.1280   -0.0100   -2.3750 na        1 3ZM     -0.164100
     18 C14        -0.7430   -0.0900   -1.1360 cd        1 3ZM      0.074700
     19 C16        -0.8810    0.7400    1.1760 ca        1 3ZM     -0.089000
     20 C18         1.0930    0.9420    2.5530 ca        1 3ZM      0.046400
     21 C19         1.8830    0.4620    1.5000 ca        1 3ZM     -0.122000
     22 CL21        1.8140    1.3540    4.0260 cl        1 3ZM     -0.046400
     23 C23        -2.2720   -0.7610   -2.7010 cc        1 3ZM     -0.012000
     24 O24        -1.7090   -0.8180   -5.6110 o         1 3ZM     -0.467100
     25 C25         0.5580    1.4700   -7.2480 c3        1 3ZM      0.167500
     26 N26         1.4160    2.3070   -6.4200 n3        1 3ZM     -0.854200
     27 C27         1.2320    3.7370   -6.5990 c3        1 3ZM      0.161800
     28 C29        -1.0540    3.3800   -7.5370 c3        1 3ZM     -0.082400
     29 C30        -0.9150    1.9020   -7.2450 c3        1 3ZM     -0.082400
     30 H171       -0.9140    1.4530    3.2190 ha        1 3ZM      0.164500
     31 H201        1.9220   -0.2670   -0.5220 ha        1 3ZM      0.140500
     32 H221       -2.7940   -0.7420   -0.5210 ha        1 3ZM      0.188000
     33 H282       -0.6370    4.0850   -5.5300 hc        1 3ZM      0.059700
     34 H281       -0.2630    5.2770   -6.8380 hc        1 3ZM      0.059700
     35 H043        5.6620   -0.5740   -6.0040 hc        1 3ZM      0.064033
     36 H042        6.1250   -0.7540   -7.7520 hc        1 3ZM      0.064033
     37 H041        5.8070   -2.2300   -6.7410 hc        1 3ZM      0.064033
     38 H072        5.0130   -3.3880   -8.8330 h1        1 3ZM      0.056700
     39 H071        5.2660   -1.8850   -9.8510 h1        1 3ZM      0.056700
     40 H081        4.3090   -3.6240  -11.0270 ho        1 3ZM      0.430000
     41 H091       -0.2460   -0.5720   -7.2540 hx        1 3ZM      0.129700
     42 H101        0.8330    0.7260   -4.8740 hn        1 3ZM      0.468300
     43 H131        0.7800    0.3440   -2.5300 hn        1 3ZM      0.303700
     44 H161       -1.9700    0.8490    1.0480 ha        1 3ZM      0.140500
     45 H191        2.9710    0.3470    1.6320 ha        1 3ZM      0.164500
     46 H231       -3.1700   -1.1200   -3.2050 ha        1 3ZM      0.189000
     47 H251        0.9040    1.4630   -8.3290 h1        1 3ZM      0.062700
     48 H261        2.3790    2.0740   -6.5880 hn        1 3ZM      0.385800
     49 H272        1.7960    4.2370   -5.7610 h1        1 3ZM      0.048700
     50 H271        1.6870    4.0870   -7.5730 h1        1 3ZM      0.048700
     51 H291       -2.1330    3.6760   -7.4570 hc        1 3ZM      0.060700
     52 H292       -0.7240    3.5910   -8.5880 hc        1 3ZM      0.060700
     53 H301       -1.4620    1.3060   -8.0210 hc        1 3ZM      0.052700
     54 H302       -1.3830    1.6720   -6.2510 hc        1 3ZM      0.052700
     55 H102        1.1500   -0.9080   -4.9720 hn        1 3ZM      0.468300
     56 C11        -0.8670   -0.4900   -4.7770 c         1 3ZM      0.592700
@<TRIPOS>BOND
     1    1    3 ar  
     2    1   18 1   
     3    1   19 ar  
     4    2   19 ar  
     5    2   20 ar  
     6    2   30 1   
     7    3   21 ar  
     8    3   31 1   
     9    4   18 2   
    10    4   23 1   
    11    4   32 1   
    12    5   27 1   
    13    5   28 1   
    14    5   33 1   
    15    5   34 1   
    16    6    7 2   
    17    6   11 1   
    18    6   14 1   
    19    7    8 1   
    20    8    9 1   
    21    8   10 2   
    22    9   35 1   
    23    9   36 1   
    24    9   37 1   
    25   10   11 1   
    26   10   12 1   
    27   12   13 1   
    28   12   38 1   
    29   12   39 1   
    30   13   40 1   
    31   14   15 1   
    32   14   25 1   
    33   14   41 1   
    34   15   42 1   
    35   15   55 1   
    36   15   56 1   
    37   16   17 1   
    38   16   23 2   
    39   16   56 1   
    40   17   18 1   
    41   17   43 1   
    42   19   44 1   
    43   20   21 ar  
    44   20   22 1   
    45   21   45 1   
    46   23   46 1   
    47   24   56 2   
    48   25   26 1   
    49   25   29 1   
    50   25   47 1   
    51   26   27 1   
    52   26   48 1   
    53   27   49 1   
    54   27   50 1   
    55   28   29 1   
    56   28   51 1   
    57   28   52 1   
    58   29   53 1   
    59   29   54 1   
@<TRIPOS>SUBSTRUCTURE
     1 3ZM         1 TEMP              0 ****  ****    0 ROOT
