@<TRIPOS>MOLECULE
3ZN
   78    80     1     0     0
SMALL
bcc


@<TRIPOS>ATOM
      1 C2          1.1790   -1.2400   -1.4700 c3        1 3ZN      0.150800
      2 C3          2.2930   -0.2810   -0.9670 c3        1 3ZN     -0.116700
      3 C11         4.8550    1.8100   -4.1350 c3        1 3ZN     -0.128100
      4 C12         1.7060    0.6890   -4.0280 c         1 3ZN      0.586700
      5 C13         0.9440    1.6730   -4.7870 ca        1 3ZN     -0.236600
      6 C14         0.5430    1.3150   -6.0840 ca        1 3ZN     -0.018000
      7 C15        -0.5310    3.4710   -6.3630 ca        1 3ZN      0.170100
      8 C16        -0.1520    3.8280   -5.0320 ca        1 3ZN      0.124100
      9 C17        -0.1840    2.2090   -6.8630 ca        1 3ZN     -0.197000
     10 C18         0.5720    2.9220   -4.2570 ca        1 3ZN     -0.129000
     11 C21        -1.6270    4.0750   -8.3970 c3        1 3ZN      0.102700
     12 C23        -1.5700    5.7570   -4.8130 c3        1 3ZN      0.136400
     13 C24        -1.8480    6.6970   -3.6570 c3        1 3ZN     -0.095400
     14 C25        -3.0200    7.6010   -3.9990 c3        1 3ZN      0.132400
     15 C27        -4.3430    9.2890   -2.9990 c3        1 3ZN      0.113700
     16 C28         3.4160   -0.4770    2.4890 c         1 3ZN      0.608100
     17 N1          0.4770   -1.8180   -0.3360 n7        1 3ZN     -0.783200
     18 C4          2.0440   -0.1710    0.5540 c3        1 3ZN      0.125100
     19 C5          0.7850   -1.0280    0.8410 c3        1 3ZN      0.135800
     20 C6          2.2100    1.1070   -1.5950 c3        1 3ZN      0.123800
     21 O7          3.2080   -0.7950    1.1860 os        1 3ZN     -0.422900
     22 N8          2.6900    1.2670   -3.0020 nx        1 3ZN     -0.605200
     23 C9          4.1340    0.8390   -3.2020 c3        1 3ZN      0.141500
     24 C10         4.3180   -0.5800   -3.7200 c3        1 3ZN     -0.128100
     25 O19         1.6650   -0.5300   -4.1330 o         1 3ZN     -0.445100
     26 O20        -1.2270    4.4110   -7.0630 os        1 3ZN     -0.305900
     27 O22        -0.3670    5.0470   -4.4430 os        1 3ZN     -0.328900
     28 O26        -3.3050    8.3380   -2.8140 os        1 3ZN     -0.423600
     29 N29         4.4220   -1.3700    3.1190 ny        1 3ZN     -0.641800
     30 O30         2.8650    0.4430    3.0750 o         1 3ZN     -0.406000
     31 C31         5.4610   -0.5900    3.9070 c3        1 3ZN      0.195100
     32 C32         6.2860   -1.5230    4.7110 ca        1 3ZN     -0.215300
     33 C33         7.4730   -2.0480    4.1810 ca        1 3ZN     -0.093000
     34 C34         7.8920   -3.1900    6.2700 ca        1 3ZN     -0.058000
     35 C35         6.7100   -2.6670    6.7990 ca        1 3ZN     -0.117000
     36 C36         8.2730   -2.8790    4.9620 ca        1 3ZN     -0.117000
     37 C37         5.9060   -1.8350    6.0240 ca        1 3ZN     -0.093000
     38 H1          1.6160   -2.0290   -2.1420 h1        1 3ZN      0.081200
     39 H2          0.4190   -0.6640   -2.0710 h1        1 3ZN      0.081200
     40 H3          3.3030   -0.7390   -1.1490 hc        1 3ZN      0.095700
     41 H4          4.4140    1.7970   -5.1610 hc        1 3ZN      0.078867
     42 H5          4.8370    2.8560   -3.7410 hc        1 3ZN      0.078867
     43 H6          5.9250    1.4880   -4.2130 hc        1 3ZN      0.078867
     44 H7          0.8050    0.3230   -6.4880 ha        1 3ZN      0.168000
     45 H8         -0.4820    1.9120   -7.8820 ha        1 3ZN      0.176000
     46 H9          0.8040    3.2200   -3.2230 ha        1 3ZN      0.138000
     47 H10        -0.7300    3.8790   -9.0330 h1        1 3ZN      0.070033
     48 H11        -2.3160    3.1970   -8.3860 h1        1 3ZN      0.070033
     49 H12        -2.1610    5.0000   -8.7350 h1        1 3ZN      0.070033
     50 H13        -2.4110    5.0360   -4.9740 h1        1 3ZN      0.061700
     51 H14        -1.3570    6.3150   -5.7630 h1        1 3ZN      0.061700
     52 H15        -0.9410    7.3200   -3.4390 hc        1 3ZN      0.069200
     53 H16        -2.0800    6.1120   -2.7290 hc        1 3ZN      0.069200
     54 H17        -2.7580    8.3020   -4.8350 h1        1 3ZN      0.033200
     55 H18        -3.9220    7.0000   -4.2930 h1        1 3ZN      0.033200
     56 H19        -4.4490    9.7770   -1.9980 h1        1 3ZN      0.042033
     57 H20        -4.0540   10.0410   -3.7740 h1        1 3ZN      0.042033
     58 H21        -5.2930    8.7800   -3.2920 h1        1 3ZN      0.042033
     59 H22         0.7050   -2.7860   -0.2100 hn        1 3ZN      0.384800
     60 H24         1.9450    0.8790    0.9320 h1        1 3ZN      0.106700
     61 H25        -0.0820   -0.3330    1.0300 h1        1 3ZN      0.085700
     62 H26         0.9300   -1.6630    1.7540 h1        1 3ZN      0.085700
     63 H27         2.8240    1.8210   -0.9680 hx        1 3ZN      0.100200
     64 H28         1.1330    1.4530   -1.5790 hx        1 3ZN      0.100200
     65 H29         4.6110    0.9100   -2.1770 hx        1 3ZN      0.079700
     66 H30         3.7310   -1.3250   -3.1320 hc        1 3ZN      0.078867
     67 H31         4.0140   -0.6630   -4.7930 hc        1 3ZN      0.078867
     68 H32         5.4050   -0.8360   -3.6440 hc        1 3ZN      0.078867
     69 H33         4.8860   -1.9430    2.4020 hn        1 3ZN      0.476300
     70 H34         6.0830   -0.0200    3.1590 hx        1 3ZN      0.117700
     71 H35         4.9000    0.1410    4.5620 hx        1 3ZN      0.117700
     72 H36         7.7890   -1.7890    3.1590 ha        1 3ZN      0.139500
     73 H37         8.5310   -3.8430    6.8880 ha        1 3ZN      0.171000
     74 H38         6.4170   -2.9050    7.8350 ha        1 3ZN      0.168500
     75 H39         9.2110   -3.2850    4.5500 ha        1 3ZN      0.168500
     76 H40         4.9870   -1.4070    6.4550 ha        1 3ZN      0.139500
     77 H81         2.6880    2.2890   -3.1720 hn        1 3ZN      0.460800
     78 H292        3.9280   -2.0020    3.7680 hn        1 3ZN      0.476300
@<TRIPOS>BOND
     1    1    2 1   
     2    1   17 1   
     3    1   38 1   
     4    1   39 1   
     5    2   18 1   
     6    2   20 1   
     7    2   40 1   
     8    3   23 1   
     9    3   41 1   
    10    3   42 1   
    11    3   43 1   
    12    4    5 1   
    13    4   22 1   
    14    4   25 2   
    15    5    6 ar  
    16    5   10 ar  
    17    6    9 ar  
    18    6   44 1   
    19    7    8 ar  
    20    7    9 ar  
    21    7   26 1   
    22    8   10 ar  
    23    8   27 1   
    24    9   45 1   
    25   10   46 1   
    26   11   26 1   
    27   11   47 1   
    28   11   48 1   
    29   11   49 1   
    30   12   13 1   
    31   12   27 1   
    32   12   50 1   
    33   12   51 1   
    34   13   14 1   
    35   13   52 1   
    36   13   53 1   
    37   14   28 1   
    38   14   54 1   
    39   14   55 1   
    40   15   28 1   
    41   15   56 1   
    42   15   57 1   
    43   15   58 1   
    44   16   21 1   
    45   16   29 1   
    46   16   30 2   
    47   17   19 1   
    48   17   59 1   
    49   18   19 1   
    50   18   21 1   
    51   18   60 1   
    52   19   61 1   
    53   19   62 1   
    54   20   22 1   
    55   20   63 1   
    56   20   64 1   
    57   22   23 1   
    58   22   77 1   
    59   23   24 1   
    60   23   65 1   
    61   24   66 1   
    62   24   67 1   
    63   24   68 1   
    64   29   31 1   
    65   29   69 1   
    66   29   78 1   
    67   31   32 1   
    68   31   70 1   
    69   31   71 1   
    70   32   33 ar  
    71   32   37 ar  
    72   33   36 ar  
    73   33   72 1   
    74   34   35 ar  
    75   34   36 ar  
    76   34   73 1   
    77   35   37 ar  
    78   35   74 1   
    79   36   75 1   
    80   37   76 1   
@<TRIPOS>SUBSTRUCTURE
     1 3ZN         1 TEMP              0 ****  ****    0 ROOT
