@<TRIPOS>MOLECULE
3ZN
   78    80     1     0     0
SMALL
bcc


@<TRIPOS>ATOM
      1 C2          1.1900   -1.2400   -1.4600 c3        1 3ZN      0.150800
      2 C3          2.3030   -0.2760   -0.9640 c3        1 3ZN     -0.116700
      3 C11         4.8460    1.8160   -4.1470 c3        1 3ZN     -0.128100
      4 C12         1.7010    0.6840   -4.0250 c         1 3ZN      0.586700
      5 C13         0.9320    1.6640   -4.7830 ca        1 3ZN     -0.236600
      6 C14         0.5260    1.3010   -6.0770 ca        1 3ZN     -0.018000
      7 C15        -0.5560    3.4520   -6.3570 ca        1 3ZN      0.170100
      8 C16        -0.1730    3.8140   -5.0290 ca        1 3ZN      0.124100
      9 C17        -0.2080    2.1890   -6.8560 ca        1 3ZN     -0.197000
     10 C18         0.5580    2.9130   -4.2550 ca        1 3ZN     -0.129000
     11 C21        -1.6630    4.0460   -8.3890 c3        1 3ZN      0.102700
     12 C23        -1.5950    5.7390   -4.8100 c3        1 3ZN      0.136400
     13 C24        -1.8710    6.6820   -3.6550 c3        1 3ZN     -0.095400
     14 C25        -3.0480    7.5810   -3.9950 c3        1 3ZN      0.132400
     15 C27        -4.3700    9.2690   -2.9940 c3        1 3ZN      0.113700
     16 C28         3.4410   -0.4630    2.4880 c         1 3ZN      0.608100
     17 N1          0.4950   -1.8160   -0.3210 n3        1 3ZN     -0.783200
     18 C4          2.0610   -0.1620    0.5570 c3        1 3ZN      0.125100
     19 C5          0.8060   -1.0220    0.8520 c3        1 3ZN      0.135800
     20 C6          2.2140    1.1100   -1.5950 c3        1 3ZN      0.123800
     21 O7          3.2290   -0.7810    1.1860 os        1 3ZN     -0.422900
     22 N8          2.6870    1.2680   -3.0040 n4        1 3ZN     -0.605200
     23 C9          4.1310    0.8440   -3.2090 c3        1 3ZN      0.141500
     24 C10         4.3180   -0.5750   -3.7250 c3        1 3ZN     -0.128100
     25 O19         1.6630   -0.5350   -4.1270 o         1 3ZN     -0.445100
     26 O20        -1.2590    4.3880   -7.0580 os        1 3ZN     -0.305900
     27 O22        -0.3890    5.0340   -4.4430 os        1 3ZN     -0.328900
     28 O26        -3.3290    8.3220   -2.8110 os        1 3ZN     -0.423600
     29 N29         4.4530   -1.3500    3.1150 n4        1 3ZN     -0.641800
     30 O30         2.8870    0.4550    3.0760 o         1 3ZN     -0.406000
     31 C31         5.4890   -0.5640    3.9010 c3        1 3ZN      0.195100
     32 C32         6.3220   -1.4940    4.7020 ca        1 3ZN     -0.215300
     33 C33         7.5110   -2.0110    4.1680 ca        1 3ZN     -0.093000
     34 C34         7.9420   -3.1530    6.2540 ca        1 3ZN     -0.058000
     35 C35         6.7580   -2.6390    6.7870 ca        1 3ZN     -0.117000
     36 C36         8.3180   -2.8380    4.9460 ca        1 3ZN     -0.117000
     37 C37         5.9460   -1.8100    6.0150 ca        1 3ZN     -0.093000
     38 H1          1.6260   -2.0280   -2.1310 h1        1 3ZN      0.081200
     39 H2          0.4260   -0.6670   -2.0580 h1        1 3ZN      0.081200
     40 H3          3.3140   -0.7310   -1.1490 hc        1 3ZN      0.095700
     41 H4          4.4000    1.7990   -5.1720 hc        1 3ZN      0.078867
     42 H5          4.8260    2.8620   -3.7560 hc        1 3ZN      0.078867
     43 H6          5.9160    1.4970   -4.2300 hc        1 3ZN      0.078867
     44 H7          0.7900    0.3080   -6.4800 ha        1 3ZN      0.168000
     45 H8         -0.5090    1.8890   -7.8730 ha        1 3ZN      0.176000
     46 H9          0.7940    3.2150   -3.2230 ha        1 3ZN      0.138000
     47 H10        -2.3500    3.1660   -8.3720 h1        1 3ZN      0.070033
     48 H11        -2.2030    4.9690   -8.7270 h1        1 3ZN      0.070033
     49 H12        -0.7690    3.8510   -9.0280 h1        1 3ZN      0.070033
     50 H13        -1.3890    6.2950   -5.7630 h1        1 3ZN      0.061700
     51 H14        -2.4350    5.0150   -4.9650 h1        1 3ZN      0.061700
     52 H15        -2.0980    6.0990   -2.7250 hc        1 3ZN      0.069200
     53 H16        -0.9660    7.3080   -3.4440 hc        1 3ZN      0.069200
     54 H17        -3.9490    6.9760   -4.2830 h1        1 3ZN      0.033200
     55 H18        -2.7920    8.2800   -4.8340 h1        1 3ZN      0.033200
     56 H19        -5.3210    8.7560   -3.2820 h1        1 3ZN      0.042033
     57 H20        -4.0880   10.0180   -3.7740 h1        1 3ZN      0.042033
     58 H21        -4.4740    9.7600   -1.9940 h1        1 3ZN      0.042033
     59 H22         0.7260   -2.7830   -0.1940 hn        1 3ZN      0.384800
     60 H24         1.9610    0.8880    0.9340 h1        1 3ZN      0.106700
     61 H25        -0.0630   -0.3290    1.0430 h1        1 3ZN      0.085700
     62 H26         0.9560   -1.6550    1.7660 h1        1 3ZN      0.085700
     63 H27         2.8280    1.8270   -0.9720 hx        1 3ZN      0.100200
     64 H28         1.1350    1.4540   -1.5750 hx        1 3ZN      0.100200
     65 H29         4.6120    0.9200   -2.1860 hx        1 3ZN      0.079700
     66 H30         4.0100   -0.6620   -4.7960 hc        1 3ZN      0.078867
     67 H31         3.7360   -1.3210   -3.1320 hc        1 3ZN      0.078867
     68 H32         5.4060   -0.8280   -3.6520 hc        1 3ZN      0.078867
     69 H33         4.9190   -1.9190    2.3960 hn        1 3ZN      0.476300
     70 H34         6.1060    0.0100    3.1530 hx        1 3ZN      0.117700
     71 H35         4.9250    0.1620    4.5590 hx        1 3ZN      0.117700
     72 H36         7.8220   -1.7480    3.1460 ha        1 3ZN      0.139500
     73 H37         8.5870   -3.8040    6.8700 ha        1 3ZN      0.171000
     74 H38         6.4690   -2.8800    7.8240 ha        1 3ZN      0.168500
     75 H39         9.2580   -3.2370    4.5310 ha        1 3ZN      0.168500
     76 H40         5.0260   -1.3890    6.4490 ha        1 3ZN      0.139500
     77 H81         2.6810    2.2890   -3.1770 hn        1 3ZN      0.460800
     78 H292        3.9650   -1.9860    3.7640 hn        1 3ZN      0.476300
@<TRIPOS>BOND
     1    1    2 1   
     2    1   17 1   
     3    1   38 1   
     4    1   39 1   
     5    2   18 1   
     6    2   20 1   
     7    2   40 1   
     8    3   23 1   
     9    3   41 1   
    10    3   42 1   
    11    3   43 1   
    12    4    5 1   
    13    4   22 1   
    14    4   25 2   
    15    5    6 ar  
    16    5   10 ar  
    17    6    9 ar  
    18    6   44 1   
    19    7    8 ar  
    20    7    9 ar  
    21    7   26 1   
    22    8   10 ar  
    23    8   27 1   
    24    9   45 1   
    25   10   46 1   
    26   11   26 1   
    27   11   47 1   
    28   11   48 1   
    29   11   49 1   
    30   12   13 1   
    31   12   27 1   
    32   12   50 1   
    33   12   51 1   
    34   13   14 1   
    35   13   52 1   
    36   13   53 1   
    37   14   28 1   
    38   14   54 1   
    39   14   55 1   
    40   15   28 1   
    41   15   56 1   
    42   15   57 1   
    43   15   58 1   
    44   16   21 1   
    45   16   29 1   
    46   16   30 2   
    47   17   19 1   
    48   17   59 1   
    49   18   19 1   
    50   18   21 1   
    51   18   60 1   
    52   19   61 1   
    53   19   62 1   
    54   20   22 1   
    55   20   63 1   
    56   20   64 1   
    57   22   23 1   
    58   22   77 1   
    59   23   24 1   
    60   23   65 1   
    61   24   66 1   
    62   24   67 1   
    63   24   68 1   
    64   29   31 1   
    65   29   69 1   
    66   29   78 1   
    67   31   32 1   
    68   31   70 1   
    69   31   71 1   
    70   32   33 ar  
    71   32   37 ar  
    72   33   36 ar  
    73   33   72 1   
    74   34   35 ar  
    75   34   36 ar  
    76   34   73 1   
    77   35   37 ar  
    78   35   74 1   
    79   36   75 1   
    80   37   76 1   
@<TRIPOS>SUBSTRUCTURE
     1 3ZN         1 TEMP              0 ****  ****    0 ROOT
