@<TRIPOS>MOLECULE
3ZQ
   20    20     1     0     0
SMALL
bcc


@<TRIPOS>ATOM
      1 C4          0.0860    0.0270   -0.0190 c3        1 3ZQ     -0.093900
      2 C5          1.6060    0.0010    0.0830 c3        1 3ZQ      0.127100
      3 C6          2.0580    0.0380    1.5560 c3        1 3ZQ      0.127100
      4 C1          1.4800    1.2640    2.2550 c3        1 3ZQ     -0.093900
      5 C2         -0.0290    1.2820    2.1430 c3        1 3ZQ     -0.077400
      6 C3         -0.4800    1.2340    0.6970 c3        1 3ZQ     -0.077400
      7 O7          3.4700    0.1350    1.6370 oh        1 3ZQ     -0.607300
      8 O8          2.1420   -1.2040   -0.4520 oh        1 3ZQ     -0.607300
      9 H1         -0.3270   -0.9150    0.4290 hc        1 3ZQ      0.052450
     10 H2         -0.2140    0.0470   -1.0980 hc        1 3ZQ      0.052450
     11 H3          2.0500    0.8780   -0.4660 h1        1 3ZQ      0.046700
     12 H4          1.7170   -0.9060    2.0660 h1        1 3ZQ      0.046700
     13 H5          1.9160    2.1880    1.7950 hc        1 3ZQ      0.052450
     14 H6          1.7900    1.2450    3.3310 hc        1 3ZQ      0.052450
     15 H7         -0.4250    2.2120    2.6270 hc        1 3ZQ      0.043950
     16 H8         -0.4570    0.4050    2.6960 hc        1 3ZQ      0.043950
     17 H9         -1.6000    1.2010    0.6540 hc        1 3ZQ      0.043950
     18 H10        -0.1500    2.1690    0.1720 hc        1 3ZQ      0.043950
     19 H11         3.8250   -0.6010    1.1210 ho        1 3ZQ      0.411500
     20 H12         1.8360   -1.2670   -1.3630 ho        1 3ZQ      0.411500
@<TRIPOS>BOND
     1    1    2 1   
     2    1    6 1   
     3    1    9 1   
     4    1   10 1   
     5    2    3 1   
     6    2    8 1   
     7    2   11 1   
     8    3    4 1   
     9    3    7 1   
    10    3   12 1   
    11    4    5 1   
    12    4   13 1   
    13    4   14 1   
    14    5    6 1   
    15    5   15 1   
    16    5   16 1   
    17    6   17 1   
    18    6   18 1   
    19    7   19 1   
    20    8   20 1   
@<TRIPOS>SUBSTRUCTURE
     1 3ZQ         1 TEMP              0 ****  ****    0 ROOT
