@<TRIPOS>MOLECULE
3ZS
   14    15     1     0     0
SMALL
bcc


@<TRIPOS>ATOM
      1 C01         0.0110   -0.2070   -0.0720 c3        1 3ZS     -0.080400
      2 C02         1.4690    0.2400    0.0760 c3        1 3ZS     -0.078400
      3 C03         1.9780   -0.1940    1.4550 c3        1 3ZS     -0.080400
      4 C04         0.8430   -0.9400    2.1150 cx        1 3ZS      0.057100
      5 C05        -0.3410   -0.9480    1.1970 cx        1 3ZS      0.057100
      6 O06        -0.3150   -0.1240    2.3780 os        1 3ZS     -0.402600
      7 H1         -0.6620    0.6750   -0.2090 hc        1 3ZS      0.058200
      8 H2         -0.1140   -0.8850   -0.9510 hc        1 3ZS      0.058200
      9 H3          1.5440    1.3510   -0.0300 hc        1 3ZS      0.045700
     10 H4          2.0960   -0.2190   -0.7280 hc        1 3ZS      0.045700
     11 H5          2.8670   -0.8640    1.3620 hc        1 3ZS      0.058200
     12 H6          2.2700    0.6960    2.0670 hc        1 3ZS      0.058200
     13 H7          1.0680   -1.6920    2.8850 h1        1 3ZS      0.101700
     14 H8         -1.1360   -1.7070    1.1750 h1        1 3ZS      0.101700
@<TRIPOS>BOND
     1    1    2 1   
     2    1    5 1   
     3    1    7 1   
     4    1    8 1   
     5    2    3 1   
     6    2    9 1   
     7    2   10 1   
     8    3    4 1   
     9    3   11 1   
    10    3   12 1   
    11    4    5 1   
    12    4    6 1   
    13    4   13 1   
    14    5    6 1   
    15    5   14 1   
@<TRIPOS>SUBSTRUCTURE
     1 3ZS         1 TEMP              0 ****  ****    0 ROOT
