@<TRIPOS>MOLECULE
J01
   22    23     1     0     0
SMALL
bcc


@<TRIPOS>ATOM
      1 O2          0.0090    0.1980    0.1330 o         1 J01     -0.573500
      2 C5          1.2240    0.0670    0.0400 c         1 J01      0.654500
      3 C4          2.3580   -0.0240    1.0780 cy        1 J01     -0.231400
      4 C3          3.3090   -0.1790   -0.1450 cy        1 J01      0.217500
      5 N1          2.1410    0.0310   -1.0780 n         1 J01     -0.333800
      6 O1          3.8070   -1.5190   -0.3110 os        1 J01     -0.357900
      7 C1          3.1040   -2.1100   -1.3790 c2        1 J01      0.085900
      8 C2          2.1350   -1.1140   -1.9910 c3        1 J01     -0.081100
      9 C8          2.6040   -0.7340   -3.4620 c         1 J01      0.951600
     10 O5          3.6620   -0.0790   -3.6040 o         1 J01     -0.803300
     11 O4          1.8490   -1.1660   -4.3690 o         1 J01     -0.803300
     12 C6          3.3470   -3.3780   -1.7300 c2        1 J01     -0.245200
     13 C7          4.3810   -4.2130   -1.0730 c3        1 J01      0.186600
     14 O3          4.0290   -5.5840   -1.2460 oh        1 J01     -0.605800
     15 H4C1        2.2950   -0.9200    1.7290 hc        1 J01      0.075200
     16 H4C2        2.5180    0.8920    1.6800 hc        1 J01      0.075200
     17 H3          4.1520    0.5330   -0.2670 h2        1 J01      0.112700
     18 H2          1.1050   -1.5540   -2.0760 h1        1 J01      0.088700
     19 H6          2.7950   -3.8330   -2.5660 ha        1 J01      0.165000
     20 H7C1        5.3860   -4.0190   -1.5430 h1        1 J01      0.021200
     21 H7C2        4.4510   -3.9860    0.0270 h1        1 J01      0.021200
     22 HA          4.7910   -6.0910   -0.9500 ho        1 J01      0.381000
@<TRIPOS>BOND
     1    1    2 2   
     2    2    3 1   
     3    2    5 1   
     4    3    4 1   
     5    3   15 1   
     6    3   16 1   
     7    4    5 1   
     8    4    6 1   
     9    4   17 1   
    10    5    8 1   
    11    6    7 1   
    12    7    8 1   
    13    7   12 2   
    14    8    9 1   
    15    8   18 1   
    16    9   10 1   
    17    9   11 1   
    18   12   13 1   
    19   12   19 1   
    20   13   14 1   
    21   13   20 1   
    22   13   21 1   
    23   14   22 1   
@<TRIPOS>SUBSTRUCTURE
     1 J01         1 TEMP              0 ****  ****    0 ROOT
