@<TRIPOS>MOLECULE
J01
   22    23     1     0     0
SMALL
bcc


@<TRIPOS>ATOM
      1 O2          0.0070    0.1820    0.1380 o         1 J01     -0.573500
      2 C5          1.2220    0.0550    0.0430 c         1 J01      0.654500
      3 C4          2.3580   -0.0360    1.0780 cy        1 J01     -0.231400
      4 C3          3.3070   -0.1830   -0.1470 cy        1 J01      0.217500
      5 N1          2.1360    0.0260   -1.0770 n         1 J01     -0.333800
      6 O1          3.8090   -1.5200   -0.3190 os        1 J01     -0.357900
      7 C1          3.1070   -2.1100   -1.3890 c2        1 J01      0.085900
      8 C2          2.1330   -1.1160   -1.9940 c3        1 J01     -0.081100
      9 C8          2.5960   -0.7290   -3.4650 c         1 J01      0.951600
     10 O5          3.6520   -0.0700   -3.6070 o         1 J01     -0.803300
     11 O4          1.8410   -1.1600   -4.3720 o         1 J01     -0.803300
     12 C6          3.3530   -3.3760   -1.7440 c2        1 J01     -0.245200
     13 C7          4.3910   -4.2100   -1.0920 c3        1 J01      0.186600
     14 O3          4.0450   -5.5810   -1.2710 oh        1 J01     -0.605800
     15 H4C1        2.2990   -0.9340    1.7260 hc        1 J01      0.075200
     16 H4C2        2.5160    0.8790    1.6830 hc        1 J01      0.075200
     17 H3          4.1470    0.5320   -0.2690 h2        1 J01      0.112700
     18 H2          1.1030   -1.5590   -2.0790 h1        1 J01      0.088700
     19 H6          2.8010   -3.8300   -2.5800 ha        1 J01      0.165000
     20 H7C1        4.4610   -3.9880    0.0090 h1        1 J01      0.021200
     21 H7C2        5.3940   -4.0100   -1.5620 h1        1 J01      0.021200
     22 HA          4.8100   -6.0870   -0.9800 ho        1 J01      0.381000
@<TRIPOS>BOND
     1    1    2 2   
     2    2    3 1   
     3    2    5 1   
     4    3    4 1   
     5    3   15 1   
     6    3   16 1   
     7    4    5 1   
     8    4    6 1   
     9    4   17 1   
    10    5    8 1   
    11    6    7 1   
    12    7    8 1   
    13    7   12 2   
    14    8    9 1   
    15    8   18 1   
    16    9   10 1   
    17    9   11 1   
    18   12   13 1   
    19   12   19 1   
    20   13   14 1   
    21   13   20 1   
    22   13   21 1   
    23   14   22 1   
@<TRIPOS>SUBSTRUCTURE
     1 J01         1 TEMP              0 ****  ****    0 ROOT
