@<TRIPOS>MOLECULE
J01
   22    23     1     0     0
SMALL
bcc


@<TRIPOS>ATOM
      1 O2          4.2640    4.2290   -1.6680 o         1 J01     -0.572500
      2 C5          3.4530    3.9330   -0.7990 c         1 J01      0.653500
      3 C4          2.1280    4.5620   -0.3320 cy        1 J01     -0.229400
      4 C3          2.0620    3.3870    0.6860 cy        1 J01      0.215500
      5 N1          3.4210    2.9150    0.2300 n         1 J01     -0.332800
      6 O1          1.0790    2.3920    0.3410 os        1 J01     -0.354900
      7 C1          1.7630    1.2700   -0.1620 c2        1 J01      0.100900
      8 C2          3.2620    1.5080   -0.1420 c3        1 J01     -0.086100
      9 C8          3.9450    0.5030    0.8840 c         1 J01      0.950600
     10 O5          3.7530    0.6730    2.1100 o         1 J01     -0.802300
     11 O4          4.6060   -0.4140    0.3360 o         1 J01     -0.802300
     12 C6          1.0930    0.1820   -0.5590 c2        1 J01     -0.301200
     13 C7         -0.3820    0.0450   -0.5060 c3        1 J01      0.189600
     14 O3         -0.7920   -1.2880   -0.2350 oh        1 J01     -0.624800
     15 H4C1        2.2210    5.5680    0.1230 hc        1 J01      0.076200
     16 H4C2        1.3320    4.5490   -1.1040 hc        1 J01      0.076200
     17 H3          1.9740    3.6140    1.7700 h2        1 J01      0.113700
     18 H2          3.7180    1.3060   -1.1490 h1        1 J01      0.089700
     19 H6          1.6600   -0.6870   -0.9280 ha        1 J01      0.158000
     20 H7C1       -0.8430    0.2800   -1.5050 h1        1 J01      0.036200
     21 H7C2       -0.8230    0.7290    0.2710 h1        1 J01      0.036200
     22 HA         -0.2300   -1.6180    0.4760 ho        1 J01      0.407000
@<TRIPOS>BOND
     1    1    2 2   
     2    2    3 1   
     3    2    5 1   
     4    3    4 1   
     5    3   15 1   
     6    3   16 1   
     7    4    5 1   
     8    4    6 1   
     9    4   17 1   
    10    5    8 1   
    11    6    7 1   
    12    7    8 1   
    13    7   12 2   
    14    8    9 1   
    15    8   18 1   
    16    9   10 1   
    17    9   11 1   
    18   12   13 1   
    19   12   19 1   
    20   13   14 1   
    21   13   20 1   
    22   13   21 1   
    23   14   22 1   
@<TRIPOS>SUBSTRUCTURE
     1 J01         1 TEMP              0 ****  ****    0 ROOT
