@<TRIPOS>MOLECULE
J01
   22    23     1     0     0
SMALL
bcc


@<TRIPOS>ATOM
      1 O2          0.0120    0.2060    0.1260 o         1 J01     -0.573500
      2 C5          1.2260    0.0790    0.0250 c         1 J01      0.654500
      3 C4          2.3700    0.0100    1.0530 cy        1 J01     -0.231400
      4 C3          3.3100   -0.1630   -0.1760 cy        1 J01      0.217500
      5 N1          2.1330    0.0260   -1.1010 n         1 J01     -0.333800
      6 O1          3.8130   -1.5030   -0.3230 os        1 J01     -0.357900
      7 C1          3.1030   -2.1150   -1.3750 c2        1 J01      0.085900
      8 C2          2.1240   -1.1340   -1.9940 c3        1 J01     -0.081100
      9 C8          2.5770   -0.7780   -3.4760 c         1 J01      0.951600
     10 O5          3.6310   -0.1210   -3.6390 o         1 J01     -0.803300
     11 O4          1.8160   -1.2290   -4.3680 o         1 J01     -0.803300
     12 C6          3.3480   -3.3880   -1.7050 c2        1 J01     -0.245200
     13 C7          4.3910   -4.2070   -1.0430 c3        1 J01      0.186600
     14 O3          4.0440   -5.5820   -1.1900 oh        1 J01     -0.605800
     15 H4C1        2.5310    0.9370    1.6380 hc        1 J01      0.075200
     16 H4C2        2.3160   -0.8750    1.7200 hc        1 J01      0.075200
     17 H3          4.1500    0.5510   -0.3180 h2        1 J01      0.112700
     18 H2          1.0940   -1.5790   -2.0620 h1        1 J01      0.088700
     19 H6          2.7900   -3.8600   -2.5270 ha        1 J01      0.165000
     20 H7C1        5.3910   -4.0170   -1.5240 h1        1 J01      0.021200
     21 H7C2        4.4690   -3.9610    0.0520 h1        1 J01      0.021200
     22 HA          4.8120   -6.0810   -0.8930 ho        1 J01      0.381000
@<TRIPOS>BOND
     1    1    2 2   
     2    2    3 1   
     3    2    5 1   
     4    3    4 1   
     5    3   15 1   
     6    3   16 1   
     7    4    5 1   
     8    4    6 1   
     9    4   17 1   
    10    5    8 1   
    11    6    7 1   
    12    7    8 1   
    13    7   12 2   
    14    8    9 1   
    15    8   18 1   
    16    9   10 1   
    17    9   11 1   
    18   12   13 1   
    19   12   19 1   
    20   13   14 1   
    21   13   20 1   
    22   13   21 1   
    23   14   22 1   
@<TRIPOS>SUBSTRUCTURE
     1 J01         1 TEMP              0 ****  ****    0 ROOT
