@<TRIPOS>MOLECULE
J01
   22    21     1     0     0
SMALL
bcc


@<TRIPOS>ATOM
      1 O2         -1.8740   -3.5390    1.0160 o         1 J01     -0.297000
      2 C5         -1.2430   -2.5100    1.1520 c1        1 J01      0.261000
      3 C4         -0.1640   -2.0040    2.1580 c2        1 J01     -0.258000
      4 C3         -0.3670   -0.6510    1.5450 c3        1 J01      0.067000
      5 N1         -1.1780   -1.2300    0.4350 n3        1 J01     -0.191000
      6 O1          0.6320   -0.1840    1.0510 os        1 J01     -0.239000
      7 C1          0.2630    0.2130   -0.3960 c2        1 J01      0.061000
      8 C2         -0.5440   -0.7210   -0.8540 c3        1 J01     -0.117000
      9 C8         -1.5920   -0.2060   -1.9410 c2        1 J01      0.370000
     10 O5         -2.5320    0.5570   -1.5970 o         1 J01     -0.537000
     11 O4         -1.4820   -0.5680   -3.1420 o         1 J01     -0.537000
     12 C6          0.6850    1.3060   -1.0620 c1        1 J01     -0.297000
     13 C7          1.6170    2.2890   -0.3880 c2        1 J01      0.035000
     14 O3          2.0020    3.2820   -1.3130 oh        1 J01     -0.352000
     15 H4C1        0.7300   -2.4010    2.1330 ha        1 J01      0.115500
     16 H4C2       -0.5740   -1.9910    3.0460 ha        1 J01      0.115500
     17 H3         -0.8700   -0.0310    2.1100 h2        1 J01      0.153000
     18 H2         -0.0680   -1.4230   -1.3420 h1        1 J01      0.129000
     19 H6          0.3890    1.4640   -1.9790 ha        1 J01      0.158000
     20 H7C1        2.4120    1.8170   -0.0660 h4        1 J01      0.075500
     21 H7C2        1.1570    2.7090    0.3690 h4        1 J01      0.075500
     22 HA          2.6000    3.8220   -0.9370 ho        1 J01      0.206000
@<TRIPOS>BOND
     1    1    2 1   
     2    2    5 1   
     3    3    4 1   
     4    3   15 1   
     5    3   16 1   
     6    4    5 1   
     7    4    6 1   
     8    4   17 1   
     9    5    8 1   
    10    6    7 1   
    11    7    8 1   
    12    7   12 1   
    13    8    9 1   
    14    8   18 1   
    15    9   10 1   
    16    9   11 1   
    17   12   19 1   
    18   13   14 1   
    19   13   20 1   
    20   13   21 1   
    21   14   22 1   
@<TRIPOS>SUBSTRUCTURE
     1 J01         1 TEMP              0 ****  ****    0 ROOT
