@<TRIPOS>MOLECULE
J07
   51    54     1     0     0
SMALL
bcc


@<TRIPOS>ATOM
      1 C01        -7.4730    2.3560    2.5390 c3        1 J07     -0.106100
      2 C02        -7.0790    2.0290    1.1090 c3        1 J07      0.083000
      3 N03        -6.1430    0.9300    1.0170 n         1 J07     -0.542900
      4 C04        -5.6850    0.5760   -0.2610 c         1 J07      0.725100
      5 O05        -5.8950    1.3430   -1.2320 o         1 J07     -0.632100
      6 N06        -5.0190   -0.6800   -0.4520 n         1 J07     -0.421800
      7 C07        -4.5370   -0.9200   -1.8050 c3        1 J07      0.067000
      8 C08        -3.1260   -0.4080   -2.0880 c3        1 J07     -0.128900
      9 C09        -2.1410   -0.9800   -1.0520 c3        1 J07      0.212500
     10 C10        -2.6430   -0.6200    0.3570 c3        1 J07     -0.128900
     11 C11        -4.0710   -1.1310    0.5510 c3        1 J07      0.067000
     12 N12        -0.7900   -0.5310   -1.3350 nh        1 J07     -0.818900
     13 C13         0.3110   -1.0980   -0.6720 ca        1 J07      0.872900
     14 N14         1.4840   -0.3540   -0.6790 nb        1 J07     -0.748000
     15 C15         2.5980   -0.9270   -0.1660 ca        1 J07      0.600100
     16 C16         2.5550   -2.2370    0.3880 ca        1 J07     -0.291200
     17 C17         1.3130   -2.9040    0.3760 ca        1 J07      0.471200
     18 N18         0.1940   -2.3760   -0.1300 nb        1 J07     -0.745000
     19 CL1         3.8900   -3.0030    1.0850 cl        1 J07     -0.074400
     20 C20         3.8260   -0.1520   -0.1880 cc        1 J07     -0.238000
     21 C21         3.9540    1.2710    0.0610 ca        1 J07     -0.052800
     22 C22         3.0630    2.2910    0.4020 ca        1 J07     -0.073000
     23 C23         3.5520    3.5770    0.5800 ca        1 J07     -0.155000
     24 C24         4.9180    3.8710    0.4250 ca        1 J07     -0.114000
     25 C25         5.8370    2.8900    0.0880 ca        1 J07     -0.143000
     26 C26         5.3570    1.5850   -0.0960 ca        1 J07     -0.057200
     27 N27         6.0300    0.4050   -0.4350 na        1 J07     -0.185400
     28 C28         5.1060   -0.6320   -0.4910 cd        1 J07     -0.052100
     29 H011       -8.1760    3.2230    2.5220 hc        1 J07      0.043033
     30 H012       -7.9870    1.4930    3.0270 hc        1 J07      0.043033
     31 H013       -6.5820    2.6320    3.1520 hc        1 J07      0.043033
     32 H021       -8.0100    1.8020    0.5100 h1        1 J07      0.053200
     33 H022       -6.5920    2.9290    0.6320 h1        1 J07      0.053200
     34 HN03       -6.2690    0.2040    1.6850 hn        1 J07      0.297500
     35 H071       -4.5610   -2.0380   -1.9510 h1        1 J07      0.064950
     36 H072       -5.2480   -0.4490   -2.5410 h1        1 J07      0.064950
     37 H081       -2.8300   -0.7290   -3.1190 hc        1 J07      0.061950
     38 H082       -3.1210    0.7130   -2.0590 hc        1 J07      0.061950
     39 H09        -2.1580   -2.1080   -1.1500 h1        1 J07      0.084700
     40 H101       -1.9890   -1.0970    1.1310 hc        1 J07      0.061950
     41 H102       -2.6070    0.4890    0.5090 hc        1 J07      0.061950
     42 H111       -4.4120   -0.8580    1.5850 h1        1 J07      0.064950
     43 H112       -4.0600   -2.2590    0.4870 h1        1 J07      0.064950
     44 HN12       -0.7090    0.4470   -1.5250 hn        1 J07      0.429800
     45 H17         1.2110   -3.9210    0.8040 h4        1 J07      0.035100
     46 H22         1.9920    2.0730    0.5210 ha        1 J07      0.146000
     47 H23         2.8600    4.3900    0.8460 ha        1 J07      0.130000
     48 H24         5.2630    4.9050    0.5760 ha        1 J07      0.130000
     49 H25         6.9030    3.1240   -0.0310 ha        1 J07      0.132000
     50 HN27        6.9950    0.3300   -0.6160 hn        1 J07      0.302700
     51 H28         5.4190   -1.6470   -0.7530 h4        1 J07      0.177000
@<TRIPOS>BOND
     1    1    2 1   
     2    1   29 1   
     3    1   30 1   
     4    1   31 1   
     5    2    3 1   
     6    2   32 1   
     7    2   33 1   
     8    3    4 1   
     9    3   34 1   
    10    4    5 2   
    11    4    6 1   
    12    6    7 1   
    13    6   11 1   
    14    7    8 1   
    15    7   35 1   
    16    7   36 1   
    17    8    9 1   
    18    8   37 1   
    19    8   38 1   
    20    9   10 1   
    21    9   12 1   
    22    9   39 1   
    23   10   11 1   
    24   10   40 1   
    25   10   41 1   
    26   11   42 1   
    27   11   43 1   
    28   12   13 1   
    29   12   44 1   
    30   13   14 ar  
    31   13   18 ar  
    32   14   15 ar  
    33   15   16 ar  
    34   15   20 1   
    35   16   17 ar  
    36   16   19 1   
    37   17   18 ar  
    38   17   45 1   
    39   20   21 1   
    40   20   28 2   
    41   21   22 ar  
    42   21   26 ar  
    43   22   23 ar  
    44   22   46 1   
    45   23   24 ar  
    46   23   47 1   
    47   24   25 ar  
    48   24   48 1   
    49   25   26 ar  
    50   25   49 1   
    51   26   27 1   
    52   27   28 1   
    53   27   50 1   
    54   28   51 1   
@<TRIPOS>SUBSTRUCTURE
     1 J07         1 TEMP              0 ****  ****    0 ROOT
