@<TRIPOS>MOLECULE
J07
   52    55     1     0     0
SMALL
bcc


@<TRIPOS>ATOM
      1 C01        -0.1340    0.8040    0.1060 c3        1 J07     -0.139100
      2 C02         1.3700    0.7540    0.2630 c3        1 J07      0.116800
      3 N03         1.7800    0.3260    1.6380 n4        1 J07     -0.666800
      4 C04         3.3100    0.2790    1.7940 c         1 J07      0.619100
      5 O05         3.9320    0.5550    0.7630 o         1 J07     -0.487100
      6 N06         3.8360   -0.1930    2.9810 n         1 J07     -0.389800
      7 C07         5.2770    0.0170    3.1810 c3        1 J07      0.060000
      8 C08         5.6060    1.2140    4.0650 c3        1 J07     -0.134900
      9 C09         4.8630    1.1130    5.4110 c3        1 J07      0.221500
     10 C10         3.3510    0.9850    5.1290 c3        1 J07     -0.134900
     11 C11         3.0940   -0.2240    4.2340 c3        1 J07      0.060000
     12 N12         5.2220    2.2100    6.2760 nh        1 J07     -0.825900
     13 C13         4.8470    2.1920    7.6410 ca        1 J07      0.853900
     14 N14         4.8860    3.4100    8.2950 nb        1 J07     -0.734000
     15 C15         4.6640    3.4140    9.6340 ca        1 J07      0.610100
     16 C16         4.3710    2.2010   10.3230 ca        1 J07     -0.272200
     17 C17         4.3210    1.0170    9.5610 ca        1 J07      0.468200
     18 N18         4.5420    0.9770    8.2400 nb        1 J07     -0.759000
     19 CL1         4.0400    2.1220   11.9740 cl        1 J07     -0.049400
     20 C20         4.7220    4.6870   10.3230 cc        1 J07     -0.262000
     21 C21         4.2590    5.9660    9.8190 ca        1 J07     -0.049800
     22 C22         3.6280    6.3900    8.6480 ca        1 J07     -0.084000
     23 C23         3.3060    7.7320    8.5070 ca        1 J07     -0.149000
     24 C24         3.5990    8.6680    9.5140 ca        1 J07     -0.112000
     25 C25         4.2220    8.2910   10.6940 ca        1 J07     -0.131000
     26 C26         4.5540    6.9370   10.8480 ca        1 J07     -0.058200
     27 N27         5.1780    6.2680   11.9110 na        1 J07     -0.174400
     28 C28         5.2770    4.9230   11.5910 cd        1 J07     -0.035100
     29 H011       -0.6040   -0.1970    0.2630 hc        1 J07      0.079367
     30 H012       -0.3560    1.1310   -0.9430 hc        1 J07      0.079367
     31 H013       -0.6020    1.5410    0.8040 hc        1 J07      0.079367
     32 H021        1.8280    1.7680    0.0710 hx        1 J07      0.119700
     33 H022        1.8260    0.0270   -0.4700 hx        1 J07      0.119700
     34 HN03        1.3920   -0.6040    1.8270 hn        1 J07      0.452800
     35 H071        5.7850    0.1330    2.1810 h1        1 J07      0.086950
     36 H072        5.6500   -0.9330    3.6640 h1        1 J07      0.086950
     37 H081        5.3470    2.1700    3.5410 hc        1 J07      0.075950
     38 H082        6.7160    1.2150    4.2420 hc        1 J07      0.075950
     39 H09         5.1980    0.1530    5.9130 h1        1 J07      0.098700
     40 H101        2.7970    0.8280    6.0920 hc        1 J07      0.075950
     41 H102        2.9610    1.9210    4.6550 hc        1 J07      0.075950
     42 H111        3.4480   -1.1560    4.7710 h1        1 J07      0.086950
     43 H112        1.9900   -0.3450    4.0650 h1        1 J07      0.086950
     44 HN12        5.1980    3.1130    5.8490 hn        1 J07      0.429800
     45 H17         4.0850    0.0440   10.0360 h4        1 J07      0.042100
     46 H22         3.3960    5.6700    7.8510 ha        1 J07      0.134000
     47 H23         2.8100    8.0800    7.5880 ha        1 J07      0.129000
     48 H24         3.3250    9.7240    9.3610 ha        1 J07      0.137000
     49 H25         4.4480    9.0250   11.4790 ha        1 J07      0.140000
     50 HN27        5.5010    6.6920   12.7400 hn        1 J07      0.309700
     51 H28         5.7510    4.2180   12.2800 h4        1 J07      0.181000
     52 H032        1.3940    0.9820    2.3240 hn        1 J07      0.452800
@<TRIPOS>BOND
     1    1    2 1   
     2    1   29 1   
     3    1   30 1   
     4    1   31 1   
     5    2    3 1   
     6    2   32 1   
     7    2   33 1   
     8    3    4 1   
     9    3   34 1   
    10    3   52 1   
    11    4    5 2   
    12    4    6 1   
    13    6    7 1   
    14    6   11 1   
    15    7    8 1   
    16    7   35 1   
    17    7   36 1   
    18    8    9 1   
    19    8   37 1   
    20    8   38 1   
    21    9   10 1   
    22    9   12 1   
    23    9   39 1   
    24   10   11 1   
    25   10   40 1   
    26   10   41 1   
    27   11   42 1   
    28   11   43 1   
    29   12   13 1   
    30   12   44 1   
    31   13   14 ar  
    32   13   18 ar  
    33   14   15 ar  
    34   15   16 ar  
    35   15   20 1   
    36   16   17 ar  
    37   16   19 1   
    38   17   18 ar  
    39   17   45 1   
    40   20   21 1   
    41   20   28 2   
    42   21   22 ar  
    43   21   26 ar  
    44   22   23 ar  
    45   22   46 1   
    46   23   24 ar  
    47   23   47 1   
    48   24   25 ar  
    49   24   48 1   
    50   25   26 ar  
    51   25   49 1   
    52   26   27 1   
    53   27   28 1   
    54   27   50 1   
    55   28   51 1   
@<TRIPOS>SUBSTRUCTURE
     1 J07         1 TEMP              0 ****  ****    0 ROOT
