@<TRIPOS>MOLECULE
J07
   51    45     1     0     0
SMALL
bcc


@<TRIPOS>ATOM
      1 C01        -8.4910   -1.3700   -0.6830 c3        1 J07     -0.247000
      2 C02        -7.6280   -0.3860   -1.4860 c3        1 J07     -0.047000
      3 N03        -6.2090   -0.5860   -1.1450 n         1 J07     -0.336000
      4 C04        -5.4190    0.5300   -0.6170 c2        1 J07      0.357000
      5 O05        -5.9390    1.3490    0.1110 o         1 J07     -0.391000
      6 N06        -4.0160    0.6860   -1.0110 n         1 J07     -0.302000
      7 C07        -3.1880    1.7950   -0.5680 c3        1 J07     -0.035000
      8 C08        -1.8720    1.3240    0.0460 c3        1 J07     -0.181000
      9 C09        -1.1400    0.3640   -0.8490 c3        1 J07      0.006000
     10 C10        -2.0020   -0.7520   -1.2860 c3        1 J07     -0.181000
     11 C11        -3.3190   -0.2660   -1.8890 c3        1 J07     -0.035000
     12 N12         0.0220   -0.1890   -0.1120 n3        1 J07     -0.257000
     13 C13         1.3540    0.3040   -0.3850 c2        1 J07      0.144000
     14 N14         2.4100   -0.1680    0.3330 n2        1 J07     -0.223000
     15 C15         3.6650    0.1840   -0.0020 c1        1 J07      0.152000
     16 C16         3.8780    1.0120   -1.0570 c1        1 J07     -0.223000
     17 C17         2.8210    1.4870   -1.7760 c1        1 J07      0.001000
     18 N18         1.5670    1.1340   -1.4410 n1        1 J07     -0.210000
     19 CL1         5.4890    1.4870   -1.4710 cl        1 J07      0.022000
     20 C20         4.7400   -0.3230    0.7100 c1        1 J07     -0.141000
     21 C21         5.5560   -0.1070    1.7850 c1        1 J07     -0.048000
     22 C22         5.5990    0.9200    2.7440 c1        1 J07     -0.121750
     23 C23         6.5480    0.8900    3.7460 c1        1 J07     -0.121750
     24 C24         7.4640   -0.1570    3.8060 c1        1 J07     -0.121750
     25 C25         7.4220   -1.1720    2.8590 c1        1 J07     -0.121750
     26 C26         6.4610   -1.1420    1.8440 c1        1 J07     -0.008000
     27 N27         6.1970   -1.9990    0.7970 n1        1 J07     -0.211000
     28 C28         5.1410   -1.4990    0.0980 c1        1 J07     -0.018000
     29 H011       -9.4430   -1.2620   -0.9430 hc        1 J07      0.081667
     30 H012       -8.3920   -1.1830    0.2820 hc        1 J07      0.081667
     31 H013       -8.1970   -2.3050   -0.8730 hc        1 J07      0.081667
     32 H021       -7.7600   -0.5450   -2.4480 h1        1 J07      0.108000
     33 H022       -7.8970    0.5550   -1.2610 h1        1 J07      0.108000
     34 HN03       -5.8220   -1.4170   -1.2450 hn        1 J07      0.200000
     35 H071       -2.9920    2.3730   -1.3370 h1        1 J07      0.090000
     36 H072       -3.6880    2.3190    0.1100 h1        1 J07      0.090000
     37 H081       -2.0620    0.8810    0.9030 hc        1 J07      0.098000
     38 H082       -1.3100    2.0920    0.2080 hc        1 J07      0.098000
     39 H09        -0.8120    0.8550   -1.6530 h1        1 J07      0.129000
     40 H101       -2.1940   -1.3150   -0.5260 hc        1 J07      0.098000
     41 H102       -1.5050   -1.2960   -1.9790 hc        1 J07      0.098000
     42 H111       -3.1350    0.1680   -2.7410 h1        1 J07      0.090000
     43 H112       -3.9000   -1.0380   -2.0430 h1        1 J07      0.090000
     44 HN12       -0.1070   -0.8250    0.5370 hn        1 J07      0.216000
     45 H17         2.9750    2.0860   -2.5400 ha        1 J07      0.175000
     46 H22         4.9430    1.6700    2.7010 ha        1 J07      0.134000
     47 H23         6.5780    1.6010    4.4100 ha        1 J07      0.134000
     48 H24         8.1340   -0.1790    4.5130 ha        1 J07      0.134000
     49 H25         8.0700   -1.9130    2.9020 ha        1 J07      0.134000
     50 HN27        6.6600   -2.7830    0.6020 DU        1 J07      0.215000
     51 H28         4.7450   -1.8910   -0.6800 DU        1 J07      0.215000
@<TRIPOS>BOND
     1    1    2 1   
     2    1   29 1   
     3    1   30 1   
     4    1   31 1   
     5    2    3 1   
     6    2   32 1   
     7    2   33 1   
     8    3    4 1   
     9    3   34 1   
    10    4    5 1   
    11    4    6 1   
    12    6    7 1   
    13    6   11 1   
    14    7    8 1   
    15    7   35 1   
    16    7   36 1   
    17    8    9 1   
    18    8   37 1   
    19    8   38 1   
    20    9   10 1   
    21    9   12 1   
    22    9   39 1   
    23   10   11 1   
    24   10   40 1   
    25   10   41 1   
    26   11   42 1   
    27   11   43 1   
    28   12   13 1   
    29   12   44 1   
    30   13   14 1   
    31   13   18 1   
    32   14   15 1   
    33   16   17 1   
    34   16   19 1   
    35   17   45 1   
    36   20   21 1   
    37   20   28 1   
    38   21   26 1   
    39   22   23 1   
    40   22   46 1   
    41   23   47 1   
    42   24   25 1   
    43   24   48 1   
    44   25   49 1   
    45   27   28 1   
@<TRIPOS>SUBSTRUCTURE
     1 J07         1 TEMP              0 ****  ****    0 ROOT
