@<TRIPOS>MOLECULE
J07
   52    55     1     0     0
SMALL
bcc


@<TRIPOS>ATOM
      1 C01        -0.1500    0.7940    0.1200 c3        1 J07     -0.139100
      2 C02         1.3550    0.7540    0.2700 c3        1 J07      0.116800
      3 N03         1.7740    0.3240    1.6420 ny        1 J07     -0.666800
      4 C04         3.3050    0.2860    1.7910 c         1 J07      0.619100
      5 O05         3.9210    0.5690    0.7580 o         1 J07     -0.487100
      6 N06         3.8390   -0.1840    2.9740 n         1 J07     -0.389800
      7 C07         5.2800    0.0330    3.1670 c3        1 J07      0.060000
      8 C08         5.6060    1.2300    4.0530 c3        1 J07     -0.134900
      9 C09         4.8700    1.1210    5.4020 c3        1 J07      0.221500
     10 C10         3.3580    0.9850    5.1270 c3        1 J07     -0.134900
     11 C11         3.1030   -0.2230    4.2300 c3        1 J07      0.060000
     12 N12         5.2260    2.2190    6.2690 nu        1 J07     -0.825900
     13 C13         4.8580    2.1960    7.6350 ca        1 J07      0.853900
     14 N14         4.8920    3.4130    8.2920 nb        1 J07     -0.734000
     15 C15         4.6760    3.4120    9.6320 ca        1 J07      0.610100
     16 C16         4.3940    2.1960   10.3190 ca        1 J07     -0.272200
     17 C17         4.3480    1.0130    9.5550 ca        1 J07      0.468200
     18 N18         4.5630    0.9780    8.2330 nb        1 J07     -0.759000
     19 Cl1         4.0710    2.1110   11.9710 cl        1 J07     -0.049400
     20 C20         4.7290    4.6840   10.3230 cc        1 J07     -0.262000
     21 C21         4.2560    5.9610    9.8230 ca        1 J07     -0.049800
     22 C22         3.6170    6.3840    8.6560 ca        1 J07     -0.084000
     23 C23         3.2860    7.7240    8.5190 ca        1 J07     -0.149000
     24 C24         3.5770    8.6600    9.5270 ca        1 J07     -0.112000
     25 C25         4.2080    8.2840   10.7030 ca        1 J07     -0.131000
     26 C26         4.5500    6.9320   10.8540 ca        1 J07     -0.058200
     27 N27         5.1820    6.2640   11.9120 na        1 J07     -0.174400
     28 C28         5.2890    4.9210   11.5880 cd        1 J07     -0.035100
     29 H011       -0.6130   -0.2110    0.2760 hc        1 J07      0.079367
     30 H012       -0.3790    1.1220   -0.9270 hc        1 J07      0.079367
     31 H013       -0.6200    1.5260    0.8220 hc        1 J07      0.079367
     32 H021        1.8120    0.0310   -0.4680 hx        1 J07      0.119700
     33 H022        1.8050    1.7710    0.0790 hx        1 J07      0.119700
     34 HN03        1.3920   -0.6090    1.8300 hn        1 J07      0.452800
     35 H071        5.6610   -0.9150    3.6460 h1        1 J07      0.086950
     36 H072        5.7820    0.1540    2.1650 h1        1 J07      0.086950
     37 H081        6.7170    1.2370    4.2250 hc        1 J07      0.075950
     38 H082        5.3390    2.1860    3.5320 hc        1 J07      0.075950
     39 H09         5.2130    0.1630    5.9010 h1        1 J07      0.098700
     40 H101        2.8090    0.8230    6.0930 hc        1 J07      0.075950
     41 H102        2.9600    1.9210    4.6570 hc        1 J07      0.075950
     42 H111        2.0000   -0.3500    4.0660 h1        1 J07      0.086950
     43 H112        3.4660   -1.1550    4.7630 h1        1 J07      0.086950
     44 HN12        5.1960    3.1230    5.8430 hn        1 J07      0.429800
     45 H17         4.1210    0.0380   10.0280 h4        1 J07      0.042100
     46 H22         3.3860    5.6640    7.8590 ha        1 J07      0.134000
     47 H23         2.7850    8.0700    7.6030 ha        1 J07      0.129000
     48 H24         3.2970    9.7130    9.3770 ha        1 J07      0.137000
     49 H25         4.4330    9.0170   11.4890 ha        1 J07      0.140000
     50 HN27        5.5060    6.6890   12.7410 hn        1 J07      0.309700
     51 H28         5.7690    4.2170   12.2740 h4        1 J07      0.181000
     52 H032        1.3870    0.9760    2.3310 hn        1 J07      0.452800
@<TRIPOS>BOND
     1    1    2 1   
     2    1   29 1   
     3    1   30 1   
     4    1   31 1   
     5    2    3 1   
     6    2   32 1   
     7    2   33 1   
     8    3    4 1   
     9    3   34 1   
    10    3   52 1   
    11    4    5 2   
    12    4    6 1   
    13    6    7 1   
    14    6   11 1   
    15    7    8 1   
    16    7   35 1   
    17    7   36 1   
    18    8    9 1   
    19    8   37 1   
    20    8   38 1   
    21    9   10 1   
    22    9   12 1   
    23    9   39 1   
    24   10   11 1   
    25   10   40 1   
    26   10   41 1   
    27   11   42 1   
    28   11   43 1   
    29   12   13 1   
    30   12   44 1   
    31   13   14 ar  
    32   13   18 ar  
    33   14   15 ar  
    34   15   16 ar  
    35   15   20 1   
    36   16   17 ar  
    37   16   19 1   
    38   17   18 ar  
    39   17   45 1   
    40   20   21 1   
    41   20   28 2   
    42   21   22 ar  
    43   21   26 ar  
    44   22   23 ar  
    45   22   46 1   
    46   23   24 ar  
    47   23   47 1   
    48   24   25 ar  
    49   24   48 1   
    50   25   26 ar  
    51   25   49 1   
    52   26   27 1   
    53   27   28 1   
    54   27   50 1   
    55   28   51 1   
@<TRIPOS>SUBSTRUCTURE
     1 J07         1 TEMP              0 ****  ****    0 ROOT
