@<TRIPOS>MOLECULE
J07
   53    56     1     0     0
SMALL
bcc


@<TRIPOS>ATOM
      1 C01        -0.4360    1.3770    1.1050 c3        1 J07     -0.144100
      2 C02         0.8940    0.8230    1.5670 c3        1 J07      0.115800
      3 N03         2.0000    1.8310    1.4540 n4        1 J07     -0.660800
      4 C04         3.3580    1.2190    1.7700 c         1 J07      0.633100
      5 O05         4.0670    1.0660    0.7700 o         1 J07     -0.465100
      6 N06         3.6460    0.7930    3.0520 n         1 J07     -0.436800
      7 C07         4.8800    0.0320    3.2400 c3        1 J07      0.081500
      8 C08         5.9360    0.7560    4.0740 c3        1 J07     -0.132400
      9 C09         5.3180    1.1980    5.4060 c3        1 J07      0.127500
     10 C10         4.1170    2.1060    5.1280 c3        1 J07     -0.132400
     11 C11         3.0920    1.3580    4.2660 c3        1 J07      0.081500
     12 N12         6.3460    1.8680    6.2800 n4        1 J07     -0.738700
     13 C13         5.9470    1.8460    7.7250 ca        1 J07      0.688900
     14 N14         5.4070    2.9990    8.2100 nb        1 J07     -0.695000
     15 C15         5.0820    3.0130    9.5410 ca        1 J07      0.622100
     16 C16         5.2930    1.8320   10.3290 ca        1 J07     -0.204200
     17 C17         5.8590    0.7010    9.7010 ca        1 J07      0.462200
     18 N18         6.1960    0.6770    8.3970 nb        1 J07     -0.686000
     19 CL1         4.8620    1.7140   11.9430 cl        1 J07      0.026600
     20 C20         4.5350    4.2230   10.0780 cc        1 J07     -0.314000
     21 C21         3.7350    5.2100    9.3690 ca        1 J07     -0.040800
     22 C22         3.2080    5.3110    8.0820 ca        1 J07     -0.109000
     23 C23         2.4480    6.4240    7.7500 ca        1 J07     -0.128000
     24 C24         2.1940    7.4470    8.6800 ca        1 J07     -0.105000
     25 C25         2.6910    7.3840    9.9740 ca        1 J07     -0.102000
     26 C26         3.4610    6.2640   10.3180 ca        1 J07     -0.063200
     27 N27         4.0820    5.9290   11.5340 na        1 J07     -0.142400
     28 C28         4.7170    4.7200   11.3930 cd        1 J07      0.012900
     29 H011       -0.7650    2.2470    1.7240 hc        1 J07      0.090033
     30 H012       -0.4100    1.6820    0.0290 hc        1 J07      0.090033
     31 H013       -1.2020    0.5640    1.2120 hc        1 J07      0.090033
     32 H021        0.8340    0.4990    2.6450 hx        1 J07      0.110700
     33 H022        1.1870   -0.0670    0.9340 hx        1 J07      0.110700
     34 HN03        2.0500    2.1610    0.4750 hn        1 J07      0.468800
     35 H071        5.3310   -0.2360    2.2390 h1        1 J07      0.097700
     36 H072        4.5790   -0.9260    3.7600 h1        1 J07      0.097700
     37 H081        6.3420    1.6380    3.5110 hc        1 J07      0.094950
     38 H082        6.7810    0.0330    4.2410 hc        1 J07      0.094950
     39 H09         4.9670    0.2760    5.9670 hx        1 J07      0.131700
     40 H101        4.4480    3.0460    4.6120 hc        1 J07      0.094950
     41 H102        3.6090    2.4020    6.0860 hc        1 J07      0.094950
     42 H111        2.2430    2.0630    4.0520 h1        1 J07      0.097700
     43 H112        2.6740    0.4910    4.8640 h1        1 J07      0.097700
     44 HN12        6.4760    2.8450    5.9830 hn        1 J07      0.476300
     45 H17         6.0530   -0.2400   10.2600 h4        1 J07      0.083100
     46 H22         3.3880    4.5220    7.3400 ha        1 J07      0.109000
     47 H23         2.0300    6.5180    6.7360 ha        1 J07      0.130000
     48 H24         1.5870    8.3140    8.3750 ha        1 J07      0.156000
     49 H25         2.4870    8.1830   10.7020 ha        1 J07      0.160000
     50 HN27        4.0670    6.4890   12.3520 hn        1 J07      0.329700
     51 H28         5.2890    4.2860   12.2220 h4        1 J07      0.193000
     52 H032        1.8010    2.6370    2.0530 hn        1 J07      0.468800
     53 H122        7.2430    1.3680    6.1870 hn        1 J07      0.476300
@<TRIPOS>BOND
     1    1    2 1   
     2    1   29 1   
     3    1   30 1   
     4    1   31 1   
     5    2    3 1   
     6    2   32 1   
     7    2   33 1   
     8    3    4 1   
     9    3   34 1   
    10    3   52 1   
    11    4    5 2   
    12    4    6 1   
    13    6    7 1   
    14    6   11 1   
    15    7    8 1   
    16    7   35 1   
    17    7   36 1   
    18    8    9 1   
    19    8   37 1   
    20    8   38 1   
    21    9   10 1   
    22    9   12 1   
    23    9   39 1   
    24   10   11 1   
    25   10   40 1   
    26   10   41 1   
    27   11   42 1   
    28   11   43 1   
    29   12   13 1   
    30   12   44 1   
    31   12   53 1   
    32   13   14 ar  
    33   13   18 ar  
    34   14   15 ar  
    35   15   16 ar  
    36   15   20 1   
    37   16   17 ar  
    38   16   19 1   
    39   17   18 ar  
    40   17   45 1   
    41   20   21 1   
    42   20   28 2   
    43   21   22 ar  
    44   21   26 ar  
    45   22   23 ar  
    46   22   46 1   
    47   23   24 ar  
    48   23   47 1   
    49   24   25 ar  
    50   24   48 1   
    51   25   26 ar  
    52   25   49 1   
    53   26   27 1   
    54   27   28 1   
    55   27   50 1   
    56   28   51 1   
@<TRIPOS>SUBSTRUCTURE
     1 J07         1 TEMP              0 ****  ****    0 ROOT
