@<TRIPOS>MOLECULE
J0J
   60    59     1     0     0
SMALL
bcc


@<TRIPOS>ATOM
      1 N03        -6.9560    2.2050    1.8570 n3        1 J0J     -0.889800
      2 C02        -6.5330    1.5710    0.6200 c3        1 J0J      0.075500
      3 C01        -7.6970    0.9780   -0.1730 c3        1 J0J     -0.104100
      4 C04        -5.5020    0.4260    0.8260 c         1 J0J      0.607100
      5 O05        -5.3970   -0.1060    1.9540 o         1 J0J     -0.653100
      6 N06        -4.6940    0.1200   -0.2500 n         1 J0J     -0.480900
      7 C07        -4.2240   -1.2450   -0.4600 c3        1 J0J     -0.064300
      8 C30        -5.1720   -2.0290   -1.4410 c         1 J0J      0.903600
      9 O31        -6.0360   -1.3720   -2.0960 o         1 J0J     -0.841800
     10 C08        -2.7970   -1.2840   -1.0150 c3        1 J0J     -0.056400
     11 C09        -1.7790   -0.8280    0.0070 c3        1 J0J     -0.148400
     12 C10        -0.3690   -0.7670   -0.5590 c         1 J0J      0.656100
     13 O11        -0.1140   -0.9830   -1.7600 o         1 J0J     -0.620100
     14 O32        -5.0330   -3.2780   -1.4980 o         1 J0J     -0.841800
     15 C22         2.7150   -1.6100    0.8160 c         1 J0J      0.623100
     16 C13         2.0330   -0.4470    0.0290 c3        1 J0J      0.031700
     17 C14         2.8010    0.8260    0.4360 c3        1 J0J     -0.082400
     18 C15         2.3900    2.0620   -0.3360 c3        1 J0J     -0.075400
     19 C16         3.1510    3.2780    0.1600 c3        1 J0J     -0.068400
     20 C17         2.8530    4.5510   -0.6360 c3        1 J0J      0.030500
     21 C19         3.8350    5.6690   -0.1560 c         1 J0J      0.886600
     22 O23         2.3200   -1.8850    1.9770 o         1 J0J     -0.681100
     23 O20         3.3500    6.7380    0.3250 o         1 J0J     -0.857300
     24 O21         5.0740    5.4700   -0.2920 o         1 J0J     -0.857300
     25 N12         0.6240   -0.3800    0.3330 n         1 J0J     -0.547900
     26 N18         1.4500    4.9460   -0.6210 n3        1 J0J     -0.892800
     27 N24         3.7430   -2.2710    0.2150 n         1 J0J     -0.522900
     28 C25         4.5100   -3.3120    0.8640 c3        1 J0J     -0.025300
     29 C26         5.3700   -2.8060    2.0220 c3        1 J0J     -0.092100
     30 C27         5.4530   -4.0770   -0.1280 c         1 J0J      0.913600
     31 O28         5.7040   -3.5770   -1.2590 o         1 J0J     -0.844300
     32 O29         5.9240   -5.1730    0.2890 o         1 J0J     -0.844300
     33 HN03       -7.4480    1.5340    2.4190 hn        1 J0J      0.342300
     34 HN0A       -6.1410    2.4830    2.3720 hn        1 J0J      0.342300
     35 H02        -6.0510    2.3840   -0.0030 h1        1 J0J      0.065700
     36 H01        -8.2750    0.2550    0.4520 hc        1 J0J      0.051700
     37 H01A       -8.3860    1.7880   -0.5110 hc        1 J0J      0.051700
     38 H01B       -7.3080    0.4250   -1.0690 hc        1 J0J      0.051700
     39 HN06       -5.0030    0.5200   -1.1190 hn        1 J0J      0.296500
     40 H07        -4.2430   -1.7860    0.5300 h1        1 J0J      0.071700
     41 H08        -2.5890   -2.3460   -1.3160 hc        1 J0J      0.065700
     42 H08A       -2.7120   -0.6560   -1.9390 hc        1 J0J      0.065700
     43 H09        -2.0480    0.1950    0.3840 hc        1 J0J      0.061700
     44 H09A       -1.7920   -1.5280    0.8850 hc        1 J0J      0.061700
     45 H13         2.1420   -0.6040   -1.0840 h1        1 J0J      0.095700
     46 H14         2.6630    1.0050    1.5350 hc        1 J0J      0.045700
     47 H14A        3.8920    0.6280    0.2630 hc        1 J0J      0.045700
     48 H15         2.5930    1.9110   -1.4280 hc        1 J0J      0.044700
     49 H15A        1.2880    2.2330   -0.2270 hc        1 J0J      0.044700
     50 H16         2.9140    3.4480    1.2430 hc        1 J0J      0.041200
     51 H16A        4.2560    3.0950    0.0840 hc        1 J0J      0.041200
     52 H17         3.1060    4.3510   -1.7190 h1        1 J0J      0.043700
     53 HN12        0.4090   -0.4120    1.3040 hn        1 J0J      0.309500
     54 HN18        1.0480    4.6960    0.2650 hn        1 J0J      0.328300
     55 HN1A        1.4150    5.9520   -0.6780 hn        1 J0J      0.328300
     56 HN24        4.0350   -2.0360   -0.7090 hn        1 J0J      0.335500
     57 H25         3.7790   -4.0650    1.2830 h1        1 J0J      0.048700
     58 H26         5.9230   -3.6780    2.4470 hc        1 J0J      0.027367
     59 H26A        6.1100   -2.0500    1.6690 hc        1 J0J      0.027367
     60 H26B        4.7330   -2.3460    2.8160 hc        1 J0J      0.027367
@<TRIPOS>BOND
     1    1    2 1   
     2    1   33 1   
     3    1   34 1   
     4    2    3 1   
     5    2    4 1   
     6    2   35 1   
     7    3   36 1   
     8    3   37 1   
     9    3   38 1   
    10    4    5 2   
    11    4    6 1   
    12    6    7 1   
    13    6   39 1   
    14    7    8 1   
    15    7   10 1   
    16    7   40 1   
    17    8    9 1   
    18    8   14 1   
    19   10   11 1   
    20   10   41 1   
    21   10   42 1   
    22   11   12 1   
    23   11   43 1   
    24   11   44 1   
    25   12   13 2   
    26   12   25 1   
    27   15   16 1   
    28   15   22 2   
    29   15   27 1   
    30   16   17 1   
    31   16   25 1   
    32   16   45 1   
    33   17   18 1   
    34   17   46 1   
    35   17   47 1   
    36   18   19 1   
    37   18   48 1   
    38   18   49 1   
    39   19   20 1   
    40   19   50 1   
    41   19   51 1   
    42   20   21 1   
    43   20   26 1   
    44   20   52 1   
    45   21   23 1   
    46   21   24 1   
    47   25   53 1   
    48   26   54 1   
    49   26   55 1   
    50   27   28 1   
    51   27   56 1   
    52   28   29 1   
    53   28   30 1   
    54   28   57 1   
    55   29   58 1   
    56   29   59 1   
    57   29   60 1   
    58   30   31 1   
    59   30   32 1   
@<TRIPOS>SUBSTRUCTURE
     1 J0J         1 TEMP              0 ****  ****    0 ROOT
