@<TRIPOS>MOLECULE
J0J
   65    61     1     0     0
SMALL
bcc


@<TRIPOS>ATOM
      1 N03         3.2050    1.0710    1.2940 n4        1 J0J     -0.068000
      2 C02         3.9490    1.5300    0.0640 c3        1 J0J     -0.108000
      3 C01         3.3040    2.7720   -0.5290 c3        1 J0J     -0.250000
      4 C04         4.0740    0.3850   -0.9540 c2        1 J0J      0.093000
      5 O05         3.6980   -0.7550   -0.6700 o         1 J0J     -0.272000
      6 N06         4.5480    0.7150   -2.3830 n4        1 J0J      0.135000
      7 C07         3.5350    1.1970   -3.1980 c2        1 J0J     -0.599000
      8 C30         7.4780    3.5220   -1.3490 c1        1 J0J      0.474000
      9 O31         6.4790    2.8870   -1.1570 o         1 J0J     -0.237250
     10 C08         2.5270    0.3120   -3.8010 c3        1 J0J     -0.058000
     11 C09         3.0770   -0.3760   -5.0450 c3        1 J0J     -0.191000
     12 C10         2.0280   -1.2520   -5.6560 c2        1 J0J      0.285000
     13 O11         0.8220   -1.2570   -5.4660 o         1 J0J     -0.185000
     14 O32         8.4630    4.1430   -1.5420 o         1 J0J     -0.237250
     15 C22         2.9510   -0.6240   -8.4470 c2        1 J0J      0.192000
     16 C13         3.4630   -1.8310   -7.6630 c3        1 J0J     -0.158000
     17 C14         3.8730   -2.9420   -8.6380 c3        1 J0J     -0.174000
     18 C15         4.8500   -3.9350   -8.0410 c3        1 J0J     -0.169000
     19 C16         6.2490   -3.3620   -7.8730 c3        1 J0J     -0.175000
     20 C17         6.7480   -3.5520   -6.4380 c3        1 J0J     -0.166000
     21 C19         5.9250   -2.6190   -5.4910 c2        1 J0J      0.350000
     22 O23         1.9210   -0.0340   -8.1420 o         1 J0J     -0.250000
     23 O20         6.4150   -1.4930   -5.1890 o         1 J0J     -0.557500
     24 O21         4.8020   -3.0330   -5.1110 o         1 J0J     -0.557500
     25 N12         2.5080   -2.3240   -6.6220 n4        1 J0J     -0.107000
     26 N18         8.2060   -3.2390   -6.3050 n4        1 J0J     -0.053000
     27 N24         5.7920    0.5540   -7.5610 n2        1 J0J     -0.328000
     28 C25         6.2210    1.6480   -8.0700 c2        1 J0J     -0.027000
     29 C26         5.7880    2.1700   -9.4000 c3        1 J0J     -0.211000
     30 C27         7.9910   -0.8780   -3.4470 c1        1 J0J      0.474000
     31 O28         7.2690   -0.1680   -2.8200 o         1 J0J     -0.237250
     32 O29         8.7480   -1.5800   -4.0410 o         1 J0J     -0.237250
     33 HN03        3.5140    0.1240    1.5480 hn        1 J0J      0.263000
     34 HN0A        3.3740    1.7150    2.0700 hn        1 J0J      0.263000
     35 H02         5.0080    1.7800    0.3940 hx        1 J0J      0.175000
     36 H01         4.0260    3.2320   -1.2530 hc        1 J0J      0.128333
     37 H01A        2.3590    2.5250   -1.0730 hc        1 J0J      0.128333
     38 H01B        3.0860    3.5370    0.2580 hc        1 J0J      0.128333
     39 HN06        4.9200   -0.1780   -2.7400 hn        1 J0J      0.256500
     40 H07         3.3730    2.2790   -3.2090 hx        1 J0J      0.161000
     41 H08         1.6310    0.9250   -4.0890 hc        1 J0J      0.098000
     42 H08A        2.1750   -0.4760   -3.0770 hc        1 J0J      0.098000
     43 H09         3.3700    0.3960   -5.8110 hc        1 J0J      0.156500
     44 H09A        3.9970   -0.9790   -4.7910 hc        1 J0J      0.156500
     45 H13         4.3890   -1.4850   -7.0960 hx        1 J0J      0.191000
     46 H14         2.9660   -3.4930   -9.0080 hc        1 J0J      0.124000
     47 H14A        4.3450   -2.4530   -9.5340 hc        1 J0J      0.124000
     48 H15         4.9020   -4.8230   -8.7280 hc        1 J0J      0.116500
     49 H15A        4.4650   -4.3130   -7.0550 hc        1 J0J      0.116500
     50 H16         6.2620   -2.2670   -8.1250 hc        1 J0J      0.109000
     51 H16A        6.9390   -3.8780   -8.5940 hc        1 J0J      0.109000
     52 H17         6.5970   -4.6240   -6.1160 hx        1 J0J      0.158000
     53 HN12        1.6910   -2.7480   -7.0780 hn        1 J0J      0.267000
     54 HN18        8.7320   -3.5690   -7.1140 hn        1 J0J      0.257000
     55 HN1A        8.5730   -3.6650   -5.4490 hn        1 J0J      0.257000
     56 HN24        3.6210   -0.3210   -9.2800 h4        1 J0J      0.159000
     57 H25         6.9580    2.3180   -7.5680 h4        1 J0J      0.097000
     58 H26         5.0530    1.5060   -9.9160 hc        1 J0J      0.104667
     59 H26A        6.6870    2.2850  -10.0560 hc        1 J0J      0.104667
     60 H26B        5.3210    3.1770   -9.2600 hc        1 J0J      0.104667
     61 H033        2.1990    1.0400    1.0960 hn        1 J0J      0.263000
     62 H062        5.3060    1.3950   -2.2850 hn        1 J0J      0.256500
     63 H122        3.0000   -3.0460   -6.0630 hn        1 J0J      0.267000
     64 H183        8.3060   -2.2140   -6.2070 hn        1 J0J      0.257000
     65 H242        6.1580    0.3160   -6.6610 hn        1 J0J      0.155000
@<TRIPOS>BOND
     1    1    2 1   
     2    1   33 1   
     3    1   34 1   
     4    1   61 1   
     5    2    3 1   
     6    2    4 1   
     7    2   35 1   
     8    3   36 1   
     9    3   37 1   
    10    3   38 1   
    11    4    5 1   
    12    4    6 1   
    13    6    7 1   
    14    6   39 1   
    15    6   62 1   
    16    7   10 1   
    17    7   40 1   
    18    8    9 1   
    19    8   14 1   
    20   10   11 1   
    21   10   41 1   
    22   10   42 1   
    23   11   12 1   
    24   11   43 1   
    25   11   44 1   
    26   12   13 1   
    27   12   25 1   
    28   15   16 1   
    29   15   22 1   
    30   15   56 1   
    31   16   17 1   
    32   16   25 1   
    33   16   45 1   
    34   17   18 1   
    35   17   46 1   
    36   17   47 1   
    37   18   19 1   
    38   18   48 1   
    39   18   49 1   
    40   19   20 1   
    41   19   50 1   
    42   19   51 1   
    43   20   21 1   
    44   20   26 1   
    45   20   52 1   
    46   21   23 1   
    47   21   24 1   
    48   25   53 1   
    49   25   63 1   
    50   26   54 1   
    51   26   55 1   
    52   26   64 1   
    53   27   28 1   
    54   27   65 1   
    55   28   29 1   
    56   28   57 1   
    57   29   58 1   
    58   29   59 1   
    59   29   60 1   
    60   30   31 1   
    61   30   32 1   
@<TRIPOS>SUBSTRUCTURE
     1 J0J         1 TEMP              0 ****  ****    0 ROOT
