@<TRIPOS>MOLECULE
J0J
   65    63     1     0     0
SMALL
bcc


@<TRIPOS>ATOM
      1 N03         3.7240    1.7490    1.8030 n4        1 J0J     -0.063000
      2 C02         3.6880    2.2430    0.3810 c3        1 J0J     -0.120000
      3 C01         2.4330    3.0590    0.1170 c3        1 J0J     -0.252000
      4 C04         3.8100    1.0680   -0.6060 c2        1 J0J      0.105000
      5 O05         3.8230   -0.0970   -0.2090 o         1 J0J     -0.256000
      6 N06         3.8050    1.4030   -2.1040 n4        1 J0J      0.134000
      7 C07         2.5490    1.3440   -2.6910 c2        1 J0J     -0.613000
      8 C30         6.9530    3.8090   -2.3010 c1        1 J0J      0.464000
      9 O31         6.0450    3.3880   -1.6400 o         1 J0J     -0.230000
     10 C08         2.0530    0.1300   -3.3560 c3        1 J0J     -0.049000
     11 C09         2.6410    0.0600   -4.7640 c3        1 J0J     -0.192000
     12 C10         2.1500   -1.1360   -5.5150 c2        1 J0J      0.270000
     13 O11         1.4760   -2.0790   -5.1370 o         1 J0J     -0.178000
     14 O32         7.8480    4.2290   -2.9490 o         1 J0J     -0.230000
     15 C22         4.8510   -0.2490   -6.9970 c2        1 J0J      0.294000
     16 C13         3.9890   -1.5250   -7.1850 c3        1 J0J     -0.106000
     17 C14         4.2670   -2.1240   -8.5680 c3        1 J0J     -0.189000
     18 C15         3.9620   -3.6120   -8.6260 c3        1 J0J     -0.162000
     19 C16         5.0620   -4.3970   -9.3220 c3        1 J0J     -0.163000
     20 C17         6.1490   -4.8330   -8.3350 c3        1 J0J     -0.175000
     21 C19         6.5890   -3.6150   -7.4500 c2        1 J0J      0.325000
     22 O23         4.3270    0.8750   -7.1680 o         1 J0J     -0.395000
     23 O20         7.4890   -2.8650   -7.9140 o         1 J0J     -0.530000
     24 O21         5.9830   -3.4440   -6.3640 o         1 J0J     -0.530000
     25 N12         2.5370   -1.1890   -6.9910 n4        1 J0J     -0.118000
     26 N18         7.3600   -5.3630   -9.0420 n4        1 J0J     -0.057000
     27 N24         6.1500   -0.4350   -6.6300 n         1 J0J     -0.326000
     28 C25         6.9970    0.6840   -6.2930 c3        1 J0J      0.012000
     29 C26         8.4810    0.3170   -6.3420 c3        1 J0J     -0.236000
     30 C27         6.6700    1.2490   -4.9100 c2        1 J0J      0.315000
     31 O28         7.2980    2.3730   -4.4670 oh        1 J0J     -0.313000
     32 O29         5.8430    0.8250   -4.0940 o         1 J0J     -0.390000
     33 HN03        3.6920    2.5400    2.4530 hn        1 J0J      0.263667
     34 HN0A        4.5790    1.2030    1.9570 hn        1 J0J      0.263667
     35 H02         4.6090    2.8970    0.2390 hx        1 J0J      0.180000
     36 H01         2.5360    3.5740   -0.8730 hc        1 J0J      0.128667
     37 H01A        2.2890    3.8520    0.8930 hc        1 J0J      0.128667
     38 H01B        1.5230    2.4100    0.0810 hc        1 J0J      0.128667
     39 HN06        4.2020    2.3440   -2.1800 hn        1 J0J      0.258500
     40 H07         1.8660    2.1750   -2.5000 hx        1 J0J      0.160000
     41 H08         2.3170   -0.8110   -2.8000 hc        1 J0J      0.101000
     42 H08A        0.9340    0.1770   -3.4220 hc        1 J0J      0.101000
     43 H09         2.3840    1.0010   -5.3270 hc        1 J0J      0.153500
     44 H09A        3.7670    0.0090   -4.7090 hc        1 J0J      0.153500
     45 H13         4.2670   -2.2890   -6.3850 hx        1 J0J      0.215000
     46 H14         3.6980   -1.5760   -9.3660 hc        1 J0J      0.134000
     47 H14A        5.3620   -1.9540   -8.7820 hc        1 J0J      0.134000
     48 H15         3.8210   -4.0280   -7.5910 hc        1 J0J      0.108500
     49 H15A        3.0040   -3.7740   -9.1890 hc        1 J0J      0.108500
     50 H16         5.5060   -3.7720  -10.1420 hc        1 J0J      0.105000
     51 H16A        4.6100   -5.3100   -9.7960 hc        1 J0J      0.105000
     52 H17         5.7510   -5.6460   -7.6630 hx        1 J0J      0.154000
     53 HN12        1.9740   -1.9010   -7.4710 hn        1 J0J      0.260000
     54 HN18        7.9620   -4.5510   -9.2720 hn        1 J0J      0.255000
     55 HN1A        7.8770   -5.9840   -8.4170 hn        1 J0J      0.255000
     56 HN24        7.9530    2.6910   -5.1070 ho        1 J0J      0.263000
     57 H25         6.7880    1.5250   -7.0290 h1        1 J0J      0.147000
     58 H26         9.0960    1.2410   -6.2200 hc        1 J0J      0.114667
     59 H26A        8.7320   -0.1530   -7.3260 hc        1 J0J      0.114667
     60 H26B        8.7440   -0.4070   -5.5330 hc        1 J0J      0.114667
     61 H033        2.9170    1.1360    1.9710 hn        1 J0J      0.263667
     62 H062        4.4450    0.7160   -2.5300 hn        1 J0J      0.258500
     63 H122        2.3570   -0.2660   -7.4140 hn        1 J0J      0.260000
     64 H183        7.1060   -5.8610   -9.8950 hn        1 J0J      0.255000
     65 H242        6.5390   -1.3620   -6.5460 hn        1 J0J      0.309000
@<TRIPOS>BOND
     1    1    2 1   
     2    1   33 1   
     3    1   34 1   
     4    1   61 1   
     5    2    3 1   
     6    2    4 1   
     7    2   35 1   
     8    3   36 1   
     9    3   37 1   
    10    3   38 1   
    11    4    5 1   
    12    4    6 1   
    13    6    7 1   
    14    6   39 1   
    15    6   62 1   
    16    7   10 1   
    17    7   40 1   
    18    8    9 1   
    19    8   14 1   
    20   10   11 1   
    21   10   41 1   
    22   10   42 1   
    23   11   12 1   
    24   11   43 1   
    25   11   44 1   
    26   12   13 1   
    27   12   25 1   
    28   15   16 1   
    29   15   22 1   
    30   15   27 1   
    31   16   17 1   
    32   16   25 1   
    33   16   45 1   
    34   17   18 1   
    35   17   46 1   
    36   17   47 1   
    37   18   19 1   
    38   18   48 1   
    39   18   49 1   
    40   19   20 1   
    41   19   50 1   
    42   19   51 1   
    43   20   21 1   
    44   20   26 1   
    45   20   52 1   
    46   21   23 1   
    47   21   24 1   
    48   25   53 1   
    49   25   63 1   
    50   26   54 1   
    51   26   55 1   
    52   26   64 1   
    53   27   28 1   
    54   27   65 1   
    55   28   29 1   
    56   28   30 1   
    57   28   57 1   
    58   29   58 1   
    59   29   59 1   
    60   29   60 1   
    61   30   31 1   
    62   30   32 1   
    63   31   56 1   
@<TRIPOS>SUBSTRUCTURE
     1 J0J         1 TEMP              0 ****  ****    0 ROOT
