@<TRIPOS>MOLECULE
J0J
   65    63     1     0     0
SMALL
bcc


@<TRIPOS>ATOM
      1 N03         3.6580    2.0870    1.6740 nz        1 J0J     -0.063000
      2 C02         3.6090    2.5010    0.2260 c3        1 J0J     -0.120000
      3 C01         2.3300    3.2640   -0.0820 c3        1 J0J     -0.252000
      4 C04         3.7650    1.2760   -0.6940 c2        1 J0J      0.105000
      5 O05         3.8130    0.1360   -0.2330 o         1 J0J     -0.256000
      6 N06         3.7510    1.5280   -2.2080 ny        1 J0J      0.134000
      7 C07         2.4970    1.3990   -2.7890 c2        1 J0J     -0.614000
      8 C30         6.8260    4.0110   -2.5430 c1        1 J0J      0.464000
      9 O31         5.9310    3.6010   -1.8580 o         1 J0J     -0.230000
     10 C08         2.0380    0.1360   -3.3860 c3        1 J0J     -0.049000
     11 C09         2.6280    0.0060   -4.7890 c3        1 J0J     -0.192000
     12 C10         2.1720   -1.2430   -5.4720 c2        1 J0J      0.270000
     13 O11         1.5260   -2.1840   -5.0410 o         1 J0J     -0.178000
     14 O32         7.7080    4.4210   -3.2140 o         1 J0J     -0.230000
     15 C22         4.8460   -0.3610   -7.0050 c2        1 J0J      0.294000
     16 C13         4.0220   -1.6700   -7.1200 c3        1 J0J     -0.106000
     17 C14         4.3170   -2.3360   -8.4690 c3        1 J0J     -0.189000
     18 C15         4.0570   -3.8340   -8.4440 c3        1 J0J     -0.162000
     19 C16         5.1800   -4.6230   -9.0970 c3        1 J0J     -0.163000
     20 C17         6.2790   -4.9710   -8.0890 c3        1 J0J     -0.175000
     21 C19         6.6830   -3.6940   -7.2730 c2        1 J0J      0.325000
     22 O23         4.2890    0.7370   -7.2360 o         1 J0J     -0.395000
     23 O20         7.5600   -2.9440   -7.7790 o         1 J0J     -0.530000
     24 O21         6.0720   -3.4810   -6.1970 o         1 J0J     -0.530000
     25 N12         2.5600   -1.3670   -6.9430 ny        1 J0J     -0.118000
     26 N18         7.5050   -5.5030   -8.7680 nz        1 J0J     -0.057000
     27 N24         6.1490   -0.4880   -6.6300 ns        1 J0J     -0.326000
     28 C25         6.9640    0.6720   -6.3560 c3        1 J0J      0.012000
     29 C26         8.4580    0.3480   -6.3860 c3        1 J0J     -0.236000
     30 C27         6.6190    1.3040   -5.0050 c2        1 J0J      0.315000
     31 O28         7.2140    2.4680   -4.6270 oh        1 J0J     -0.313000
     32 O29         5.8050    0.9010   -4.1660 o         1 J0J     -0.390000
     33 HN03        2.8680    1.4630    1.8770 hn        1 J0J      0.263667
     34 HN0A        3.6040    2.9110    2.2790 hn        1 J0J      0.263667
     35 H02         4.5100    3.1720    0.0480 hx        1 J0J      0.180000
     36 H01         2.1620    4.0930    0.6500 hc        1 J0J      0.128667
     37 H01A        2.4190    3.7250   -1.0980 hc        1 J0J      0.128667
     38 H01B        1.4390    2.5880   -0.0800 hc        1 J0J      0.128667
     39 HN06        4.1200    2.4740   -2.3370 hn        1 J0J      0.258500
     40 H07         1.7900    2.2190   -2.6430 hx        1 J0J      0.160000
     41 H08         2.3290   -0.7650   -2.7790 hc        1 J0J      0.101000
     42 H08A        0.9170    0.1460   -3.4530 hc        1 J0J      0.101000
     43 H09         3.7550   -0.0090   -4.7330 hc        1 J0J      0.153500
     44 H09A        2.3430    0.9060   -5.4020 hc        1 J0J      0.153500
     45 H13         4.3230   -2.3800   -6.2790 hx        1 J0J      0.215000
     46 H14         3.7330   -1.8500   -9.2940 hc        1 J0J      0.134000
     47 H14A        5.4070   -2.1460   -8.6930 hc        1 J0J      0.134000
     48 H15         3.9280   -4.1960   -7.3880 hc        1 J0J      0.108500
     49 H15A        3.1040   -4.0550   -8.9960 hc        1 J0J      0.108500
     50 H16         5.6050   -4.0310   -9.9510 hc        1 J0J      0.105000
     51 H16A        4.7550   -5.5730   -9.5190 hc        1 J0J      0.105000
     52 H17         5.9050   -5.7580   -7.3720 hx        1 J0J      0.154000
     53 HN12        2.0190   -2.1210   -7.3820 hn        1 J0J      0.260000
     54 HN18        7.2660   -6.0550   -9.5910 hn        1 J0J      0.255000
     55 HN1A        8.0400   -6.0740   -8.1100 hn        1 J0J      0.255000
     56 HN24        7.8590    2.7700   -5.2840 ho        1 J0J      0.263000
     57 H25         6.7300    1.4650   -7.1370 h1        1 J0J      0.147000
     58 H26         8.7420   -0.3230   -5.5390 hc        1 J0J      0.114667
     59 H26A        9.0450    1.2950   -6.3170 hc        1 J0J      0.114667
     60 H26B        8.7230   -0.1690   -7.3430 hc        1 J0J      0.114667
     61 H033        4.5270    1.5730    1.8570 hn        1 J0J      0.263667
     62 H062        4.4110    0.8380   -2.5960 hn        1 J0J      0.258500
     63 H122        2.3540   -0.4740   -7.4150 hn        1 J0J      0.260000
     64 H183        8.0820   -4.6880   -9.0430 hn        1 J0J      0.255000
     65 H242        6.5660   -1.3970   -6.4950 hn        1 J0J      0.309000
@<TRIPOS>BOND
     1    1    2 1   
     2    1   33 1   
     3    1   34 1   
     4    1   61 1   
     5    2    3 1   
     6    2    4 1   
     7    2   35 1   
     8    3   36 1   
     9    3   37 1   
    10    3   38 1   
    11    4    5 1   
    12    4    6 1   
    13    6    7 1   
    14    6   39 1   
    15    6   62 1   
    16    7   10 1   
    17    7   40 1   
    18    8    9 1   
    19    8   14 1   
    20   10   11 1   
    21   10   41 1   
    22   10   42 1   
    23   11   12 1   
    24   11   43 1   
    25   11   44 1   
    26   12   13 1   
    27   12   25 1   
    28   15   16 1   
    29   15   22 1   
    30   15   27 1   
    31   16   17 1   
    32   16   25 1   
    33   16   45 1   
    34   17   18 1   
    35   17   46 1   
    36   17   47 1   
    37   18   19 1   
    38   18   48 1   
    39   18   49 1   
    40   19   20 1   
    41   19   50 1   
    42   19   51 1   
    43   20   21 1   
    44   20   26 1   
    45   20   52 1   
    46   21   23 1   
    47   21   24 1   
    48   25   53 1   
    49   25   63 1   
    50   26   54 1   
    51   26   55 1   
    52   26   64 1   
    53   27   28 1   
    54   27   65 1   
    55   28   29 1   
    56   28   30 1   
    57   28   57 1   
    58   29   58 1   
    59   29   59 1   
    60   29   60 1   
    61   30   31 1   
    62   30   32 1   
    63   31   56 1   
@<TRIPOS>SUBSTRUCTURE
     1 J0J         1 TEMP              0 ****  ****    0 ROOT
