@<TRIPOS>MOLECULE
J0Z
   21    21     1     0     0
SMALL
bcc


@<TRIPOS>ATOM
      1 CAA         0.1970    0.6110    0.0400 c3        1 J0Z     -0.150100
      2 CAJ         1.5180   -0.0750    0.0580 c         1 J0Z      0.633100
      3 OAB         2.0170   -0.7640    0.9500 o         1 J0Z     -0.544000
      4 OAI         2.2350    0.1190   -1.0910 os        1 J0Z     -0.441900
      5 CAH         3.5230   -0.5220   -1.1570 c3        1 J0Z      0.183700
      6 CAK         4.1010   -0.2670   -2.5070 ca        1 J0Z     -0.093300
      7 CAF         3.8020    0.8950   -3.2240 ca        1 J0Z     -0.113500
      8 CAD         4.3870    1.1180   -4.4700 ca        1 J0Z     -0.131000
      9 CAC         5.2760    0.1860   -5.0030 ca        1 J0Z     -0.126000
     10 CAE         5.5770   -0.9750   -4.2900 ca        1 J0Z     -0.131000
     11 CAG         4.9900   -1.2050   -3.0470 ca        1 J0Z     -0.113500
     12 HAA        -0.6070   -0.1510    0.1910 hc        1 J0Z      0.077033
     13 HAAA        0.1620    1.3490    0.8780 hc        1 J0Z      0.077033
     14 HAAB        0.0320    1.1390   -0.9300 hc        1 J0Z      0.077033
     15 HAH         4.1750   -0.0850   -0.3530 h1        1 J0Z      0.062200
     16 HAHA        3.3890   -1.6200   -0.9630 h1        1 J0Z      0.062200
     17 HAF         3.0960    1.6260   -2.8010 ha        1 J0Z      0.138500
     18 HAD         4.1460    2.0330   -5.0310 ha        1 J0Z      0.132500
     19 HAC         5.7390    0.3640   -5.9840 ha        1 J0Z      0.132000
     20 HAE         6.2770   -1.7120   -4.7090 ha        1 J0Z      0.132500
     21 HAG         5.2240   -2.1240   -2.4890 ha        1 J0Z      0.138500
@<TRIPOS>BOND
     1    1    2 1   
     2    1   12 1   
     3    1   13 1   
     4    1   14 1   
     5    2    3 2   
     6    2    4 1   
     7    4    5 1   
     8    5    6 1   
     9    5   15 1   
    10    5   16 1   
    11    6    7 ar  
    12    6   11 ar  
    13    7    8 ar  
    14    7   17 1   
    15    8    9 ar  
    16    8   18 1   
    17    9   10 ar  
    18    9   19 1   
    19   10   11 ar  
    20   10   20 1   
    21   11   21 1   
@<TRIPOS>SUBSTRUCTURE
     1 J0Z         1 TEMP              0 ****  ****    0 ROOT
