@<TRIPOS>MOLECULE
J0Z
   21    21     1     0     0
SMALL
bcc


@<TRIPOS>ATOM
      1 CAA         0.0710   -0.0010   -0.1000 c3        1 J0Z     -0.150100
      2 CAJ         1.5500    0.0010    0.0730 c         1 J0Z      0.630100
      3 OAB         2.2050    0.0040    1.1170 o         1 J0Z     -0.545000
      4 OAI         2.2240   -0.0030   -1.1170 os        1 J0Z     -0.438900
      5 CAH         3.6640   -0.0020   -1.0380 c3        1 J0Z      0.185700
      6 CAK         4.1790   -0.0030   -2.4380 ca        1 J0Z     -0.095300
      7 CAF         4.4310    1.2060   -3.0950 ca        1 J0Z     -0.106000
      8 CAD         4.9420    1.2020   -4.3920 ca        1 J0Z     -0.135000
      9 CAC         5.1990   -0.0060   -5.0400 ca        1 J0Z     -0.119000
     10 CAE         4.9430   -1.2130   -4.3890 ca        1 J0Z     -0.135000
     11 CAG         4.4320   -1.2130   -3.0920 ca        1 J0Z     -0.106000
     12 HAA        -0.2390   -0.9110   -0.6680 hc        1 J0Z      0.076367
     13 HAAA       -0.4180    0.0030    0.9030 hc        1 J0Z      0.076367
     14 HAAB       -0.2400    0.9040   -0.6760 hc        1 J0Z      0.076367
     15 HAH         3.9880    0.9140   -0.4760 h1        1 J0Z      0.058700
     16 HAHA        3.9900   -0.9150   -0.4730 h1        1 J0Z      0.058700
     17 HAF         4.2240    2.1590   -2.5860 ha        1 J0Z      0.135000
     18 HAD         5.1410    2.1550   -4.9050 ha        1 J0Z      0.133000
     19 HAC         5.6030   -0.0070   -6.0630 ha        1 J0Z      0.132000
     20 HAE         5.1430   -2.1670   -4.8990 ha        1 J0Z      0.133000
     21 HAG         4.2260   -2.1650   -2.5800 ha        1 J0Z      0.135000
@<TRIPOS>BOND
     1    1    2 1   
     2    1   12 1   
     3    1   13 1   
     4    1   14 1   
     5    2    3 2   
     6    2    4 1   
     7    4    5 1   
     8    5    6 1   
     9    5   15 1   
    10    5   16 1   
    11    6    7 ar  
    12    6   11 ar  
    13    7    8 ar  
    14    7   17 1   
    15    8    9 ar  
    16    8   18 1   
    17    9   10 ar  
    18    9   19 1   
    19   10   11 ar  
    20   10   20 1   
    21   11   21 1   
@<TRIPOS>SUBSTRUCTURE
     1 J0Z         1 TEMP              0 ****  ****    0 ROOT
