@<TRIPOS>MOLECULE
J0Z
   21    21     1     0     0
SMALL
bcc


@<TRIPOS>ATOM
      1 CAA         3.6070   -0.6310   -1.1370 c3        1 J0Z     -0.150100
      2 CAJ         2.7930    0.0680   -0.1050 c         1 J0Z      0.633100
      3 OAB         3.1760    0.7690    0.8340 o         1 J0Z     -0.544000
      4 OAI         1.4480   -0.1260   -0.2650 os        1 J0Z     -0.441900
      5 CAH         0.5910    0.5280    0.6890 c3        1 J0Z      0.183700
      6 CAK        -0.8240    0.2700    0.2960 ca        1 J0Z     -0.093300
      7 CAF        -1.1960   -0.9010   -0.3710 ca        1 J0Z     -0.113500
      8 CAD        -2.5340   -1.1270   -0.6940 ca        1 J0Z     -0.131000
      9 CAC        -3.5060   -0.1880   -0.3480 ca        1 J0Z     -0.126000
     10 CAE        -3.1370    0.9810    0.3180 ca        1 J0Z     -0.131000
     11 CAG        -1.8010    1.2140    0.6370 ca        1 J0Z     -0.113500
     12 HAA         4.2800   -1.3650   -0.6290 hc        1 J0Z      0.077033
     13 HAAA        2.9540   -1.1680   -1.8670 hc        1 J0Z      0.077033
     14 HAAB        4.2300    0.1230   -1.6770 hc        1 J0Z      0.077033
     15 HAH         0.8070    0.1030    1.7070 h1        1 J0Z      0.062200
     16 HAHA        0.8270    1.6260    0.6920 h1        1 J0Z      0.062200
     17 HAF        -0.4250   -1.6370   -0.6470 ha        1 J0Z      0.138500
     18 HAD        -2.8210   -2.0480   -1.2220 ha        1 J0Z      0.132500
     19 HAC        -4.5610   -0.3680   -0.6010 ha        1 J0Z      0.132000
     20 HAE        -3.9020    1.7240    0.5900 ha        1 J0Z      0.132500
     21 HAG        -1.5120    2.1390    1.1570 ha        1 J0Z      0.138500
@<TRIPOS>BOND
     1    1    2 1   
     2    1   12 1   
     3    1   13 1   
     4    1   14 1   
     5    2    3 2   
     6    2    4 1   
     7    4    5 1   
     8    5    6 1   
     9    5   15 1   
    10    5   16 1   
    11    6    7 ar  
    12    6   11 ar  
    13    7    8 ar  
    14    7   17 1   
    15    8    9 ar  
    16    8   18 1   
    17    9   10 ar  
    18    9   19 1   
    19   10   11 ar  
    20   10   20 1   
    21   11   21 1   
@<TRIPOS>SUBSTRUCTURE
     1 J0Z         1 TEMP              0 ****  ****    0 ROOT
