@<TRIPOS>MOLECULE
J11
   59    61     1     0     0
SMALL
bcc


@<TRIPOS>ATOM
      1 C1         -0.1880    0.6170   -0.1150 c3        1 J11      0.073800
      2 N1          1.2910    0.5160   -0.0520 ny        1 J11     -0.761000
      3 C2         -0.7390    0.2750   -1.5160 c3        1 J11      0.072800
      4 N2         -2.2220    0.3450   -1.5780 ny        1 J11     -0.763000
      5 C3         -2.7340   -0.0010   -2.9540 c3        1 J11      0.104800
      6 C4         -4.2620    0.0400   -3.0240 c3        1 J11     -0.046100
      7 N1'         2.8120   -1.3870    1.8610 n7        1 J11     -0.843200
      8 C11        -4.6750   -0.3870   -4.3900 ca        1 J11     -0.118300
      9 N11         6.0520    1.7650    1.2890 nb        1 J11     -0.782000
     10 C12        -4.6240   -1.7430   -4.7280 ca        1 J11     -0.174000
     11 C13        -5.0450   -2.1530   -6.0060 ca        1 J11      0.153900
     12 F13        -4.9910   -3.4610   -6.3370 f         1 J11     -0.111900
     13 C14        -5.5200   -1.2050   -6.9360 ca        1 J11     -0.124000
     14 C15        -5.5670    0.1380   -6.5760 ca        1 J11     -0.086000
     15 C16        -5.1450    0.5520   -5.3110 ca        1 J11     -0.123000
     16 C2'         1.6690   -0.5570    2.2080 c3        1 J11      0.135800
     17 C21         5.2510    2.3720    2.1950 ca        1 J11      0.418600
     18 C3'         1.8330    0.7300    1.3510 c3        1 J11      0.106500
     19 C31         5.6740    3.3970    3.0530 ca        1 J11     -0.291300
     20 C4'         3.3800    0.9160    1.2860 c3        1 J11     -0.074700
     21 C41         7.0080    3.8360    2.9730 ca        1 J11      0.021700
     22 C5'         3.9390   -0.4980    1.5730 c3        1 J11      0.141800
     23 C51         7.8540    3.2440    2.0450 ca        1 J11     -0.288300
     24 C61         7.3490    2.2040    1.1970 ca        1 J11      0.669200
     25 N61         8.1710    1.6750    0.2070 nv        1 J11     -0.939500
     26 C71         3.8120    1.9420    2.3170 c3        1 J11     -0.123700
     27 C81         7.4960    4.9020    3.8770 c3        1 J11     -0.073800
     28 H1         -0.4770    1.6710    0.1740 hx        1 J11      0.124700
     29 H1A        -0.6150   -0.0920    0.6570 hx        1 J11      0.124700
     30 HN1         1.7160    1.2180   -0.6720 hn        1 J11      0.468800
     31 H2         -0.4310   -0.7720   -1.8130 hx        1 J11      0.129200
     32 H2A        -0.3280    0.9950   -2.2850 hx        1 J11      0.129200
     33 HN2        -2.6350   -0.3100   -0.9010 hn        1 J11      0.461300
     34 H3         -2.2940    0.7390   -3.6830 hx        1 J11      0.118700
     35 H3A        -2.3680   -1.0370   -3.2120 hx        1 J11      0.118700
     36 H4         -4.7100   -0.6550   -2.2630 hc        1 J11      0.078700
     37 H4A        -4.6370    1.0770   -2.8120 hc        1 J11      0.078700
     38 HN1'        3.0250   -2.0570    2.5750 hn        1 J11      0.414800
     39 H12        -4.2850   -2.4990   -4.0060 ha        1 J11      0.141000
     40 H14        -5.8560   -1.5400   -7.9310 ha        1 J11      0.181000
     41 H15        -5.9490    0.8810   -7.2960 ha        1 J11      0.168000
     42 H16        -5.2040    1.6180   -5.0420 ha        1 J11      0.142000
     43 H2'         0.7250   -1.1250    1.9980 h1        1 J11      0.073200
     44 H2'A        1.6420   -0.2290    3.2880 h1        1 J11      0.073200
     45 H3'         1.3020    1.6140    1.7940 hx        1 J11      0.116700
     46 H31         4.9840    3.8490    3.7760 ha        1 J11      0.146000
     47 H4'         3.7200    1.2600    0.2720 hc        1 J11      0.093700
     48 H5'         4.4730   -0.9010    0.6690 h1        1 J11      0.090200
     49 H5'A        4.6870   -0.4510    2.4130 h1        1 J11      0.090200
     50 H51         8.8990    3.5740    1.9550 ha        1 J11      0.162000
     51 HN61        9.1470    1.8050    0.3450 hn        1 J11      0.424300
     52 HN6A        7.9050    0.8160   -0.2140 hn        1 J11      0.424300
     53 H71         3.1770    2.8640    2.2180 hc        1 J11      0.063200
     54 H71A        3.6570    1.5290    3.3510 hc        1 J11      0.063200
     55 H81         8.3860    5.4230    3.4450 hc        1 J11      0.064033
     56 H81A        7.7960    4.4550    4.8600 hc        1 J11      0.064033
     57 H81B        6.6970    5.6600    4.0670 hc        1 J11      0.064033
     58 H121        1.5990   -0.4180   -0.3650 hn        1 J11      0.468800
     59 H22        -2.5430    1.2920   -1.3360 hn        1 J11      0.461300
@<TRIPOS>BOND
     1    1    2 1   
     2    1    3 1   
     3    1   28 1   
     4    1   29 1   
     5    2   18 1   
     6    2   30 1   
     7    2   58 1   
     8    3    4 1   
     9    3   31 1   
    10    3   32 1   
    11    4    5 1   
    12    4   33 1   
    13    4   59 1   
    14    5    6 1   
    15    5   34 1   
    16    5   35 1   
    17    6    8 1   
    18    6   36 1   
    19    6   37 1   
    20    7   16 1   
    21    7   22 1   
    22    7   38 1   
    23    8   10 ar  
    24    8   15 ar  
    25    9   17 ar  
    26    9   24 ar  
    27   10   11 ar  
    28   10   39 1   
    29   11   12 1   
    30   11   13 ar  
    31   13   14 ar  
    32   13   40 1   
    33   14   15 ar  
    34   14   41 1   
    35   15   42 1   
    36   16   18 1   
    37   16   43 1   
    38   16   44 1   
    39   17   19 ar  
    40   17   26 1   
    41   18   20 1   
    42   18   45 1   
    43   19   21 ar  
    44   19   46 1   
    45   20   22 1   
    46   20   26 1   
    47   20   47 1   
    48   21   23 ar  
    49   21   27 1   
    50   22   48 1   
    51   22   49 1   
    52   23   24 ar  
    53   23   50 1   
    54   24   25 1   
    55   25   51 1   
    56   25   52 1   
    57   26   53 1   
    58   26   54 1   
    59   27   55 1   
    60   27   56 1   
    61   27   57 1   
@<TRIPOS>SUBSTRUCTURE
     1 J11         1 TEMP              0 ****  ****    0 ROOT
