@<TRIPOS>MOLECULE
J11
   60    62     1     0     0
SMALL
bcc


@<TRIPOS>ATOM
      1 C1         -0.0210    0.2150   -0.1880 c3        1 J11      0.073800
      2 N1          1.4420    0.4780   -0.2960 n4        1 J11     -0.759000
      3 C2         -0.7490    0.3410   -1.5460 c3        1 J11      0.074800
      4 N2         -2.2010    0.0380   -1.4520 n4        1 J11     -0.765000
      5 C3         -2.8780    0.1450   -2.8010 c3        1 J11      0.105800
      6 C4         -4.3630   -0.2180   -2.7220 c3        1 J11     -0.044100
      7 N1'         3.7490   -1.6740    0.9680 n3        1 J11     -0.797200
      8 C11        -4.9160   -0.1840   -4.1050 ca        1 J11     -0.123300
      9 N11         5.9540    1.7360    3.4300 nb        1 J11     -0.658000
     10 C12        -4.6040   -1.2190   -4.9920 ca        1 J11     -0.178000
     11 C13        -5.1570   -1.2120   -6.2850 ca        1 J11      0.155900
     12 F13        -4.8520   -2.2070   -7.1450 f         1 J11     -0.108900
     13 C14        -6.0270   -0.1730   -6.6800 ca        1 J11     -0.118000
     14 C15        -6.3270    0.8430   -5.7800 ca        1 J11     -0.084000
     15 C16        -5.7730    0.8470   -4.4970 ca        1 J11     -0.121000
     16 C2'         2.3740   -1.3430    1.2450 c3        1 J11      0.151800
     17 C21         5.1870    2.1870    2.4140 ca        1 J11      0.435600
     18 C3'         2.1660    0.1930    1.0040 c3        1 J11      0.072500
     19 C31         5.6220    3.2040    1.5300 ca        1 J11     -0.213300
     20 C4'         3.6090    0.7800    1.0240 c3        1 J11     -0.102700
     21 C41         6.8850    3.7780    1.6980 ca        1 J11      0.025700
     22 C5'         4.5440   -0.4610    1.0290 c3        1 J11      0.150800
     23 C51         7.6960    3.3260    2.7580 ca        1 J11     -0.193300
     24 C61         7.1790    2.3130    3.5870 ca        1 J11      0.467200
     25 N61         7.9920    1.8370    4.7300 n4        1 J11     -0.821300
     26 C71         3.7910    1.6330    2.2720 c3        1 J11     -0.134700
     27 C81         7.3770    4.8500    0.8050 c3        1 J11     -0.092800
     28 H1         -0.1540   -0.8280    0.2320 hx        1 J11      0.130700
     29 H1A        -0.4510    0.9520    0.5550 hx        1 J11      0.130700
     30 HN1         1.5970    1.4620   -0.5540 hn        1 J11      0.459800
     31 H2         -0.2990   -0.3730   -2.3000 hx        1 J11      0.129200
     32 H2A        -0.6440    1.3920   -1.9500 hx        1 J11      0.129200
     33 HN2        -2.6600    0.6910   -0.8040 hn        1 J11      0.463800
     34 H3         -2.7560    1.2050   -3.1650 hx        1 J11      0.118700
     35 H3A        -2.3510   -0.5580   -3.5100 hx        1 J11      0.118700
     36 H4         -4.4970   -1.2480   -2.2920 hc        1 J11      0.080200
     37 H4A        -4.9110    0.5100   -2.0660 hc        1 J11      0.080200
     38 HN1'        3.8760   -2.1890    0.1190 hn        1 J11      0.398800
     39 H12        -3.9580   -2.0560   -4.6900 ha        1 J11      0.137000
     40 H14        -6.4640   -0.1850   -7.6930 ha        1 J11      0.185000
     41 H15        -7.0160    1.6510   -6.0800 ha        1 J11      0.172000
     42 H16        -6.0370    1.6530   -3.7960 ha        1 J11      0.143000
     43 H2'         1.6590   -1.9870    0.6690 h1        1 J11      0.093200
     44 H2'A        2.1890   -1.5180    2.3470 h1        1 J11      0.093200
     45 H3'         1.5350    0.6380    1.8260 hx        1 J11      0.122700
     46 H31         4.9600    3.5520    0.7230 ha        1 J11      0.163000
     47 H4'         3.8250    1.4070    0.1190 hc        1 J11      0.069700
     48 H5'         5.1290   -0.4930    1.9920 h1        1 J11      0.091700
     49 H5'A        5.2780   -0.4040    0.1790 h1        1 J11      0.091700
     50 H51         8.6930    3.7730    2.9110 ha        1 J11      0.190000
     51 HN61        7.8680    0.8250    4.8750 hn        1 J11      0.481800
     52 HN6A        8.9830    2.0360    4.5460 hn        1 J11      0.481800
     53 H71         3.5200    1.0220    3.1780 hc        1 J11      0.087200
     54 H71A        3.0900    2.5110    2.2330 hc        1 J11      0.087200
     55 H81         8.3990    4.6030    0.4170 hc        1 J11      0.088367
     56 H81A        6.6940    5.0030   -0.0670 hc        1 J11      0.088367
     57 H81B        7.4470    5.8170    1.3690 hc        1 J11      0.088367
     58 H121        1.8470   -0.1130   -1.0320 hn        1 J11      0.459800
     59 H22        -2.3430   -0.9160   -1.0930 hn        1 J11      0.463800
     60 H613        7.6980    2.3320    5.5850 hn        1 J11      0.481800
@<TRIPOS>BOND
     1    1    2 1   
     2    1    3 1   
     3    1   28 1   
     4    1   29 1   
     5    2   18 1   
     6    2   30 1   
     7    2   58 1   
     8    3    4 1   
     9    3   31 1   
    10    3   32 1   
    11    4    5 1   
    12    4   33 1   
    13    4   59 1   
    14    5    6 1   
    15    5   34 1   
    16    5   35 1   
    17    6    8 1   
    18    6   36 1   
    19    6   37 1   
    20    7   16 1   
    21    7   22 1   
    22    7   38 1   
    23    8   10 ar  
    24    8   15 ar  
    25    9   17 ar  
    26    9   24 ar  
    27   10   11 ar  
    28   10   39 1   
    29   11   12 1   
    30   11   13 ar  
    31   13   14 ar  
    32   13   40 1   
    33   14   15 ar  
    34   14   41 1   
    35   15   42 1   
    36   16   18 1   
    37   16   43 1   
    38   16   44 1   
    39   17   19 ar  
    40   17   26 1   
    41   18   20 1   
    42   18   45 1   
    43   19   21 ar  
    44   19   46 1   
    45   20   22 1   
    46   20   26 1   
    47   20   47 1   
    48   21   23 ar  
    49   21   27 1   
    50   22   48 1   
    51   22   49 1   
    52   23   24 ar  
    53   23   50 1   
    54   24   25 1   
    55   25   51 1   
    56   25   52 1   
    57   25   60 1   
    58   26   53 1   
    59   26   54 1   
    60   27   55 1   
    61   27   56 1   
    62   27   57 1   
@<TRIPOS>SUBSTRUCTURE
     1 J11         1 TEMP              0 ****  ****    0 ROOT
