@<TRIPOS>MOLECULE
J11
   59    61     1     0     0
SMALL
bcc


@<TRIPOS>ATOM
      1 C1         -0.1930    0.6190   -0.1190 c3        1 J11      0.073800
      2 N1          1.2860    0.5190   -0.0500 n4        1 J11     -0.761000
      3 C2         -0.7390    0.2760   -1.5210 c3        1 J11      0.072800
      4 N2         -2.2220    0.3450   -1.5890 n4        1 J11     -0.763000
      5 C3         -2.7280   -0.0020   -2.9670 c3        1 J11      0.104800
      6 C4         -4.2560    0.0370   -3.0420 c3        1 J11     -0.046100
      7 N1'         2.8000   -1.3810    1.8710 n3        1 J11     -0.843200
      8 C11        -4.6630   -0.3920   -4.4090 ca        1 J11     -0.118300
      9 N11         6.0420    1.7700    1.3070 nb        1 J11     -0.782000
     10 C12        -4.6100   -1.7480   -4.7450 ca        1 J11     -0.174000
     11 C13        -5.0260   -2.1600   -6.0240 ca        1 J11      0.153900
     12 F13        -4.9710   -3.4690   -6.3530 f         1 J11     -0.111900
     13 C14        -5.4990   -1.2140   -6.9570 ca        1 J11     -0.124000
     14 C15        -5.5480    0.1290   -6.5990 ca        1 J11     -0.086000
     15 C16        -5.1300    0.5460   -5.3330 ca        1 J11     -0.123000
     16 C2'         1.6560   -0.5500    2.2130 c3        1 J11      0.135800
     17 C21         5.2370    2.3800    2.2080 ca        1 J11      0.418600
     18 C3'         1.8230    0.7350    1.3550 c3        1 J11      0.106500
     19 C31         5.6560    3.4090    3.0630 ca        1 J11     -0.291300
     20 C4'         3.3690    0.9220    1.2950 c3        1 J11     -0.074700
     21 C41         6.9890    3.8480    2.9880 ca        1 J11      0.021700
     22 C5'         3.9280   -0.4920    1.5860 c3        1 J11      0.141800
     23 C51         7.8400    3.2530    2.0640 ca        1 J11     -0.288300
     24 C61         7.3380    2.2100    1.2180 ca        1 J11      0.669200
     25 N61         8.1650    1.6790    0.2330 nh        1 J11     -0.939500
     26 C71         3.7980    1.9490    2.3260 c3        1 J11     -0.123700
     27 C81         7.4740    4.9170    3.8900 c3        1 J11     -0.073800
     28 H1         -0.6230   -0.0880    0.6520 hx        1 J11      0.124700
     29 H1A        -0.4830    1.6740    0.1680 hx        1 J11      0.124700
     30 HN1         1.7140    1.2200   -0.6700 hn        1 J11      0.468800
     31 H2         -0.3250    0.9950   -2.2900 hx        1 J11      0.129200
     32 H2A        -0.4290   -0.7720   -1.8160 hx        1 J11      0.129200
     33 HN2        -2.5430    1.2920   -1.3490 hn        1 J11      0.461300
     34 H3         -2.2850    0.7370   -3.6950 hx        1 J11      0.118700
     35 H3A        -2.3610   -1.0390   -3.2220 hx        1 J11      0.118700
     36 H4         -4.7070   -0.6570   -2.2820 hc        1 J11      0.078700
     37 H4A        -4.6320    1.0750   -2.8340 hc        1 J11      0.078700
     38 HN1'        3.0110   -2.0500    2.5880 hn        1 J11      0.414800
     39 H12        -4.2730   -2.5030   -4.0210 ha        1 J11      0.141000
     40 H14        -5.8310   -1.5500   -7.9530 ha        1 J11      0.181000
     41 H15        -5.9280    0.8720   -7.3210 ha        1 J11      0.168000
     42 H16        -5.1910    1.6120   -5.0660 ha        1 J11      0.142000
     43 H2'         0.7120   -1.1180    2.0010 h1        1 J11      0.073200
     44 H2'A        1.6240   -0.2200    3.2920 h1        1 J11      0.073200
     45 H3'         1.2900    1.6200    1.7940 hx        1 J11      0.116700
     46 H31         4.9620    3.8630    3.7830 ha        1 J11      0.146000
     47 H4'         3.7140    1.2640    0.2820 hc        1 J11      0.093700
     48 H5'         4.6730   -0.4440    2.4290 h1        1 J11      0.090700
     49 H5'A        4.4650   -0.8970    0.6850 h1        1 J11      0.090700
     50 H51         8.8850    3.5830    1.9780 ha        1 J11      0.162000
     51 HN61        7.9020    0.8180   -0.1850 hn        1 J11      0.424300
     52 HN6A        9.1400    1.8100    0.3750 hn        1 J11      0.424300
     53 H71         3.6400    1.5370    3.3600 hc        1 J11      0.063200
     54 H71A        3.1630    2.8710    2.2230 hc        1 J11      0.063200
     55 H81         8.3640    5.4390    3.4580 hc        1 J11      0.064033
     56 H81A        6.6730    5.6750    4.0760 hc        1 J11      0.064033
     57 H81B        7.7720    4.4740    4.8750 hc        1 J11      0.064033
     58 H121        1.5950   -0.4160   -0.3600 hn        1 J11      0.468800
     59 H22        -2.6370   -0.3100   -0.9120 hn        1 J11      0.461300
@<TRIPOS>BOND
     1    1    2 1   
     2    1    3 1   
     3    1   28 1   
     4    1   29 1   
     5    2   18 1   
     6    2   30 1   
     7    2   58 1   
     8    3    4 1   
     9    3   31 1   
    10    3   32 1   
    11    4    5 1   
    12    4   33 1   
    13    4   59 1   
    14    5    6 1   
    15    5   34 1   
    16    5   35 1   
    17    6    8 1   
    18    6   36 1   
    19    6   37 1   
    20    7   16 1   
    21    7   22 1   
    22    7   38 1   
    23    8   10 ar  
    24    8   15 ar  
    25    9   17 ar  
    26    9   24 ar  
    27   10   11 ar  
    28   10   39 1   
    29   11   12 1   
    30   11   13 ar  
    31   13   14 ar  
    32   13   40 1   
    33   14   15 ar  
    34   14   41 1   
    35   15   42 1   
    36   16   18 1   
    37   16   43 1   
    38   16   44 1   
    39   17   19 ar  
    40   17   26 1   
    41   18   20 1   
    42   18   45 1   
    43   19   21 ar  
    44   19   46 1   
    45   20   22 1   
    46   20   26 1   
    47   20   47 1   
    48   21   23 ar  
    49   21   27 1   
    50   22   48 1   
    51   22   49 1   
    52   23   24 ar  
    53   23   50 1   
    54   24   25 1   
    55   25   51 1   
    56   25   52 1   
    57   26   53 1   
    58   26   54 1   
    59   27   55 1   
    60   27   56 1   
    61   27   57 1   
@<TRIPOS>SUBSTRUCTURE
     1 J11         1 TEMP              0 ****  ****    0 ROOT
