@<TRIPOS>MOLECULE
J11
   57    59     1     0     0
SMALL
bcc


@<TRIPOS>ATOM
      1 C1          0.4600   -1.1140   -0.8790 c3        1 J11      0.158800
      2 N1         -0.7890   -0.7250   -0.2520 n3        1 J11     -0.812200
      3 C2          1.6490   -0.2830   -0.3520 c3        1 J11      0.160800
      4 N2          2.8850   -0.6250   -1.0260 n3        1 J11     -0.825200
      5 C3          4.0330    0.0720   -0.4800 c3        1 J11      0.166800
      6 C4          5.3570   -0.4030   -1.0870 c3        1 J11     -0.044100
      7 N1'        -3.1440   -3.5130    0.2360 n3        1 J11     -0.791200
      8 C11         6.4870    0.4160   -0.5690 ca        1 J11     -0.054300
      9 N11        -6.4800   -0.1570   -0.6390 nb        1 J11     -0.731000
     10 C12         7.3700   -0.1200    0.3700 ca        1 J11     -0.164000
     11 C13         8.4410    0.6610    0.8420 ca        1 J11      0.125900
     12 F13         9.2990    0.1420    1.7540 f         1 J11     -0.141900
     13 C14         8.6280    1.9740    0.3740 ca        1 J11     -0.167000
     14 C15         7.7380    2.4920   -0.5630 ca        1 J11     -0.103000
     15 C16         6.6760    1.7240   -1.0340 ca        1 J11     -0.142000
     16 C2'        -1.8260   -3.0640   -0.1830 c3        1 J11      0.108800
     17 C21        -5.2460    0.3730   -0.5000 ca        1 J11      0.450600
     18 C3'        -1.9080   -1.5650   -0.6250 c3        1 J11      0.149500
     19 C31        -4.9950    1.5840    0.1750 ca        1 J11     -0.292300
     20 C4'        -3.2570   -1.0670   -0.0320 c3        1 J11     -0.080700
     21 C41        -6.0700    2.2850    0.7320 ca        1 J11     -0.005300
     22 C5'        -3.9530   -2.3310    0.5180 c3        1 J11      0.138800
     23 C51        -7.3570    1.7640    0.5980 ca        1 J11     -0.302300
     24 C61        -7.5370    0.5390   -0.1110 ca        1 J11      0.631200
     25 N61        -8.8420    0.0680   -0.3370 nh        1 J11     -0.923500
     26 C71        -4.0730   -0.3590   -1.0970 c3        1 J11     -0.128700
     27 C81        -5.8460    3.5670    1.4390 c3        1 J11     -0.060800
     28 H1          0.6840   -2.2120   -0.7270 h1        1 J11      0.036700
     29 H1A         0.3520   -0.9430   -1.9870 h1        1 J11      0.036700
     30 HN1        -0.6900   -0.6930    0.7460 hn        1 J11      0.358800
     31 H2          1.4500    0.8100   -0.5420 h1        1 J11      0.036200
     32 H2A         1.7250   -0.4210    0.7680 h1        1 J11      0.036200
     33 HN2         3.0340   -1.6170   -1.0140 hn        1 J11      0.354800
     34 H3          3.9020    1.1680   -0.7060 h1        1 J11      0.035700
     35 H3A         4.1010   -0.0310    0.6440 h1        1 J11      0.035700
     36 H4          5.5210   -1.4860   -0.8430 hc        1 J11      0.057700
     37 H4A         5.3150   -0.3130   -2.2060 hc        1 J11      0.057700
     38 HN1'       -3.5710   -4.0580   -0.4910 hn        1 J11      0.348800
     39 H12         7.2410   -1.1450    0.7460 ha        1 J11      0.148000
     40 H14         9.4680    2.5740    0.7500 ha        1 J11      0.149000
     41 H15         7.8780    3.5190   -0.9340 ha        1 J11      0.138000
     42 H16         5.9790    2.1420   -1.7760 ha        1 J11      0.140000
     43 H2'        -1.1370   -3.1760    0.7000 h1        1 J11      0.047700
     44 H2'A       -1.4200   -3.6930   -1.0180 h1        1 J11      0.047700
     45 H3'        -1.9720   -1.5400   -1.7520 h1        1 J11      0.062700
     46 H31        -3.9690    1.9650    0.2590 ha        1 J11      0.146000
     47 H4'        -3.0810   -0.3530    0.8170 hc        1 J11      0.067700
     48 H5'        -4.9890   -2.4330    0.0970 h1        1 J11      0.058200
     49 H5'A       -4.0430   -2.2500    1.6360 h1        1 J11      0.058200
     50 H51        -8.2190    2.2970    1.0200 ha        1 J11      0.141000
     51 HN61       -8.9130   -0.8700   -0.6660 hn        1 J11      0.400300
     52 HN6A       -9.4740    0.2840    0.4000 hn        1 J11      0.400300
     53 H71        -4.4100   -1.0980   -1.8720 hc        1 J11      0.064200
     54 H71A       -3.4230    0.4000   -1.6130 hc        1 J11      0.064200
     55 H81        -5.8430    4.4090    0.7020 hc        1 J11      0.049700
     56 H81A       -6.6530    3.7600    2.1880 hc        1 J11      0.049700
     57 H81B       -4.8620    3.5610    1.9690 hc        1 J11      0.049700
@<TRIPOS>BOND
     1    1    2 1   
     2    1    3 1   
     3    1   28 1   
     4    1   29 1   
     5    2   18 1   
     6    2   30 1   
     7    3    4 1   
     8    3   31 1   
     9    3   32 1   
    10    4    5 1   
    11    4   33 1   
    12    5    6 1   
    13    5   34 1   
    14    5   35 1   
    15    6    8 1   
    16    6   36 1   
    17    6   37 1   
    18    7   16 1   
    19    7   22 1   
    20    7   38 1   
    21    8   10 ar  
    22    8   15 ar  
    23    9   17 ar  
    24    9   24 ar  
    25   10   11 ar  
    26   10   39 1   
    27   11   12 1   
    28   11   13 ar  
    29   13   14 ar  
    30   13   40 1   
    31   14   15 ar  
    32   14   41 1   
    33   15   42 1   
    34   16   18 1   
    35   16   43 1   
    36   16   44 1   
    37   17   19 ar  
    38   17   26 1   
    39   18   20 1   
    40   18   45 1   
    41   19   21 ar  
    42   19   46 1   
    43   20   22 1   
    44   20   26 1   
    45   20   47 1   
    46   21   23 ar  
    47   21   27 1   
    48   22   48 1   
    49   22   49 1   
    50   23   24 ar  
    51   23   50 1   
    52   24   25 1   
    53   25   51 1   
    54   25   52 1   
    55   26   53 1   
    56   26   54 1   
    57   27   55 1   
    58   27   56 1   
    59   27   57 1   
@<TRIPOS>SUBSTRUCTURE
     1 J11         1 TEMP              0 ****  ****    0 ROOT
