@<TRIPOS>MOLECULE
J12
   88    91     1     0     0
SMALL
bcc


@<TRIPOS>ATOM
      1 C1          0.6720   -0.0310   -0.6570 c3        1 J12      0.300900
      2 O1          0.4010   -1.2520    0.0340 os        1 J12     -0.346900
      3 C7         -0.8130   -1.8510   -0.2730 ca        1 J12      0.136100
      4 C8         -0.7840   -3.1520   -0.7880 ca        1 J12     -0.113000
      5 C9         -1.9990   -3.8450   -1.0080 ca        1 J12      0.113600
      6 C10        -3.2230   -3.1860   -0.7100 ca        1 J12     -0.129000
      7 C11        -3.2170   -1.8810   -0.2090 ca        1 J12     -0.157600
      8 C12        -2.0160   -1.2100    0.0380 ca        1 J12     -0.182000
      9 C13        -4.5070   -1.2400    0.0580 c         1 J12      0.576700
     10 O17        -5.5970   -1.7560    0.2580 o         1 J12     -0.427100
     11 N18        -4.4770    0.2840    0.0520 n4        1 J12     -0.682800
     12 C19        -5.8310    0.9060    0.0640 c3        1 J12      0.109800
     13 C20        -5.8130    2.3980   -0.2300 c3        1 J12     -0.113400
     14 C21        -5.3020    3.2090    0.9640 c3        1 J12      0.162800
     15 N22        -5.1080    4.6130    0.6350 n3        1 J12     -0.736600
     16 C23        -6.3530    5.3540    0.4990 c3        1 J12      0.169800
     17 C24        -6.1200    6.8250    0.1030 c3        1 J12      0.162800
     18 N25        -5.1690    7.5150    0.9690 n3        1 J12     -0.749600
     19 C26        -3.9370    6.7510    1.1490 c3        1 J12      0.162800
     20 C27        -4.1810    5.2800    1.5380 c3        1 J12      0.169800
     21 C28        -4.8950    8.8720    0.5130 c3        1 J12      0.167800
     22 C35        -5.9720    9.8830    0.9230 c3        1 J12     -0.110400
     23 C36        -6.0200   10.0110    2.4380 c3        1 J12      0.105800
     24 N37        -6.9600   11.0790    2.8960 n4        1 J12     -0.841600
     25 N40        -2.0500   -5.1430   -1.5090 n         1 J12     -0.474100
     26 C41        -0.9840   -5.8880   -2.0270 c         1 J12      0.673100
     27 O44         0.1570   -5.4120   -2.1340 o         1 J12     -0.570100
     28 C2          2.1440    0.3500   -0.4140 c3        1 J12      0.098100
     29 O2          3.0190   -0.7380   -0.6170 oh        1 J12     -0.574800
     30 C3          2.3910    0.8160    1.0320 c3        1 J12      0.118100
     31 O3          3.6480    1.4580    1.1270 oh        1 J12     -0.602800
     32 C4          1.3470    1.8630    1.4590 c3        1 J12      0.129100
     33 O4          1.4640    3.0750    0.7390 oh        1 J12     -0.602800
     34 C5         -0.0520    1.2910    1.2100 c3        1 J12      0.104100
     35 C6         -1.1630    2.2990    1.5100 c3        1 J12      0.136400
     36 O6         -2.3740    1.6320    1.8480 oh        1 J12     -0.668800
     37 O5         -0.2370    0.9260   -0.1630 os        1 J12     -0.437600
     38 S          -1.9860   -9.0730   -0.4950 ss        1 J12      0.101200
     39 C42        -1.2940   -7.2980   -2.5070 c3        1 J12     -0.067100
     40 C43        -2.3260   -8.0000   -1.7360 cc        1 J12     -0.180400
     41 C44        -3.6930   -7.9260   -1.9660 cd        1 J12     -0.164000
     42 C45        -4.4240   -8.7660   -1.0760 cd        1 J12     -0.156000
     43 C46        -3.5800   -9.4450   -0.2180 cc        1 J12     -0.164100
     44 H1          0.4360   -0.1170   -1.7550 h2        1 J12      0.093700
     45 H8          0.1970   -3.6200   -1.0000 ha        1 J12      0.215000
     46 H10        -4.1880   -3.6970   -0.8680 ha        1 J12      0.165000
     47 H12        -1.9770   -0.2060    0.4880 ha        1 J12      0.160000
     48 H18        -3.9390    0.6090    0.8710 hn        1 J12      0.469800
     49 H191       -6.2920    0.7020    1.0730 hx        1 J12      0.110700
     50 H192       -6.4550    0.3770   -0.7150 hx        1 J12      0.110700
     51 H201       -5.2040    2.6200   -1.1460 hc        1 J12      0.085700
     52 H202       -6.8740    2.6910   -0.4620 hc        1 J12      0.085700
     53 H211       -4.3040    2.7940    1.2920 h1        1 J12      0.045200
     54 H212       -6.0240    3.0720    1.8220 h1        1 J12      0.045200
     55 H231       -6.9600    4.8760   -0.3200 h1        1 J12      0.045200
     56 H232       -6.9630    5.3220    1.4490 h1        1 J12      0.045200
     57 H241       -5.7960    6.8570   -0.9790 h1        1 J12      0.048450
     58 H242       -7.1080    7.3590    0.1830 h1        1 J12      0.048450
     59 H261       -3.3550    7.2290    1.9860 h1        1 J12      0.048450
     60 H262       -3.2970    6.7750    0.2190 h1        1 J12      0.048450
     61 H271       -3.1890    4.7460    1.4810 h1        1 J12      0.045200
     62 H272       -4.5380    5.2390    2.6080 h1        1 J12      0.045200
     63 H281       -3.9110    9.2130    0.9460 h1        1 J12      0.063200
     64 H282       -4.8040    8.9300   -0.6130 h1        1 J12      0.063200
     65 H351       -5.7040   10.8670    0.4510 hc        1 J12      0.072200
     66 H352       -6.9720    9.5680    0.5240 hc        1 J12      0.072200
     67 H361       -4.9960   10.2650    2.8400 hx        1 J12      0.119200
     68 H362       -6.3580    9.0360    2.8990 hx        1 J12      0.119200
     69 H371       -7.9110   10.8760    2.5730 hn        1 J12      0.462133
     70 H372       -6.9600   11.1320    3.9200 hn        1 J12      0.462133
     71 H40        -2.9380   -5.6020   -1.4630 hn        1 J12      0.341500
     72 H2          2.3860    1.1940   -1.1230 h1        1 J12      0.079700
     73 HO2         2.8850   -1.0580   -1.5190 ho        1 J12      0.421000
     74 H3          2.3500   -0.0740    1.7190 h1        1 J12      0.079700
     75 HO3         4.3160    0.8090    0.8620 ho        1 J12      0.443000
     76 H4          1.4800    2.0760    2.5590 h1        1 J12      0.064700
     77 HO4         2.4050    3.3080    0.7310 ho        1 J12      0.441000
     78 H5         -0.1710    0.3670    1.8470 h1        1 J12      0.064700
     79 H61        -1.4060    2.9020    0.5950 h1        1 J12      0.081700
     80 H62        -0.8450    2.9780    2.3440 h1        1 J12      0.081700
     81 HO6        -2.2440    1.2220    2.7120 ho        1 J12      0.419000
     82 H421       -0.3210   -7.8660   -2.4820 hc        1 J12      0.101200
     83 H422       -1.6030   -7.2150   -3.5870 hc        1 J12      0.101200
     84 H44        -4.1660   -7.3300   -2.7490 ha        1 J12      0.150000
     85 H45        -5.5120   -8.8600   -1.0940 ha        1 J12      0.164000
     86 H46        -3.9010  -10.1530    0.5460 h4        1 J12      0.186000
     87 H182       -3.9630    0.5880   -0.7840 hn        1 J12      0.469800
     88 H373       -6.6760   11.9890    2.5160 hn        1 J12      0.462133
@<TRIPOS>BOND
     1    1    2 1   
     2    1   28 1   
     3    1   37 1   
     4    1   44 1   
     5    2    3 1   
     6    3    4 ar  
     7    3    8 ar  
     8    4    5 ar  
     9    4   45 1   
    10    5    6 ar  
    11    5   25 1   
    12    6    7 ar  
    13    6   46 1   
    14    7    8 ar  
    15    7    9 1   
    16    8   47 1   
    17    9   10 2   
    18    9   11 1   
    19   11   12 1   
    20   11   48 1   
    21   11   87 1   
    22   12   13 1   
    23   12   49 1   
    24   12   50 1   
    25   13   14 1   
    26   13   51 1   
    27   13   52 1   
    28   14   15 1   
    29   14   53 1   
    30   14   54 1   
    31   15   16 1   
    32   15   20 1   
    33   16   17 1   
    34   16   55 1   
    35   16   56 1   
    36   17   18 1   
    37   17   57 1   
    38   17   58 1   
    39   18   19 1   
    40   18   21 1   
    41   19   20 1   
    42   19   59 1   
    43   19   60 1   
    44   20   61 1   
    45   20   62 1   
    46   21   22 1   
    47   21   63 1   
    48   21   64 1   
    49   22   23 1   
    50   22   65 1   
    51   22   66 1   
    52   23   24 1   
    53   23   67 1   
    54   23   68 1   
    55   24   69 1   
    56   24   70 1   
    57   24   88 1   
    58   25   26 1   
    59   25   71 1   
    60   26   27 2   
    61   26   39 1   
    62   28   29 1   
    63   28   30 1   
    64   28   72 1   
    65   29   73 1   
    66   30   31 1   
    67   30   32 1   
    68   30   74 1   
    69   31   75 1   
    70   32   33 1   
    71   32   34 1   
    72   32   76 1   
    73   33   77 1   
    74   34   35 1   
    75   34   37 1   
    76   34   78 1   
    77   35   36 1   
    78   35   79 1   
    79   35   80 1   
    80   36   81 1   
    81   38   40 1   
    82   38   43 1   
    83   39   40 1   
    84   39   82 1   
    85   39   83 1   
    86   40   41 2   
    87   41   42 1   
    88   41   84 1   
    89   42   43 2   
    90   42   85 1   
    91   43   86 1   
@<TRIPOS>SUBSTRUCTURE
     1 J12         1 TEMP              0 ****  ****    0 ROOT
