@<TRIPOS>MOLECULE
J12
   86    89     1     0     0
SMALL
bcc


@<TRIPOS>ATOM
      1 C1         -0.3180   -4.5710  -11.1480 c3        1 J12      0.304900
      2 O1         -1.2240   -3.6200  -10.5970 os        1 J12     -0.376900
      3 C7         -0.6730   -2.6860   -9.7240 ca        1 J12      0.110100
      4 C8         -0.9320   -1.3420  -10.0150 ca        1 J12     -0.150000
      5 C9         -0.5060   -0.3530   -9.1040 ca        1 J12      0.079600
      6 C10         0.1810   -0.7530   -7.9310 ca        1 J12     -0.143000
      7 C11         0.4270   -2.1020   -7.6730 ca        1 J12     -0.094600
      8 C12         0.0030   -3.0860   -8.5670 ca        1 J12     -0.161000
      9 C13         1.1800   -2.4340   -6.4230 c         1 J12      0.665700
     10 O17         1.9730   -1.6070   -5.9230 o         1 J12     -0.613100
     11 N18         0.9250   -3.6430   -5.8080 n         1 J12     -0.556900
     12 C19         1.6920   -4.0940   -4.6780 c3        1 J12      0.084000
     13 C20         2.7150   -5.1910   -4.9800 c3        1 J12     -0.109400
     14 C21         2.0310   -6.5500   -5.1090 c3        1 J12      0.159800
     15 N22         2.8400   -7.5470   -5.8000 n3        1 J12     -0.731600
     16 C23         4.0570   -7.8850   -5.0790 c3        1 J12      0.164800
     17 C24         4.8900   -8.9770   -5.7750 c3        1 J12      0.168300
     18 N25         4.1130  -10.1560   -6.1270 n3        1 J12     -0.729600
     19 C26         2.8920   -9.8150   -6.8440 c3        1 J12      0.168300
     20 C27         2.0590   -8.7300   -6.1360 c3        1 J12      0.164800
     21 C28         4.8890  -11.1570   -6.8480 c3        1 J12      0.175800
     22 C35         6.0460  -11.7650   -6.0640 c3        1 J12     -0.119400
     23 C36         5.5660  -12.4860   -4.8030 c3        1 J12      0.151800
     24 N37         6.5670  -13.2100   -4.0630 n3        1 J12     -0.906800
     25 N40        -0.7080    1.0180   -9.3180 n         1 J12     -0.465100
     26 C41        -1.4800    1.6110  -10.3050 c         1 J12      0.668100
     27 O44        -2.0750    0.9680  -11.1890 o         1 J12     -0.592100
     28 C2         -1.0050   -5.1470  -12.4030 c3        1 J12      0.084100
     29 O2         -1.3830   -4.1260  -13.2980 oh        1 J12     -0.586800
     30 C3         -2.2250   -6.0030  -12.0160 c3        1 J12      0.081100
     31 O3         -2.7110   -6.7160  -13.1360 oh        1 J12     -0.577800
     32 C4         -1.8660   -7.0300  -10.9280 c3        1 J12      0.127100
     33 O4         -0.9980   -8.0410  -11.3900 oh        1 J12     -0.569800
     34 C5         -1.2620   -6.2620   -9.7430 c3        1 J12      0.059100
     35 C6         -0.7970   -7.1980   -8.6240 c3        1 J12      0.140400
     36 O6         -0.0300   -6.4940   -7.6690 oh        1 J12     -0.611800
     37 O5         -0.0860   -5.5540  -10.1650 os        1 J12     -0.447600
     38 S          -3.1400    4.1380   -8.2790 ss        1 J12      0.061200
     39 C42        -1.5380    3.1360  -10.3080 c3        1 J12     -0.077100
     40 C43        -1.6650    3.7410   -8.9760 cc        1 J12     -0.148400
     41 C44        -0.6140    4.0930   -8.1450 cd        1 J12     -0.160000
     42 C45        -1.0750    4.6850   -6.9310 cd        1 J12     -0.153000
     43 C46        -2.4520    4.7600   -6.8970 cc        1 J12     -0.169100
     44 H1          0.6900   -4.1270  -11.3720 h2        1 J12      0.104700
     45 H8         -1.4750   -1.0850  -10.9390 ha        1 J12      0.187000
     46 H10         0.5460   -0.0070   -7.2040 ha        1 J12      0.161000
     47 H12         0.1870   -4.1590   -8.3970 ha        1 J12      0.163000
     48 H18         0.3880   -4.3290   -6.2900 hn        1 J12      0.320500
     49 H191        2.2370   -3.2080   -4.2400 h1        1 J12      0.064200
     50 H192        0.9640   -4.4770   -3.9040 h1        1 J12      0.064200
     51 H201        3.2890   -4.9420   -5.9100 hc        1 J12      0.057200
     52 H202        3.4490   -5.2190   -4.1330 hc        1 J12      0.057200
     53 H211        1.7370   -6.8980   -4.0740 h1        1 J12      0.038700
     54 H212        1.0780   -6.4310   -5.7010 h1        1 J12      0.038700
     55 H231        3.8370   -8.2190   -4.0220 h1        1 J12      0.038950
     56 H232        4.6900   -6.9550   -5.0220 h1        1 J12      0.038950
     57 H241        5.3950   -8.5250   -6.6790 h1        1 J12      0.035700
     58 H242        5.6930   -9.2980   -5.0540 h1        1 J12      0.035700
     59 H261        2.2580  -10.7430   -6.9070 h1        1 J12      0.035700
     60 H262        3.1090   -9.4720   -7.8980 h1        1 J12      0.035700
     61 H271        1.2370   -8.4090   -6.8400 h1        1 J12      0.038950
     62 H272        1.5750   -9.1850   -5.2230 h1        1 J12      0.038950
     63 H281        5.3090  -10.7340   -7.8100 h1        1 J12      0.031200
     64 H282        4.1800  -11.9890   -7.1270 h1        1 J12      0.031200
     65 H351        6.7950  -10.9770   -5.7940 hc        1 J12      0.038700
     66 H352        6.5610  -12.4930   -6.7460 hc        1 J12      0.038700
     67 H361        4.7580  -13.2160   -5.0930 h1        1 J12      0.060700
     68 H362        5.1040  -11.7290   -4.1060 h1        1 J12      0.060700
     69 H371        7.2820  -12.5950   -3.7290 hn        1 J12      0.341300
     70 H372        6.9930  -13.9160   -4.6310 hn        1 J12      0.341300
     71 H40        -0.3300    1.6230   -8.6180 hn        1 J12      0.331500
     72 H2         -0.2610   -5.7700  -12.9750 h1        1 J12      0.099700
     73 HO2        -1.9230   -3.4890  -12.8070 ho        1 J12      0.424000
     74 H3         -3.0330   -5.3220  -11.6210 h1        1 J12      0.056700
     75 HO3        -2.7820   -6.0770  -13.8590 ho        1 J12      0.417000
     76 H4         -2.7930   -7.5850  -10.6110 h1        1 J12      0.102700
     77 HO4        -0.1930   -7.6080  -11.7030 ho        1 J12      0.403000
     78 H5         -2.0080   -5.5190   -9.3460 h1        1 J12      0.079700
     79 H61        -0.2120   -8.0520   -9.0560 h1        1 J12      0.065200
     80 H62        -1.6900   -7.5830   -8.0640 h1        1 J12      0.065200
     81 HO6         0.8140   -6.2740   -8.0870 ho        1 J12      0.420000
     82 H421       -2.4080    3.4260  -10.9600 hc        1 J12      0.089200
     83 H422       -0.6010    3.5030  -10.8130 hc        1 J12      0.089200
     84 H44         0.4440    3.9570   -8.3800 ha        1 J12      0.155000
     85 H45        -0.4040    5.0300   -6.1410 ha        1 J12      0.159000
     86 H46        -3.0400    5.1720   -6.0770 h4        1 J12      0.176000
@<TRIPOS>BOND
     1    1    2 1   
     2    1   28 1   
     3    1   37 1   
     4    1   44 1   
     5    2    3 1   
     6    3    4 ar  
     7    3    8 ar  
     8    4    5 ar  
     9    4   45 1   
    10    5    6 ar  
    11    5   25 1   
    12    6    7 ar  
    13    6   46 1   
    14    7    8 ar  
    15    7    9 1   
    16    8   47 1   
    17    9   10 2   
    18    9   11 1   
    19   11   12 1   
    20   11   48 1   
    21   12   13 1   
    22   12   49 1   
    23   12   50 1   
    24   13   14 1   
    25   13   51 1   
    26   13   52 1   
    27   14   15 1   
    28   14   53 1   
    29   14   54 1   
    30   15   16 1   
    31   15   20 1   
    32   16   17 1   
    33   16   55 1   
    34   16   56 1   
    35   17   18 1   
    36   17   57 1   
    37   17   58 1   
    38   18   19 1   
    39   18   21 1   
    40   19   20 1   
    41   19   59 1   
    42   19   60 1   
    43   20   61 1   
    44   20   62 1   
    45   21   22 1   
    46   21   63 1   
    47   21   64 1   
    48   22   23 1   
    49   22   65 1   
    50   22   66 1   
    51   23   24 1   
    52   23   67 1   
    53   23   68 1   
    54   24   69 1   
    55   24   70 1   
    56   25   26 1   
    57   25   71 1   
    58   26   27 2   
    59   26   39 1   
    60   28   29 1   
    61   28   30 1   
    62   28   72 1   
    63   29   73 1   
    64   30   31 1   
    65   30   32 1   
    66   30   74 1   
    67   31   75 1   
    68   32   33 1   
    69   32   34 1   
    70   32   76 1   
    71   33   77 1   
    72   34   35 1   
    73   34   37 1   
    74   34   78 1   
    75   35   36 1   
    76   35   79 1   
    77   35   80 1   
    78   36   81 1   
    79   38   40 1   
    80   38   43 1   
    81   39   40 1   
    82   39   82 1   
    83   39   83 1   
    84   40   41 2   
    85   41   42 1   
    86   41   84 1   
    87   42   43 2   
    88   42   85 1   
    89   43   86 1   
@<TRIPOS>SUBSTRUCTURE
     1 J12         1 TEMP              0 ****  ****    0 ROOT
