@<TRIPOS>MOLECULE
J12
   89    92     1     0     0
SMALL
bcc


@<TRIPOS>ATOM
      1 C1          0.5780   -0.7200   -0.3910 c3        1 J12      0.341900
      2 O1          0.0540   -1.8530    0.3320 os        1 J12     -0.338900
      3 C7         -1.2300   -2.2290    0.0110 ca        1 J12      0.155100
      4 C8         -1.4350   -3.5600   -0.3890 ca        1 J12     -0.068000
      5 C9         -2.7510   -4.0050   -0.6090 ca        1 J12     -0.018400
      6 C10        -3.8450   -3.1320   -0.4670 ca        1 J12     -0.035000
      7 C11        -3.6110   -1.8050   -0.0790 ca        1 J12     -0.160600
      8 C12        -2.3160   -1.3580    0.1890 ca        1 J12     -0.108000
      9 C13        -4.7770   -0.9150    0.0760 c         1 J12      0.562700
     10 O17        -5.9370   -1.2600    0.2490 o         1 J12     -0.398100
     11 N18        -4.5060    0.5700   -0.0040 n4        1 J12     -0.673800
     12 C19        -5.7500    1.3670   -0.2510 c3        1 J12      0.111800
     13 C20        -5.4870    2.8440   -0.4970 c3        1 J12     -0.117400
     14 C21        -5.2650    3.6090    0.8100 c3        1 J12      0.169800
     15 N22        -4.9640    5.0160    0.5930 n3        1 J12     -0.732600
     16 C23        -6.0920    5.7780    0.0720 c3        1 J12      0.166300
     17 C24        -5.7450    7.2610   -0.1660 c3        1 J12      0.162300
     18 N25        -5.1450    7.9130    0.9940 n3        1 J12     -0.744600
     19 C26        -4.0440    7.1300    1.5480 c3        1 J12      0.162300
     20 C27        -4.3980    5.6480    1.7790 c3        1 J12      0.166300
     21 C28        -4.7290    9.2800    0.7000 c3        1 J12      0.165800
     22 C35        -5.8740   10.2970    0.7280 c3        1 J12     -0.109400
     23 C36        -6.4070   10.4540    2.1450 c3        1 J12      0.105800
     24 N37        -7.4040   11.5600    2.2670 n4        1 J12     -0.841600
     25 N40        -2.9780   -5.3980   -0.9950 n4        1 J12     -0.563200
     26 C41        -3.5400   -5.5930   -2.4100 c         1 J12      0.558100
     27 O44        -4.1460   -4.6480   -2.8820 o         1 J12     -0.417100
     28 C2          2.0780   -0.5970   -0.0760 c3        1 J12      0.142100
     29 O2          2.6480   -1.8700   -0.2820 oh        1 J12     -0.587800
     30 C3          2.3300   -0.0970    1.3570 c3        1 J12      0.068100
     31 O3          3.7000    0.2660    1.3850 oh        1 J12     -0.593800
     32 C4          1.4670    1.1410    1.6660 c3        1 J12      0.099100
     33 O4          1.8280    2.2590    0.8810 oh        1 J12     -0.592800
     34 C5          0.0010    0.8090    1.3750 c3        1 J12      0.108100
     35 C6         -0.9340    2.0120    1.5310 c3        1 J12      0.136400
     36 O6         -2.2620    1.5640    1.7880 oh        1 J12     -0.678800
     37 O5         -0.1860    0.3810    0.0170 os        1 J12     -0.442600
     38 S          -0.8580   -8.2000   -3.1920 ss        1 J12      0.203200
     39 C42        -3.3170   -6.9520   -3.0200 c3        1 J12     -0.045100
     40 C43        -2.2600   -7.7530   -2.4020 cc        1 J12     -0.301400
     41 C44        -2.3510   -8.3850   -1.1580 cd        1 J12     -0.165000
     42 C45        -1.2140   -9.1920   -0.8990 cd        1 J12     -0.142000
     43 C46        -0.3230   -9.1570   -1.9630 cc        1 J12     -0.149100
     44 H1          0.3980   -0.8300   -1.4970 h2        1 J12      0.109700
     45 H8         -0.5520   -4.2170   -0.5030 ha        1 J12      0.198000
     46 H10        -4.8800   -3.4680   -0.6670 ha        1 J12      0.189000
     47 H12        -2.1150   -0.3340    0.5590 ha        1 J12      0.195000
     48 H18        -4.0660    0.8850    0.8770 hn        1 J12      0.475800
     49 H191       -6.2580    0.9170   -1.1540 hx        1 J12      0.115700
     50 H192       -6.4290    1.2240    0.6400 hx        1 J12      0.115700
     51 H201       -4.6220    2.9990   -1.1950 hc        1 J12      0.093200
     52 H202       -6.4030    3.2400   -1.0200 hc        1 J12      0.093200
     53 H211       -4.3840    3.1520    1.3480 h1        1 J12      0.037700
     54 H212       -6.1760    3.4680    1.4650 h1        1 J12      0.037700
     55 H231       -6.3840    5.3430   -0.9240 h1        1 J12      0.045450
     56 H232       -6.9870    5.7160    0.7580 h1        1 J12      0.045450
     57 H241       -6.7060    7.7980   -0.4050 h1        1 J12      0.051200
     58 H242       -5.0750    7.3290   -1.0730 h1        1 J12      0.051200
     59 H261       -3.7790    7.5710    2.5510 h1        1 J12      0.051200
     60 H262       -3.1280    7.1810    0.8900 h1        1 J12      0.051200
     61 H271       -5.0960    5.5720    2.6630 h1        1 J12      0.045450
     62 H272       -3.4430    5.1130    2.0410 h1        1 J12      0.045450
     63 H281       -4.2450    9.3610   -0.3200 h1        1 J12      0.063700
     64 H282       -3.9580    9.5970    1.4600 h1        1 J12      0.063700
     65 H351       -6.6960    9.9800    0.0340 hc        1 J12      0.074200
     66 H352       -5.4600   11.2720    0.3520 hc        1 J12      0.074200
     67 H361       -6.9090    9.4980    2.4770 hx        1 J12      0.117700
     68 H362       -5.5600   10.6830    2.8560 hx        1 J12      0.117700
     69 H371       -7.7350   11.6300    3.2360 hn        1 J12      0.464133
     70 H372       -6.9790   12.4540    1.9960 hn        1 J12      0.464133
     71 H40        -3.6420   -5.8250   -0.3340 hn        1 J12      0.479800
     72 H2          2.5060    0.1560   -0.8020 h1        1 J12      0.095700
     73 HO2         3.6020   -1.7710   -0.1380 ho        1 J12      0.446000
     74 H3          2.1080   -0.9170    2.0920 h1        1 J12      0.076700
     75 HO3         3.9890    0.2560    2.3070 ho        1 J12      0.434000
     76 H4          1.5790    1.4090    2.7560 h1        1 J12      0.062700
     77 HO4         2.7970    2.2780    0.8330 ho        1 J12      0.443000
     78 H5         -0.3140   -0.0300    2.0580 h1        1 J12      0.056700
     79 H61        -0.5670    2.6770    2.3540 h1        1 J12      0.093200
     80 H62        -0.9920    2.5890    0.5690 h1        1 J12      0.093200
     81 HO6        -2.3190    1.3680    2.7310 ho        1 J12      0.422000
     82 H421       -3.1090   -6.7730   -4.1180 hc        1 J12      0.137200
     83 H422       -4.3120   -7.4900   -2.9580 hc        1 J12      0.137200
     84 H44        -3.2080   -8.3300   -0.4830 ha        1 J12      0.150000
     85 H45        -1.0780   -9.7800    0.0140 ha        1 J12      0.189000
     86 H46         0.6180   -9.7160   -1.9970 h4        1 J12      0.212000
     87 H182       -3.8290    0.7470   -0.7570 hn        1 J12      0.475800
     88 H373       -8.2070   11.3840    1.6530 hn        1 J12      0.464133
     89 H402       -2.0910   -5.9280   -0.9330 hn        1 J12      0.479800
@<TRIPOS>BOND
     1    1    2 1   
     2    1   28 1   
     3    1   37 1   
     4    1   44 1   
     5    2    3 1   
     6    3    4 ar  
     7    3    8 ar  
     8    4    5 ar  
     9    4   45 1   
    10    5    6 ar  
    11    5   25 1   
    12    6    7 ar  
    13    6   46 1   
    14    7    8 ar  
    15    7    9 1   
    16    8   47 1   
    17    9   10 2   
    18    9   11 1   
    19   11   12 1   
    20   11   48 1   
    21   11   87 1   
    22   12   13 1   
    23   12   49 1   
    24   12   50 1   
    25   13   14 1   
    26   13   51 1   
    27   13   52 1   
    28   14   15 1   
    29   14   53 1   
    30   14   54 1   
    31   15   16 1   
    32   15   20 1   
    33   16   17 1   
    34   16   55 1   
    35   16   56 1   
    36   17   18 1   
    37   17   57 1   
    38   17   58 1   
    39   18   19 1   
    40   18   21 1   
    41   19   20 1   
    42   19   59 1   
    43   19   60 1   
    44   20   61 1   
    45   20   62 1   
    46   21   22 1   
    47   21   63 1   
    48   21   64 1   
    49   22   23 1   
    50   22   65 1   
    51   22   66 1   
    52   23   24 1   
    53   23   67 1   
    54   23   68 1   
    55   24   69 1   
    56   24   70 1   
    57   24   88 1   
    58   25   26 1   
    59   25   71 1   
    60   25   89 1   
    61   26   27 2   
    62   26   39 1   
    63   28   29 1   
    64   28   30 1   
    65   28   72 1   
    66   29   73 1   
    67   30   31 1   
    68   30   32 1   
    69   30   74 1   
    70   31   75 1   
    71   32   33 1   
    72   32   34 1   
    73   32   76 1   
    74   33   77 1   
    75   34   35 1   
    76   34   37 1   
    77   34   78 1   
    78   35   36 1   
    79   35   79 1   
    80   35   80 1   
    81   36   81 1   
    82   38   40 1   
    83   38   43 1   
    84   39   40 1   
    85   39   82 1   
    86   39   83 1   
    87   40   41 2   
    88   41   42 1   
    89   41   84 1   
    90   42   43 2   
    91   42   85 1   
    92   43   86 1   
@<TRIPOS>SUBSTRUCTURE
     1 J12         1 TEMP              0 ****  ****    0 ROOT
