@<TRIPOS>MOLECULE
J12
   88    91     1     0     0
SMALL
bcc


@<TRIPOS>ATOM
      1 C1          0.6530   -0.0040   -0.7230 c3        1 J12      0.300900
      2 O1          0.4070   -1.2260   -0.0230 os        1 J12     -0.346900
      3 C7         -0.8090   -1.8360   -0.3020 ca        1 J12      0.136100
      4 C8         -0.7790   -3.1370   -0.8160 ca        1 J12     -0.113000
      5 C9         -1.9930   -3.8410   -1.0080 ca        1 J12      0.113600
      6 C10        -3.2160   -3.1920   -0.6850 ca        1 J12     -0.129000
      7 C11        -3.2100   -1.8860   -0.1870 ca        1 J12     -0.157600
      8 C12        -2.0100   -1.2040    0.0320 ca        1 J12     -0.182000
      9 C13        -4.5000   -1.2560    0.1060 c         1 J12      0.576700
     10 O17        -5.5810   -1.7800    0.3310 o         1 J12     -0.427100
     11 N18        -4.4820    0.2690    0.0960 ny        1 J12     -0.682800
     12 C19        -5.8400    0.8800    0.1390 c3        1 J12      0.109800
     13 C20        -5.8410    2.3710   -0.1630 c3        1 J12     -0.113400
     14 C21        -5.3060    3.1930    1.0130 c3        1 J12      0.162800
     15 N22        -5.1220    4.5940    0.6690 n3        1 J12     -0.736600
     16 C23        -6.3710    5.3310    0.5520 c3        1 J12      0.169800
     17 C24        -6.1500    6.8000    0.1400 c3        1 J12      0.162800
     18 N25        -5.1840    7.4980    0.9820 n3        1 J12     -0.749600
     19 C26        -3.9460    6.7380    1.1440 c3        1 J12      0.162800
     20 C27        -4.1790    5.2700    1.5490 c3        1 J12      0.169800
     21 C28        -4.9220    8.8520    0.5110 c3        1 J12      0.167800
     22 C35        -5.9940    9.8640    0.9340 c3        1 J12     -0.110400
     23 C36        -6.0130   10.0020    2.4490 c3        1 J12      0.105800
     24 N37        -6.9460   11.0730    2.9170 nz        1 J12     -0.841600
     25 N40        -2.0440   -5.1410   -1.5050 ns        1 J12     -0.474100
     26 C41        -0.9830   -5.8780   -2.0460 c         1 J12      0.673100
     27 O44         0.1510   -5.3910   -2.1780 o         1 J12     -0.571100
     28 C2          2.1270    0.3900   -0.5130 c3        1 J12      0.098100
     29 O2          3.0060   -0.6920   -0.7320 oh        1 J12     -0.574800
     30 C3          2.4000    0.8620    0.9260 c3        1 J12      0.118100
     31 O3          3.6540    1.5140    0.9920 oh        1 J12     -0.602800
     32 C4          1.3570    1.9010    1.3740 c3        1 J12      0.129100
     33 O4          1.4480    3.1120    0.6480 oh        1 J12     -0.602800
     34 C5         -0.0420    1.3160    1.1560 c3        1 J12      0.104100
     35 C6         -1.1550    2.3160    1.4780 c3        1 J12      0.136400
     36 O6         -2.3530    1.6390    1.8440 oh        1 J12     -0.668800
     37 O5         -0.2530    0.9460   -0.2120 os        1 J12     -0.437600
     38 S          -1.9250   -9.0680   -0.4860 ss        1 J12      0.101200
     39 C42        -1.2910   -7.2910   -2.5160 c3        1 J12     -0.067100
     40 C43        -2.3010   -8.0010   -1.7220 cc        1 J12     -0.180400
     41 C44        -3.6730   -7.9380   -1.9220 cd        1 J12     -0.163000
     42 C45        -4.3770   -8.7830   -1.0160 cd        1 J12     -0.156000
     43 C46        -3.5090   -9.4530   -0.1750 cc        1 J12     -0.164100
     44 H1          0.3930   -0.0950   -1.8150 h2        1 J12      0.093700
     45 H8          0.2000   -3.5980   -1.0480 ha        1 J12      0.215000
     46 H10        -4.1800   -3.7120   -0.8210 ha        1 J12      0.165000
     47 H12        -1.9700   -0.1990    0.4800 ha        1 J12      0.160000
     48 H18        -3.9280    0.6000    0.9010 hn        1 J12      0.470300
     49 H191       -6.2740    0.6780    1.1610 hx        1 J12      0.110700
     50 H192       -6.4800    0.3420   -0.6210 hx        1 J12      0.110700
     51 H201       -6.9100    2.6550   -0.3690 hc        1 J12      0.085700
     52 H202       -5.2580    2.5930   -1.0960 hc        1 J12      0.085700
     53 H211       -6.0090    3.0600    1.8880 h1        1 J12      0.045200
     54 H212       -4.3000    2.7820    1.3230 h1        1 J12      0.045200
     55 H231       -6.9930    4.8450   -0.2510 h1        1 J12      0.045450
     56 H232       -6.9630    5.3050    1.5140 h1        1 J12      0.045450
     57 H241       -5.8470    6.8240   -0.9480 h1        1 J12      0.048450
     58 H242       -7.1380    7.3320    0.2350 h1        1 J12      0.048450
     59 H261       -3.3250    6.7570    0.2020 h1        1 J12      0.048450
     60 H262       -3.3490    7.2240    1.9660 h1        1 J12      0.048450
     61 H271       -3.1880    4.7380    1.4760 h1        1 J12      0.045450
     62 H272       -4.5160    5.2360    2.6260 h1        1 J12      0.045450
     63 H281       -3.9310    9.1990    0.9220 h1        1 J12      0.063200
     64 H282       -4.8530    8.9020   -0.6170 h1        1 J12      0.063200
     65 H351       -5.7370   10.8450    0.4500 hc        1 J12      0.072200
     66 H352       -7.0000    9.5430    0.5560 hc        1 J12      0.072200
     67 H361       -4.9820   10.2620    2.8290 hx        1 J12      0.119200
     68 H362       -6.3400    9.0310    2.9230 hx        1 J12      0.119200
     69 H371       -6.9270   11.1330    3.9400 hn        1 J12      0.462133
     70 H372       -7.9030   10.8650    2.6130 hn        1 J12      0.462133
     71 H40        -2.9260   -5.6080   -1.4390 hn        1 J12      0.342500
     72 H2          2.3450    1.2340   -1.2290 h1        1 J12      0.079700
     73 HO2         2.8540   -1.0160   -1.6290 ho        1 J12      0.421000
     74 H3          2.3820   -0.0270    1.6160 h1        1 J12      0.079700
     75 HO3         4.3220    0.8710    0.7150 ho        1 J12      0.443000
     76 H4          1.5120    2.1180    2.4690 h1        1 J12      0.064700
     77 HO4         2.3870    3.3530    0.6180 ho        1 J12      0.441000
     78 H5         -0.1390    0.3930    1.7980 h1        1 J12      0.064700
     79 H61        -0.8250    2.9990    2.3030 h1        1 J12      0.081700
     80 H62        -1.4240    2.9130    0.5660 h1        1 J12      0.081700
     81 HO6        -2.2000    1.2320    2.7060 ho        1 J12      0.419000
     82 H421       -1.6240   -7.2130   -3.5900 hc        1 J12      0.101200
     83 H422       -0.3130   -7.8510   -2.5110 hc        1 J12      0.101200
     84 H44        -4.1670   -7.3480   -2.6960 ha        1 J12      0.150000
     85 H45        -5.4640   -8.8870   -1.0100 ha        1 J12      0.164000
     86 H46        -3.8080  -10.1630    0.5980 h4        1 J12      0.186000
     87 H182       -3.9910    0.5750   -0.7530 hn        1 J12      0.470300
     88 H373       -6.6710   11.9800    2.5250 hn        1 J12      0.462133
@<TRIPOS>BOND
     1    1    2 1   
     2    1   28 1   
     3    1   37 1   
     4    1   44 1   
     5    2    3 1   
     6    3    4 ar  
     7    3    8 ar  
     8    4    5 ar  
     9    4   45 1   
    10    5    6 ar  
    11    5   25 1   
    12    6    7 ar  
    13    6   46 1   
    14    7    8 ar  
    15    7    9 1   
    16    8   47 1   
    17    9   10 2   
    18    9   11 1   
    19   11   12 1   
    20   11   48 1   
    21   11   87 1   
    22   12   13 1   
    23   12   49 1   
    24   12   50 1   
    25   13   14 1   
    26   13   51 1   
    27   13   52 1   
    28   14   15 1   
    29   14   53 1   
    30   14   54 1   
    31   15   16 1   
    32   15   20 1   
    33   16   17 1   
    34   16   55 1   
    35   16   56 1   
    36   17   18 1   
    37   17   57 1   
    38   17   58 1   
    39   18   19 1   
    40   18   21 1   
    41   19   20 1   
    42   19   59 1   
    43   19   60 1   
    44   20   61 1   
    45   20   62 1   
    46   21   22 1   
    47   21   63 1   
    48   21   64 1   
    49   22   23 1   
    50   22   65 1   
    51   22   66 1   
    52   23   24 1   
    53   23   67 1   
    54   23   68 1   
    55   24   69 1   
    56   24   70 1   
    57   24   88 1   
    58   25   26 1   
    59   25   71 1   
    60   26   27 2   
    61   26   39 1   
    62   28   29 1   
    63   28   30 1   
    64   28   72 1   
    65   29   73 1   
    66   30   31 1   
    67   30   32 1   
    68   30   74 1   
    69   31   75 1   
    70   32   33 1   
    71   32   34 1   
    72   32   76 1   
    73   33   77 1   
    74   34   35 1   
    75   34   37 1   
    76   34   78 1   
    77   35   36 1   
    78   35   79 1   
    79   35   80 1   
    80   36   81 1   
    81   38   40 1   
    82   38   43 1   
    83   39   40 1   
    84   39   82 1   
    85   39   83 1   
    86   40   41 2   
    87   41   42 1   
    88   41   84 1   
    89   42   43 2   
    90   42   85 1   
    91   43   86 1   
@<TRIPOS>SUBSTRUCTURE
     1 J12         1 TEMP              0 ****  ****    0 ROOT
