@<TRIPOS>MOLECULE
J12
   86    84     1     0     0
SMALL
bcc


@<TRIPOS>ATOM
      1 C1          6.3090    0.7990    1.7160 c3        1 J12      0.111000
      2 O1          5.9820    0.1970    0.5150 os        1 J12     -0.198000
      3 C7          4.5760   -0.1320    0.5050 c2        1 J12      0.091000
      4 C8          4.1760   -1.4810    0.5390 c2        1 J12     -0.143000
      5 C9          2.8340   -1.8220    0.3490 c1        1 J12      0.094000
      6 C10         1.8660   -0.8060    0.1210 c1        1 J12     -0.183000
      7 C11         2.2520    0.5190    0.0870 c1        1 J12     -0.071000
      8 C12         3.6280    0.8680    0.2810 c1        1 J12     -0.156000
      9 C13         1.2460    1.5830   -0.2370 c2        1 J12      0.344000
     10 O17         1.5880    2.7590   -0.2690 o         1 J12     -0.364000
     11 N18        -0.1370    1.2030   -0.6230 n         1 J12     -0.375000
     12 C19        -1.2600    2.1840   -0.4560 c3        1 J12     -0.030000
     13 C20        -2.3670    1.9060   -1.5350 c3        1 J12     -0.186000
     14 C21        -3.7850    2.1070   -0.8990 c3        1 J12     -0.064000
     15 N22        -4.7710    1.3440   -1.6650 n3        1 J12     -0.253000
     16 C23        -5.6830    2.2200   -2.2520 c3        1 J12     -0.103500
     17 C24        -6.8340    1.4870   -2.9530 c3        1 J12     -0.074500
     18 N25        -7.4690    0.5120   -2.0910 n3        1 J12     -0.245000
     19 C26        -6.5480   -0.3630   -1.5070 c3        1 J12     -0.074500
     20 C27        -5.3960    0.3770   -0.8110 c3        1 J12     -0.103500
     21 C28        -8.2120    1.1770   -1.0680 c3        1 J12     -0.074000
     22 C35        -9.5400    0.4600   -0.8550 c3        1 J12     -0.163000
     23 C36       -10.6980    1.4930   -0.8770 c3        1 J12     -0.079000
     24 N37       -11.9400    0.8050   -0.7650 n3        1 J12     -0.348000
     25 N40         2.4400   -3.2110    0.3240 n         1 J12     -0.321000
     26 C41         3.1720   -4.1640   -0.5050 c2        1 J12      0.310000
     27 O44         4.1630   -3.7720   -1.2090 o         1 J12     -0.342000
     28 C2          7.1680    2.0170    1.4330 c3        1 J12      0.023000
     29 O2          8.2430    1.6350    0.6020 oh        1 J12     -0.304000
     30 C3          7.7090    2.6280    2.6740 c3        1 J12     -0.002000
     31 O3          6.6390    3.2070    3.3930 oh        1 J12     -0.335000
     32 C4          8.3940    1.6300    3.5440 c3        1 J12     -0.028000
     33 O4          8.7220    2.2510    4.7750 oh        1 J12     -0.339000
     34 C5          7.5200    0.3970    3.8200 c3        1 J12      0.002000
     35 C6          6.3960    0.7950    4.6570 c3        1 J12     -0.062000
     36 O6          6.8190    0.8500    6.0430 oh        1 J12     -0.344000
     37 O5          6.9930   -0.1980    2.5940 os        1 J12     -0.285000
     38 S           0.8650   -5.0470   -2.5390 ss        1 J12      0.609000
     39 C42         2.7230   -5.5740   -0.5750 c3        1 J12     -0.115000
     40 C43         2.0590   -5.8370   -1.9360 c2        1 J12     -0.410000
     41 C44         2.3730   -6.9740   -2.8640 c1        1 J12     -0.164000
     42 C45         1.3610   -6.9160   -4.0900 c1        1 J12     -0.156000
     43 C46         0.4570   -5.7590   -3.8940 c1        1 J12     -0.441000
     44 H1          5.4050    1.1200    2.2000 h2        1 J12      0.117000
     45 H8          4.8580   -2.2010    0.6980 ha        1 J12      0.195000
     46 H10         0.8800   -1.0580   -0.0190 ha        1 J12      0.133000
     47 H12         3.9070    1.8210    0.2570 ha        1 J12      0.159000
     48 H18        -0.2760    0.4460   -1.0620 hn        1 J12      0.224000
     49 H191       -0.9150    3.0990   -0.5700 h1        1 J12      0.102500
     50 H192       -1.6380    2.0910    0.4230 h1        1 J12      0.102500
     51 H201       -2.2770    0.9370   -1.8820 hc        1 J12      0.091000
     52 H202       -2.2630    2.4840   -2.2250 hc        1 J12      0.091000
     53 H211       -4.0300    3.0870   -0.9190 h1        1 J12      0.073000
     54 H212       -3.7790    1.8010    0.0080 h1        1 J12      0.073000
     55 H231       -5.2030    2.7780   -2.9200 h1        1 J12      0.074250
     56 H232       -6.0730    2.8360   -1.5190 h1        1 J12      0.074250
     57 H241       -6.4870    1.0340   -3.7280 h1        1 J12      0.098250
     58 H242       -7.5260    2.1700   -3.2520 h1        1 J12      0.098250
     59 H261       -6.9970   -0.9040   -0.8690 h1        1 J12      0.098250
     60 H262       -6.1830   -0.9270   -2.1900 h1        1 J12      0.098250
     61 H271       -4.7500   -0.2520   -0.5440 h1        1 J12      0.074250
     62 H272       -5.7620    0.8610    0.0300 h1        1 J12      0.074250
     63 H281       -7.6910    1.1660   -0.2220 h1        1 J12      0.070000
     64 H282       -8.3740    2.0680   -1.3240 h1        1 J12      0.070000
     65 H351       -9.5280    0.0120   -0.0050 hc        1 J12      0.094000
     66 H352       -9.6720   -0.1860   -1.5590 hc        1 J12      0.094000
     67 H361      -10.5970    2.1220   -0.1050 h1        1 J12      0.063000
     68 H362      -10.6750    2.0010   -1.7230 h1        1 J12      0.063000
     69 H371      -12.3430    1.0400    0.0030 hn        1 J12      0.144500
     70 H372      -12.4240    1.0040   -1.4010 hn        1 J12      0.144500
     71 H40         1.7450   -3.5060    0.8650 hn        1 J12      0.239000
     72 H2          6.6480    2.6580    0.9820 h1        1 J12      0.145000
     73 HO2         8.3610    2.2350   -0.0060 ho        1 J12      0.218000
     74 H3          8.3550    3.3400    2.4310 h1        1 J12      0.110000
     75 HO3         6.7040    4.1440    3.3490 ho        1 J12      0.227000
     76 H4          9.2520    1.3280    3.0890 h1        1 J12      0.099000
     77 HO4         9.6310    2.2340    4.8960 ho        1 J12      0.233000
     78 H5          8.0650   -0.2890    4.3080 h1        1 J12      0.138000
     79 H61         5.6690    0.1390    4.5630 h1        1 J12      0.093000
     80 H62         6.0860    1.6510    4.3860 h1        1 J12      0.093000
     81 HO6         6.0820    0.8750    6.5880 ho        1 J12      0.214000
     82 H421        3.4560   -6.1430   -0.4720 hc        1 J12      0.129000
     83 H422        2.1410   -5.7280    0.0700 hc        1 J12      0.129000
     84 H44         3.1310   -7.6890   -2.7260 DU        1 J12      0.162000
     85 H45         1.3380   -7.5780   -4.8900 DU        1 J12      0.162000
     86 H46        -0.2850   -5.4760   -4.5140 DU        1 J12      0.162000
@<TRIPOS>BOND
     1    1    2 1   
     2    1   28 1   
     3    1   37 1   
     4    1   44 1   
     5    2    3 1   
     6    3    4 1   
     7    3    8 1   
     8    4    5 1   
     9    4   45 1   
    10    5   25 1   
    11    6    7 1   
    12    6   46 1   
    13    7    9 1   
    14    8   47 1   
    15    9   10 1   
    16    9   11 1   
    17   11   12 1   
    18   11   48 1   
    19   12   13 1   
    20   12   49 1   
    21   12   50 1   
    22   13   14 1   
    23   13   51 1   
    24   13   52 1   
    25   14   15 1   
    26   14   53 1   
    27   14   54 1   
    28   15   16 1   
    29   15   20 1   
    30   16   17 1   
    31   16   55 1   
    32   16   56 1   
    33   17   18 1   
    34   17   57 1   
    35   17   58 1   
    36   18   19 1   
    37   18   21 1   
    38   19   20 1   
    39   19   59 1   
    40   19   60 1   
    41   20   61 1   
    42   20   62 1   
    43   21   22 1   
    44   21   63 1   
    45   21   64 1   
    46   22   23 1   
    47   22   65 1   
    48   22   66 1   
    49   23   24 1   
    50   23   67 1   
    51   23   68 1   
    52   24   69 1   
    53   24   70 1   
    54   25   26 1   
    55   25   71 1   
    56   26   27 1   
    57   26   39 1   
    58   28   29 1   
    59   28   30 1   
    60   28   72 1   
    61   29   73 1   
    62   30   31 1   
    63   30   32 1   
    64   30   74 1   
    65   31   75 1   
    66   32   33 1   
    67   32   34 1   
    68   32   76 1   
    69   33   77 1   
    70   34   35 1   
    71   34   37 1   
    72   34   78 1   
    73   35   36 1   
    74   35   79 1   
    75   35   80 1   
    76   36   81 1   
    77   38   40 1   
    78   38   43 1   
    79   39   40 1   
    80   39   82 1   
    81   39   83 1   
    82   40   41 1   
    83   41   42 1   
    84   42   43 1   
@<TRIPOS>SUBSTRUCTURE
     1 J12         1 TEMP              0 ****  ****    0 ROOT
