@<TRIPOS>MOLECULE
J14
   57    54     1     0     0
SMALL
bcc


@<TRIPOS>ATOM
      1 C1         -1.3310    0.8100    0.5430 c3        1 J14     -0.079000
      2 N1          0.0620    1.1330    0.5740 n3        1 J14     -0.290000
      3 C2         -1.8070    0.6550   -0.9490 c3        1 J14     -0.079000
      4 N2         -3.1360    0.0310   -0.9760 n3        1 J14     -0.304000
      5 C3         -3.6060   -0.0550   -2.3450 c3        1 J14     -0.071000
      6 C4         -5.0680   -0.5260   -2.3580 c3        1 J14     -0.129000
      7 N1'         1.3840    3.1990    3.3020 n3        1 J14     -0.268000
      8 C11        -5.5330   -0.7110   -3.8330 c2        1 J14     -0.047000
      9 N11         4.4800   -0.2640    1.0340 n1        1 J14     -0.200000
     10 C12        -5.4390   -1.9370   -4.4550 c1        1 J14     -0.166000
     11 C13        -5.8770   -2.0860   -5.7870 c1        1 J14      0.092000
     12 F13        -5.8390   -3.2290   -6.3460 f         1 J14     -0.107000
     13 C14        -6.3970   -1.0100   -6.4650 c1        1 J14     -0.167000
     14 C15        -6.4920    0.2170   -5.8440 c1        1 J14     -0.104000
     15 C16        -6.0570    0.3690   -4.5160 c2        1 J14     -0.140000
     16 C2'         0.0820    2.6260    2.6000 c3        1 J14     -0.130000
     17 C21         3.8920   -0.2670    2.2460 c1        1 J14      0.029000
     18 C3'         0.5070    1.2290    1.9780 c3        1 J14     -0.046000
     19 C31         4.5060   -0.9140    3.3240 c1        1 J14     -0.232000
     20 C4'         1.8220    1.2100    2.0510 c3        1 J14     -0.120000
     21 C41         5.7110   -1.5490    3.1460 c1        1 J14      0.002000
     22 C5'         2.2280    2.1830    3.3270 c3        1 J14     -0.098000
     23 C51         6.3030   -1.5450    1.9230 c1        1 J14     -0.237000
     24 C61         5.6800   -0.8940    0.8500 c1        1 J14      0.113000
     25 N61         6.3160   -0.8240   -0.4080 n3        1 J14     -0.322000
     26 C71         2.3240   -0.2340    2.2960 c3        1 J14     -0.108000
     27 C81         6.4880   -2.1280    4.2540 c3        1 J14     -0.186000
     28 H1         -1.8300    1.5100    0.9630 h1        1 J14      0.076000
     29 H1A        -1.4790   -0.0310    1.0240 h1        1 J14      0.076000
     30 HN1         0.1880    1.8810    0.1860 hn        1 J14      0.157000
     31 H2         -1.8530    1.5380   -1.3650 h1        1 J14      0.077500
     32 H2A        -1.1260    0.0530   -1.4770 h1        1 J14      0.077500
     33 HN2        -3.0820   -0.8030   -0.6280 hn        1 J14      0.151000
     34 H3         -3.5430    0.8900   -2.8020 h1        1 J14      0.075000
     35 H3A        -3.0790   -0.6610   -2.8150 h1        1 J14      0.075000
     36 H4         -5.1440   -1.3540   -1.8930 hc        1 J14      0.097000
     37 H4A        -5.6620    0.1850   -1.8930 hc        1 J14      0.097000
     38 HN1'        1.1660    3.4760    4.2330 hn        1 J14      0.141000
     39 H12        -5.0160   -2.7110   -3.9770 ha        1 J14      0.148000
     40 H14        -6.6820   -1.1080   -7.3300 ha        1 J14      0.148000
     41 H15        -6.8730    1.0030   -6.3410 ha        1 J14      0.138000
     42 H16        -6.1270    1.2900   -4.0510 ha        1 J14      0.139000
     43 H2'        -0.6180    2.5030    3.2410 h1        1 J14      0.089000
     44 H2'A       -0.2040    3.2200    1.9040 h1        1 J14      0.089000
     45 H3'         0.1360    0.5130    2.4930 h1        1 J14      0.098000
     46 H31         4.0620   -0.9130    4.2350 ha        1 J14      0.140000
     47 H4'         2.2060    1.5640    1.2250 hc        1 J14      0.122000
     48 H5'         2.1280    1.6530    4.2350 h1        1 J14      0.092000
     49 H5'A        3.1370    2.5020    3.2240 h1        1 J14      0.092000
     50 H51         7.1510   -1.9910    1.7940 ha        1 J14      0.141000
     51 HN61        5.8740   -0.3890   -1.1390 hn        1 J14      0.197000
     52 HN6A        7.1390   -1.1300   -0.5100 hn        1 J14      0.197000
     53 H71         2.0250   -0.5350    3.1620 hc        1 J14      0.099500
     54 H71A        1.9600   -0.8310    1.5940 hc        1 J14      0.099500
     55 H81         6.5700   -3.1500    4.1200 hc        1 J14      0.088333
     56 H81A        7.3690   -1.7310    4.2710 hc        1 J14      0.088333
     57 H81B        6.0050   -1.9330    5.1510 hc        1 J14      0.088333
@<TRIPOS>BOND
     1    1    2 1   
     2    1    3 1   
     3    1   28 1   
     4    1   29 1   
     5    2   18 1   
     6    2   30 1   
     7    3    4 1   
     8    3   31 1   
     9    3   32 1   
    10    4    5 1   
    11    4   33 1   
    12    5    6 1   
    13    5   34 1   
    14    5   35 1   
    15    6    8 1   
    16    6   36 1   
    17    6   37 1   
    18    7   16 1   
    19    7   22 1   
    20    7   38 1   
    21    8   10 1   
    22    8   15 1   
    23    9   17 1   
    24   10   39 1   
    25   11   12 1   
    26   11   13 1   
    27   13   40 1   
    28   14   15 1   
    29   14   41 1   
    30   15   42 1   
    31   16   18 1   
    32   16   43 1   
    33   16   44 1   
    34   17   26 1   
    35   18   20 1   
    36   18   45 1   
    37   19   21 1   
    38   19   46 1   
    39   20   22 1   
    40   20   26 1   
    41   20   47 1   
    42   21   27 1   
    43   22   48 1   
    44   22   49 1   
    45   23   24 1   
    46   23   50 1   
    47   24   25 1   
    48   25   51 1   
    49   25   52 1   
    50   26   53 1   
    51   26   54 1   
    52   27   55 1   
    53   27   56 1   
    54   27   57 1   
@<TRIPOS>SUBSTRUCTURE
     1 J14         1 TEMP              0 ****  ****    0 ROOT
