@<TRIPOS>MOLECULE
J14
   57    59     1     0     0
SMALL
bcc


@<TRIPOS>ATOM
      1 C1          0.5010    1.3740   -0.6230 c3        1 J14      0.161800
      2 N1         -0.6980    1.1260    0.1510 n3        1 J14     -0.825200
      3 C2          1.7600    0.8340    0.0870 c3        1 J14      0.160800
      4 N2          2.9690    1.1410   -0.6510 n3        1 J14     -0.825200
      5 C3          4.1520    0.5470   -0.0610 c3        1 J14      0.166800
      6 C4          5.4050    0.7480   -0.9200 c3        1 J14     -0.044100
      7 N1'        -3.3300    3.3080    0.5450 n3        1 J14     -0.791200
      8 C11         6.6050    0.2120   -0.2200 ca        1 J14     -0.053300
      9 N11        -4.8210   -1.7620    0.3080 nb        1 J14     -0.732000
     10 C12         7.1920   -0.9810   -0.6470 ca        1 J14     -0.165000
     11 C13         8.3320   -1.4700    0.0160 ca        1 J14      0.125900
     12 F13         8.9030   -2.6280   -0.3980 f         1 J14     -0.142900
     13 C14         8.8830   -0.7680    1.1030 ca        1 J14     -0.167000
     14 C15         8.2840    0.4190    1.5150 ca        1 J14     -0.103000
     15 C16         7.1550    0.9090    0.8620 ca        1 J14     -0.142000
     16 C2'        -2.1590    3.1160   -0.2980 c3        1 J14      0.147800
     17 C21        -5.0470   -0.6980   -0.4940 ca        1 J14      0.449600
     18 C3'        -1.9130    1.5850   -0.5060 c3        1 J14      0.152500
     19 C31        -6.3360   -0.2760   -0.8740 ca        1 J14     -0.291300
     20 C4'        -3.1980    0.9050    0.0490 c3        1 J14     -0.093700
     21 C41        -7.4480   -0.9850   -0.4020 ca        1 J14     -0.004300
     22 C5'        -4.0970    2.0690    0.5230 c3        1 J14      0.147800
     23 C51        -7.2440   -2.0810    0.4320 ca        1 J14     -0.300300
     24 C61        -5.9090   -2.4430    0.7870 ca        1 J14      0.633200
     25 N61        -5.7080   -3.4820    1.7110 nh        1 J14     -0.924500
     26 C71        -3.8580    0.0600   -1.0230 c3        1 J14     -0.123700
     27 C81        -8.8170   -0.5620   -0.7760 c3        1 J14     -0.061800
     28 H1          0.4410    0.9190   -1.6570 h1        1 J14      0.034200
     29 H1A         0.5980    2.4890   -0.7540 h1        1 J14      0.034200
     30 HN1        -0.7730    0.1540    0.3870 hn        1 J14      0.364800
     31 H2          1.8510    1.3180    1.1010 h1        1 J14      0.036700
     32 H2A         1.6370   -0.2780    0.2560 h1        1 J14      0.036700
     33 HN2         2.8770    0.8670   -1.6120 hn        1 J14      0.354800
     34 H3          4.3150    1.0410    0.9390 h1        1 J14      0.035200
     35 H3A         4.0260   -0.5600    0.1290 h1        1 J14      0.035200
     36 H4          5.2740    0.2370   -1.9100 hc        1 J14      0.057700
     37 H4A         5.5530    1.8430   -1.1250 hc        1 J14      0.057700
     38 HN1'       -3.0450    3.5190    1.4850 hn        1 J14      0.351800
     39 H12         6.7760   -1.5420   -1.4960 ha        1 J14      0.147000
     40 H14         9.7740   -1.1610    1.6120 ha        1 J14      0.148000
     41 H15         8.7100    0.9750    2.3640 ha        1 J14      0.138000
     42 H16         6.6910    1.8500    1.1940 ha        1 J14      0.140000
     43 H2'        -2.3840    3.5740   -1.3000 h1        1 J14      0.055200
     44 H2'A       -1.2600    3.6350    0.1290 h1        1 J14      0.055200
     45 H3'        -1.8550    1.4010   -1.6220 h1        1 J14      0.027700
     46 H31        -6.4650    0.5960   -1.5280 ha        1 J14      0.144000
     47 H4'        -2.9610    0.2510    0.9310 hc        1 J14      0.078700
     48 H5'        -4.5330    1.8410    1.5310 h1        1 J14      0.052200
     49 H5'A       -4.9510    2.2100   -0.1970 h1        1 J14      0.052200
     50 H51        -8.0980   -2.6520    0.8210 ha        1 J14      0.142000
     51 HN61       -4.7740   -3.8230    1.7850 hn        1 J14      0.400800
     52 HN6A       -6.3950   -4.2000    1.6570 hn        1 J14      0.400800
     53 H71        -3.1040   -0.6640   -1.4350 hc        1 J14      0.056700
     54 H71A       -4.1940    0.7150   -1.8720 hc        1 J14      0.056700
     55 H81        -8.8500   -0.2290   -1.8430 hc        1 J14      0.050367
     56 H81A       -9.5500   -1.3950   -0.6390 hc        1 J14      0.050367
     57 H81B       -9.1360    0.2960   -0.1310 hc        1 J14      0.050367
@<TRIPOS>BOND
     1    1    2 1   
     2    1    3 1   
     3    1   28 1   
     4    1   29 1   
     5    2   18 1   
     6    2   30 1   
     7    3    4 1   
     8    3   31 1   
     9    3   32 1   
    10    4    5 1   
    11    4   33 1   
    12    5    6 1   
    13    5   34 1   
    14    5   35 1   
    15    6    8 1   
    16    6   36 1   
    17    6   37 1   
    18    7   16 1   
    19    7   22 1   
    20    7   38 1   
    21    8   10 ar  
    22    8   15 ar  
    23    9   17 ar  
    24    9   24 ar  
    25   10   11 ar  
    26   10   39 1   
    27   11   12 1   
    28   11   13 ar  
    29   13   14 ar  
    30   13   40 1   
    31   14   15 ar  
    32   14   41 1   
    33   15   42 1   
    34   16   18 1   
    35   16   43 1   
    36   16   44 1   
    37   17   19 ar  
    38   17   26 1   
    39   18   20 1   
    40   18   45 1   
    41   19   21 ar  
    42   19   46 1   
    43   20   22 1   
    44   20   26 1   
    45   20   47 1   
    46   21   23 ar  
    47   21   27 1   
    48   22   48 1   
    49   22   49 1   
    50   23   24 ar  
    51   23   50 1   
    52   24   25 1   
    53   25   51 1   
    54   25   52 1   
    55   26   53 1   
    56   26   54 1   
    57   27   55 1   
    58   27   56 1   
    59   27   57 1   
@<TRIPOS>SUBSTRUCTURE
     1 J14         1 TEMP              0 ****  ****    0 ROOT
