@<TRIPOS>MOLECULE
J14
   59    61     1     0     0
SMALL
bcc


@<TRIPOS>ATOM
      1 C1         -0.1860   -0.4630   -0.0360 c3        1 J14      0.073800
      2 N1          1.2960   -0.4770    0.0020 ny        1 J14     -0.761000
      3 C2         -0.7330   -0.1480   -1.4440 c3        1 J14      0.073800
      4 N2         -2.2190   -0.1220   -1.4870 ny        1 J14     -0.763000
      5 C3         -2.7260    0.1780   -2.8750 c3        1 J14      0.104800
      6 C4         -4.2550    0.1810   -2.9380 c3        1 J14     -0.046100
      7 N1'         3.0190    1.3540    1.8430 n7        1 J14     -0.839200
      8 C11        -4.6600    0.4060   -4.3540 ca        1 J14     -0.118300
      9 N11         5.3320   -3.2640    1.0020 nb        1 J14     -0.777000
     10 C12        -4.5540   -0.6450   -5.2710 ca        1 J14     -0.174000
     11 C13        -4.9670   -0.4460   -6.6000 ca        1 J14      0.153900
     12 F13        -4.8610   -1.4570   -7.4890 f         1 J14     -0.111900
     13 C14        -5.4890    0.8010   -7.0030 ca        1 J14     -0.123000
     14 C15        -5.5900    1.8300   -6.0740 ca        1 J14     -0.086000
     15 C16        -5.1760    1.6410   -4.7530 ca        1 J14     -0.123000
     16 C2'         1.8040    0.6450    2.2160 c3        1 J14      0.135800
     17 C21         5.1080   -2.5900    2.1570 ca        1 J14      0.413600
     18 C3'         1.8440   -0.6800    1.4050 c3        1 J14      0.110500
     19 C31         6.0710   -2.3960    3.1530 ca        1 J14     -0.284300
     20 C4'         3.3650   -1.0060    1.3270 c3        1 J14     -0.086700
     21 C41         7.3590   -2.9310    2.9580 ca        1 J14      0.017700
     22 C5'         4.0560    0.3580    1.5720 c3        1 J14      0.132800
     23 C51         7.6270   -3.6200    1.7840 ca        1 J14     -0.283300
     24 C61         6.5900   -3.7710    0.8030 ca        1 J14      0.665200
     25 N61         6.8890   -4.3820   -0.4120 nv        1 J14     -0.935500
     26 C71         3.7210   -2.0440    2.3790 c3        1 J14     -0.120700
     27 C81         8.3970   -2.7700    4.0020 c3        1 J14     -0.073800
     28 H1         -0.5510   -1.4760    0.3090 hx        1 J14      0.125200
     29 H1A        -0.5430    0.3130    0.7060 hx        1 J14      0.125200
     30 HN1         1.6560   -1.2360   -0.5950 hn        1 J14      0.469800
     31 H2         -0.3620    0.8630   -1.7920 hx        1 J14      0.129200
     32 H2A        -0.3810   -0.9270   -2.1850 hx        1 J14      0.129200
     33 HN2        -2.5780    0.5950   -0.8430 hn        1 J14      0.461800
     34 H3         -2.3180   -0.6100   -3.5730 hx        1 J14      0.118700
     35 H3A        -2.3240    1.1870   -3.1800 hx        1 J14      0.118700
     36 H4         -4.6670   -0.8020   -2.5820 hc        1 J14      0.078700
     37 H4A        -4.6730    0.9920   -2.2830 hc        1 J14      0.078700
     38 HN1'        3.2990    2.0200    2.5380 hn        1 J14      0.415800
     39 H12        -4.1780   -1.6320   -4.9670 ha        1 J14      0.140000
     40 H14        -5.8180    0.9420   -8.0460 ha        1 J14      0.181000
     41 H15        -6.0080    2.8030   -6.3810 ha        1 J14      0.168000
     42 H16        -5.2770    2.4650   -4.0300 ha        1 J14      0.142000
     43 H2'         0.9170    1.2920    1.9830 h1        1 J14      0.073700
     44 H2'A        1.7470    0.3600    3.3060 h1        1 J14      0.073700
     45 H3'         1.2480   -1.4990    1.8890 hx        1 J14      0.119700
     46 H31         5.8350   -1.8520    4.0770 ha        1 J14      0.145000
     47 H4'         3.6620   -1.4020    0.3180 hc        1 J14      0.098700
     48 H5'         4.6130    0.6910    0.6540 h1        1 J14      0.087200
     49 H5'A        4.8050    0.2590    2.4070 h1        1 J14      0.087200
     50 H51         8.6260   -4.0430    1.6020 ha        1 J14      0.162000
     51 HN61        6.1300   -4.7030   -0.9680 hn        1 J14      0.421800
     52 HN6A        7.6910   -4.9700   -0.4050 hn        1 J14      0.421800
     53 H71         2.9860   -2.8940    2.3400 hc        1 J14      0.065700
     54 H71A        3.6590   -1.5880    3.4030 hc        1 J14      0.065700
     55 H81         9.4240   -2.8720    3.5710 hc        1 J14      0.064700
     56 H81A        8.3150   -1.7690    4.4930 hc        1 J14      0.064700
     57 H81B        8.2670   -3.5570    4.7880 hc        1 J14      0.064700
     58 H121        1.6710    0.4170   -0.3520 hn        1 J14      0.469800
     59 H22        -2.5960   -1.0320   -1.1890 hn        1 J14      0.461800
@<TRIPOS>BOND
     1    1    2 1   
     2    1    3 1   
     3    1   28 1   
     4    1   29 1   
     5    2   18 1   
     6    2   30 1   
     7    2   58 1   
     8    3    4 1   
     9    3   31 1   
    10    3   32 1   
    11    4    5 1   
    12    4   33 1   
    13    4   59 1   
    14    5    6 1   
    15    5   34 1   
    16    5   35 1   
    17    6    8 1   
    18    6   36 1   
    19    6   37 1   
    20    7   16 1   
    21    7   22 1   
    22    7   38 1   
    23    8   10 ar  
    24    8   15 ar  
    25    9   17 ar  
    26    9   24 ar  
    27   10   11 ar  
    28   10   39 1   
    29   11   12 1   
    30   11   13 ar  
    31   13   14 ar  
    32   13   40 1   
    33   14   15 ar  
    34   14   41 1   
    35   15   42 1   
    36   16   18 1   
    37   16   43 1   
    38   16   44 1   
    39   17   19 ar  
    40   17   26 1   
    41   18   20 1   
    42   18   45 1   
    43   19   21 ar  
    44   19   46 1   
    45   20   22 1   
    46   20   26 1   
    47   20   47 1   
    48   21   23 ar  
    49   21   27 1   
    50   22   48 1   
    51   22   49 1   
    52   23   24 ar  
    53   23   50 1   
    54   24   25 1   
    55   25   51 1   
    56   25   52 1   
    57   26   53 1   
    58   26   54 1   
    59   27   55 1   
    60   27   56 1   
    61   27   57 1   
@<TRIPOS>SUBSTRUCTURE
     1 J14         1 TEMP              0 ****  ****    0 ROOT
