@<TRIPOS>MOLECULE
J14
   60    62     1     0     0
SMALL
bcc


@<TRIPOS>ATOM
      1 C1         -0.2080   -0.8570   -0.3300 c3        1 J14      0.074800
      2 N1          1.2790   -0.8000   -0.3470 n4        1 J14     -0.759000
      3 C2         -0.8340   -0.3080   -1.6320 c3        1 J14      0.074800
      4 N2         -2.3200   -0.3220   -1.6090 n4        1 J14     -0.765000
      5 C3         -2.8990    0.2120   -2.8990 c3        1 J14      0.105800
      6 C4         -4.4290    0.1540   -2.9030 c3        1 J14     -0.044100
      7 N1'         2.9170    0.9210    1.6260 n3        1 J14     -0.839200
      8 C11        -4.9010    0.6030   -4.2430 ca        1 J14     -0.123300
      9 N11         5.9980   -3.2270    0.9520 nb        1 J14     -0.675000
     10 C12        -4.7600   -0.2540   -5.3400 ca        1 J14     -0.179000
     11 C13        -5.2410    0.1500   -6.5980 ca        1 J14      0.155900
     12 F13        -5.0990   -0.6720   -7.6600 f         1 J14     -0.110900
     13 C14        -5.8670    1.4050   -6.7510 ca        1 J14     -0.119000
     14 C15        -6.0010    2.2380   -5.6460 ca        1 J14     -0.084000
     15 C16        -5.5180    1.8470   -4.3940 ca        1 J14     -0.120000
     16 C2'         1.7770    0.0860    1.9660 c3        1 J14      0.136800
     17 C21         5.3370   -2.6270    1.9650 ca        1 J14      0.431600
     18 C3'         1.8840   -1.1340    1.0030 c3        1 J14      0.111500
     19 C31         5.9790   -2.2280    3.1630 ca        1 J14     -0.202300
     20 C4'         3.4290   -1.3450    0.8890 c3        1 J14     -0.087700
     21 C41         7.3460   -2.4620    3.3340 ca        1 J14      0.028700
     22 C5'         4.0210    0.0410    1.2540 c3        1 J14      0.136800
     23 C51         8.0500   -3.1020    2.2960 ca        1 J14     -0.193300
     24 C61         7.3290   -3.4620    1.1420 ca        1 J14      0.461200
     25 N61         8.0450   -4.1730    0.0570 n4        1 J14     -0.820300
     26 C71         3.8450   -2.4400    1.8600 c3        1 J14     -0.133700
     27 C81         8.0490   -2.0750    4.5750 c3        1 J14     -0.094800
     28 H1         -0.5690   -0.2540    0.5570 hx        1 J14      0.127700
     29 H1A        -0.5130   -1.9350   -0.1730 hx        1 J14      0.127700
     30 HN1         1.5910    0.1500   -0.6050 hn        1 J14      0.468800
     31 H2         -0.4990   -0.9270   -2.5180 hx        1 J14      0.130200
     32 H2A        -0.5050    0.7610   -1.8040 hx        1 J14      0.130200
     33 HN2        -2.6690    0.2550   -0.8310 hn        1 J14      0.463300
     34 H3         -2.4920   -0.4110   -3.7470 hx        1 J14      0.118700
     35 H3A        -2.5510    1.2780   -3.0190 hx        1 J14      0.118700
     36 H4         -4.8500    0.8180   -2.1010 hc        1 J14      0.079700
     37 H4A        -4.7860   -0.8940   -2.7140 hc        1 J14      0.079700
     38 HN1'        3.1570    1.5710    2.3510 hn        1 J14      0.428800
     39 H12        -4.3080   -1.2490   -5.2330 ha        1 J14      0.137000
     40 H14        -6.2510    1.7060   -7.7400 ha        1 J14      0.185000
     41 H15        -6.5010    3.2150   -5.7570 ha        1 J14      0.172000
     42 H16        -5.6480    2.5160   -3.5300 ha        1 J14      0.143000
     43 H2'         1.7900   -0.3220    3.0190 h1        1 J14      0.083200
     44 H2'A        0.8360    0.6850    1.8450 h1        1 J14      0.083200
     45 H3'         1.3550   -2.0420    1.4010 hx        1 J14      0.123700
     46 H31         5.4000   -1.7460    3.9690 ha        1 J14      0.180000
     47 H4'         3.7500   -1.6380   -0.1450 hc        1 J14      0.085700
     48 H5'         4.7850   -0.0750    2.0740 h1        1 J14      0.079700
     49 H5'A        4.5370    0.5000    0.3660 h1        1 J14      0.079700
     50 H51         9.1280   -3.3070    2.4140 ha        1 J14      0.190000
     51 HN61        7.6780   -3.9080   -0.8660 hn        1 J14      0.479467
     52 HN6A        7.9250   -5.1870    0.1840 hn        1 J14      0.479467
     53 H71         3.4520   -2.1960    2.8860 hc        1 J14      0.084700
     54 H71A        3.3760   -3.4130    1.5430 hc        1 J14      0.084700
     55 H81         7.4570   -1.3320    5.1660 hc        1 J14      0.091700
     56 H81A        8.2140   -2.9810    5.2180 hc        1 J14      0.091700
     57 H81B        9.0510   -1.6280    4.3460 hc        1 J14      0.091700
     58 H121        1.6430   -1.4600   -1.0460 hn        1 J14      0.468800
     59 H22        -2.6650   -1.2810   -1.4690 hn        1 J14      0.463300
     60 H613        9.0450   -3.9390    0.1050 hn        1 J14      0.479467
@<TRIPOS>BOND
     1    1    2 1   
     2    1    3 1   
     3    1   28 1   
     4    1   29 1   
     5    2   18 1   
     6    2   30 1   
     7    2   58 1   
     8    3    4 1   
     9    3   31 1   
    10    3   32 1   
    11    4    5 1   
    12    4   33 1   
    13    4   59 1   
    14    5    6 1   
    15    5   34 1   
    16    5   35 1   
    17    6    8 1   
    18    6   36 1   
    19    6   37 1   
    20    7   16 1   
    21    7   22 1   
    22    7   38 1   
    23    8   10 ar  
    24    8   15 ar  
    25    9   17 ar  
    26    9   24 ar  
    27   10   11 ar  
    28   10   39 1   
    29   11   12 1   
    30   11   13 ar  
    31   13   14 ar  
    32   13   40 1   
    33   14   15 ar  
    34   14   41 1   
    35   15   42 1   
    36   16   18 1   
    37   16   43 1   
    38   16   44 1   
    39   17   19 ar  
    40   17   26 1   
    41   18   20 1   
    42   18   45 1   
    43   19   21 ar  
    44   19   46 1   
    45   20   22 1   
    46   20   26 1   
    47   20   47 1   
    48   21   23 ar  
    49   21   27 1   
    50   22   48 1   
    51   22   49 1   
    52   23   24 ar  
    53   23   50 1   
    54   24   25 1   
    55   25   51 1   
    56   25   52 1   
    57   25   60 1   
    58   26   53 1   
    59   26   54 1   
    60   27   55 1   
    61   27   56 1   
    62   27   57 1   
@<TRIPOS>SUBSTRUCTURE
     1 J14         1 TEMP              0 ****  ****    0 ROOT
