@<TRIPOS>MOLECULE
J14
   59    61     1     0     0
SMALL
bcc


@<TRIPOS>ATOM
      1 C1         -0.1880   -0.4680   -0.0390 c3        1 J14      0.073800
      2 N1          1.2950   -0.4790    0.0030 n4        1 J14     -0.761000
      3 C2         -0.7310   -0.1480   -1.4480 c3        1 J14      0.073800
      4 N2         -2.2160   -0.1250   -1.4960 n4        1 J14     -0.763000
      5 C3         -2.7200    0.1800   -2.8850 c3        1 J14      0.104800
      6 C4         -4.2480    0.1820   -2.9510 c3        1 J14     -0.046100
      7 N1'         3.0080    1.3480    1.8570 n3        1 J14     -0.839200
      8 C11        -4.6490    0.4090   -4.3680 ca        1 J14     -0.118300
      9 N11         5.3300   -3.2640    1.0040 nb        1 J14     -0.777000
     10 C12        -4.5410   -0.6390   -5.2870 ca        1 J14     -0.174000
     11 C13        -4.9500   -0.4360   -6.6170 ca        1 J14      0.153900
     12 F13        -4.8410   -1.4460   -7.5080 f         1 J14     -0.111900
     13 C14        -5.4710    0.8110   -7.0190 ca        1 J14     -0.123000
     14 C15        -5.5740    1.8380   -6.0870 ca        1 J14     -0.086000
     15 C16        -5.1630    1.6460   -4.7660 ca        1 J14     -0.123000
     16 C2'         1.7940    0.6350    2.2230 c3        1 J14      0.135800
     17 C21         5.1020   -2.5950    2.1610 ca        1 J14      0.413600
     18 C3'         1.8380   -0.6870    1.4070 c3        1 J14      0.110500
     19 C31         6.0620   -2.4060    3.1620 ca        1 J14     -0.284300
     20 C4'         3.3600   -1.0100    1.3330 c3        1 J14     -0.086700
     21 C41         7.3510   -2.9400    2.9680 ca        1 J14      0.017700
     22 C5'         4.0480    0.3540    1.5860 c3        1 J14      0.132800
     23 C51         7.6230   -3.6230    1.7910 ca        1 J14     -0.283300
     24 C61         6.5890   -3.7690    0.8060 ca        1 J14      0.665200
     25 N61         6.8920   -4.3740   -0.4120 nh        1 J14     -0.936500
     26 C71         3.7140   -2.0520    2.3820 c3        1 J14     -0.120700
     27 C81         8.3860   -2.7830    4.0150 c3        1 J14     -0.073800
     28 H1         -0.5480    0.3050    0.7040 hx        1 J14      0.125200
     29 H1A        -0.5520   -1.4830    0.3010 hx        1 J14      0.125200
     30 HN1         1.6690    0.4160   -0.3470 hn        1 J14      0.469800
     31 H2         -0.3600    0.8640   -1.7920 hx        1 J14      0.129200
     32 H2A        -0.3750   -0.9240   -2.1910 hx        1 J14      0.129200
     33 HN2        -2.5930   -1.0360   -1.2020 hn        1 J14      0.461800
     34 H3         -2.3170    1.1900   -3.1840 hx        1 J14      0.118700
     35 H3A        -2.3080   -0.6050   -3.5830 hx        1 J14      0.118700
     36 H4         -4.6690    0.9910   -2.2950 hc        1 J14      0.078700
     37 H4A        -4.6600   -0.8030   -2.6000 hc        1 J14      0.078700
     38 HN1'        3.2850    2.0120    2.5550 hn        1 J14      0.415800
     39 H12        -4.1660   -1.6270   -4.9850 ha        1 J14      0.140000
     40 H14        -5.7960    0.9550   -8.0630 ha        1 J14      0.181000
     41 H15        -5.9910    2.8120   -6.3940 ha        1 J14      0.168000
     42 H16        -5.2670    2.4680   -4.0410 ha        1 J14      0.142000
     43 H2'         0.9070    1.2820    1.9900 h1        1 J14      0.073700
     44 H2'A        1.7340    0.3460    3.3120 h1        1 J14      0.073700
     45 H3'         1.2420   -1.5090    1.8870 hx        1 J14      0.118700
     46 H31         5.8240   -1.8670    4.0870 ha        1 J14      0.145000
     47 H4'         3.6610   -1.4010    0.3230 hc        1 J14      0.098700
     48 H5'         4.7940    0.2540    2.4230 h1        1 J14      0.087200
     49 H5'A        4.6080    0.6920    0.6710 h1        1 J14      0.087200
     50 H51         8.6230   -4.0440    1.6090 ha        1 J14      0.162000
     51 HN61        6.1350   -4.6930   -0.9710 hn        1 J14      0.421800
     52 HN6A        7.6940   -4.9620   -0.4050 hn        1 J14      0.421800
     53 H71         3.6490   -1.5990    3.4070 hc        1 J14      0.065700
     54 H71A        2.9810   -2.9020    2.3370 hc        1 J14      0.065700
     55 H81         9.4140   -2.8900    3.5890 hc        1 J14      0.064367
     56 H81A        8.3060   -1.7820    4.5060 hc        1 J14      0.064367
     57 H81B        8.2490   -3.5700    4.8010 hc        1 J14      0.064367
     58 H121        1.6570   -1.2350   -0.5950 hn        1 J14      0.469800
     59 H22        -2.5790    0.5890   -0.8500 hn        1 J14      0.461800
@<TRIPOS>BOND
     1    1    2 1   
     2    1    3 1   
     3    1   28 1   
     4    1   29 1   
     5    2   18 1   
     6    2   30 1   
     7    2   58 1   
     8    3    4 1   
     9    3   31 1   
    10    3   32 1   
    11    4    5 1   
    12    4   33 1   
    13    4   59 1   
    14    5    6 1   
    15    5   34 1   
    16    5   35 1   
    17    6    8 1   
    18    6   36 1   
    19    6   37 1   
    20    7   16 1   
    21    7   22 1   
    22    7   38 1   
    23    8   10 ar  
    24    8   15 ar  
    25    9   17 ar  
    26    9   24 ar  
    27   10   11 ar  
    28   10   39 1   
    29   11   12 1   
    30   11   13 ar  
    31   13   14 ar  
    32   13   40 1   
    33   14   15 ar  
    34   14   41 1   
    35   15   42 1   
    36   16   18 1   
    37   16   43 1   
    38   16   44 1   
    39   17   19 ar  
    40   17   26 1   
    41   18   20 1   
    42   18   45 1   
    43   19   21 ar  
    44   19   46 1   
    45   20   22 1   
    46   20   26 1   
    47   20   47 1   
    48   21   23 ar  
    49   21   27 1   
    50   22   48 1   
    51   22   49 1   
    52   23   24 ar  
    53   23   50 1   
    54   24   25 1   
    55   25   51 1   
    56   25   52 1   
    57   26   53 1   
    58   26   54 1   
    59   27   55 1   
    60   27   56 1   
    61   27   57 1   
@<TRIPOS>SUBSTRUCTURE
     1 J14         1 TEMP              0 ****  ****    0 ROOT
