@<TRIPOS>MOLECULE
J15
   76    78     1     0     0
SMALL
bcc


@<TRIPOS>ATOM
      1 C1          0.5190    0.1140    0.0850 c3        1 J15      0.303900
      2 O1         -0.2030   -1.0200    0.5930 os        1 J15     -0.331900
      3 C7         -1.3760   -1.3650   -0.0270 ca        1 J15      0.148100
      4 C8         -1.7590   -2.7120    0.1440 ca        1 J15     -0.034000
      5 C9         -2.9800   -3.1320   -0.3960 ca        1 J15     -0.149200
      6 N14        -3.4200   -4.5530   -0.2240 no        1 J15      0.317200
      7 O15        -2.6820   -5.3230    0.3130 o         1 J15     -0.173500
      8 O16        -4.5100   -4.8500   -0.6330 o         1 J15     -0.173500
      9 C10        -3.8150   -2.2520   -1.1000 ca        1 J15     -0.090000
     10 C11        -3.4160   -0.9210   -1.2500 ca        1 J15     -0.178600
     11 C12        -2.1950   -0.4670   -0.7240 ca        1 J15     -0.088000
     12 C13        -4.2320    0.0600   -1.9700 c         1 J15      0.579700
     13 N18        -5.7360   -0.1960   -1.9270 n4        1 J15     -0.680800
     14 C19        -6.5510    1.0090   -2.2570 c3        1 J15      0.102800
     15 C20        -8.0420    0.7020   -2.3200 c3        1 J15     -0.115400
     16 C21        -8.7850    1.9880   -2.7170 c3        1 J15      0.185800
     17 N22       -10.1950    1.7370   -2.9640 n3        1 J15     -0.744600
     18 C23       -10.7300    2.5220   -4.0680 c3        1 J15      0.172300
     19 C24       -12.2160    2.2180   -4.3460 c3        1 J15      0.172300
     20 N25       -13.0420    2.3100   -3.1500 n3        1 J15     -0.745600
     21 C28       -14.4450    2.0370   -3.4060 c3        1 J15      0.186800
     22 C35       -15.3570    3.0050   -2.6320 c3        1 J15     -0.119400
     23 C36       -16.8000    2.7320   -3.0350 c3        1 J15      0.099800
     24 N37       -17.7660    3.6560   -2.3710 n4        1 J15     -0.838600
     25 C26       -12.5040    1.5400   -2.0380 c3        1 J15      0.172300
     26 C27       -11.0160    1.8410   -1.7660 c3        1 J15      0.172300
     27 O17        -3.8760    1.0560   -2.5790 o         1 J15     -0.400100
     28 C2          1.9320    0.0600    0.6980 c3        1 J15      0.093100
     29 O2          2.5380   -1.1950    0.4850 oh        1 J15     -0.576800
     30 C3          1.8630    0.2710    2.2200 c3        1 J15      0.115100
     31 O3          3.1630    0.4280    2.7530 oh        1 J15     -0.596800
     32 C4          1.1130    1.5810    2.5160 c3        1 J15      0.123100
     33 O4          1.8110    2.7030    2.0080 oh        1 J15     -0.596800
     34 C5         -0.2720    1.5410    1.8570 c3        1 J15      0.145100
     35 C6         -0.9580    2.9050    1.9570 c3        1 J15      0.136400
     36 O6         -2.3480    2.6930    1.7550 oh        1 J15     -0.623800
     37 O5         -0.2150    1.2480    0.4510 os        1 J15     -0.427600
     38 H1          0.5400    0.1120   -1.0400 h2        1 J15      0.090700
     39 H8         -1.0990   -3.4080    0.6980 ha        1 J15      0.216000
     40 H10        -4.7480   -2.6470   -1.5360 ha        1 J15      0.160000
     41 H12        -1.8940    0.5930   -0.8400 ha        1 J15      0.208000
     42 H18        -5.9820   -0.5320   -0.9880 hn        1 J15      0.460300
     43 H191       -6.1900    1.4050   -3.2520 hx        1 J15      0.115200
     44 H192       -6.3390    1.7910   -1.4730 hx        1 J15      0.115200
     45 H201       -8.2480   -0.1010   -3.0780 hc        1 J15      0.072700
     46 H202       -8.4140    0.3420   -1.3260 hc        1 J15      0.072700
     47 H211       -8.3090    2.3920   -3.6560 h1        1 J15      0.049700
     48 H212       -8.6270    2.7530   -1.9020 h1        1 J15      0.049700
     49 H231      -10.6140    3.6300   -3.8860 h1        1 J15      0.047950
     50 H232      -10.1540    2.2570   -4.9990 h1        1 J15      0.047950
     51 H241      -12.5830    2.9850   -5.0840 h1        1 J15      0.047200
     52 H242      -12.2930    1.2000   -4.8260 h1        1 J15      0.047200
     53 H281      -14.7310    0.9820   -3.1220 h1        1 J15      0.049200
     54 H282      -14.6610    2.1600   -4.5060 h1        1 J15      0.049200
     55 H351      -15.2200    2.8530   -1.5290 hc        1 J15      0.077700
     56 H352      -15.0710    4.0630   -2.8730 hc        1 J15      0.077700
     57 H361      -17.0900    1.6770   -2.7570 hx        1 J15      0.114200
     58 H362      -16.9230    2.8580   -4.1510 hx        1 J15      0.114200
     59 H371      -17.5500    4.6290   -2.6160 hn        1 J15      0.464800
     60 H372      -18.7230    3.4400   -2.6720 hn        1 J15      0.464800
     61 H261      -12.6220    0.4290   -2.2050 h1        1 J15      0.047200
     62 H262      -13.0830    1.8160   -1.1130 h1        1 J15      0.047200
     63 H271      -10.9340    2.8630   -1.2920 h1        1 J15      0.047950
     64 H272      -10.6440    1.0820   -1.0230 h1        1 J15      0.047950
     65 H2          2.5270    0.8980    0.2340 h1        1 J15      0.092700
     66 HO2         2.8780   -1.2030   -0.4190 ho        1 J15      0.418000
     67 H3          1.3410   -0.6020    2.6980 h1        1 J15      0.074700
     68 HO3         3.6440   -0.3910    2.5690 ho        1 J15      0.437000
     69 H4          0.9910    1.6860    3.6310 h1        1 J15      0.072700
     70 HO4         2.7020    2.6720    2.3870 ho        1 J15      0.437000
     71 H5         -0.8900    0.7430    2.3530 h1        1 J15      0.069700
     72 H61        -0.5520    3.5970    1.1720 h1        1 J15      0.061700
     73 H62        -0.7700    3.3330    2.9770 h1        1 J15      0.061700
     74 HO6        -2.7770    3.5370    1.9390 ho        1 J15      0.410000
     75 H182       -5.9550   -0.9440   -2.5960 hn        1 J15      0.460300
     76 H373      -17.7070    3.5580   -1.3510 hn        1 J15      0.464800
@<TRIPOS>BOND
     1    1    2 1   
     2    1   28 1   
     3    1   37 1   
     4    1   38 1   
     5    2    3 1   
     6    3    4 ar  
     7    3   11 ar  
     8    4    5 ar  
     9    4   39 1   
    10    5    6 1   
    11    5    9 ar  
    12    6    7 1   
    13    6    8 1   
    14    9   10 ar  
    15    9   40 1   
    16   10   11 ar  
    17   10   12 1   
    18   11   41 1   
    19   12   13 1   
    20   12   27 2   
    21   13   14 1   
    22   13   42 1   
    23   13   75 1   
    24   14   15 1   
    25   14   43 1   
    26   14   44 1   
    27   15   16 1   
    28   15   45 1   
    29   15   46 1   
    30   16   17 1   
    31   16   47 1   
    32   16   48 1   
    33   17   18 1   
    34   17   26 1   
    35   18   19 1   
    36   18   49 1   
    37   18   50 1   
    38   19   20 1   
    39   19   51 1   
    40   19   52 1   
    41   20   21 1   
    42   20   25 1   
    43   21   22 1   
    44   21   53 1   
    45   21   54 1   
    46   22   23 1   
    47   22   55 1   
    48   22   56 1   
    49   23   24 1   
    50   23   57 1   
    51   23   58 1   
    52   24   59 1   
    53   24   60 1   
    54   24   76 1   
    55   25   26 1   
    56   25   61 1   
    57   25   62 1   
    58   26   63 1   
    59   26   64 1   
    60   28   29 1   
    61   28   30 1   
    62   28   65 1   
    63   29   66 1   
    64   30   31 1   
    65   30   32 1   
    66   30   67 1   
    67   31   68 1   
    68   32   33 1   
    69   32   34 1   
    70   32   69 1   
    71   33   70 1   
    72   34   35 1   
    73   34   37 1   
    74   34   71 1   
    75   35   36 1   
    76   35   72 1   
    77   35   73 1   
    78   36   74 1   
@<TRIPOS>SUBSTRUCTURE
     1 J15         1 TEMP              0 ****  ****    0 ROOT
