@<TRIPOS>MOLECULE
J15
   74    74     1     0     0
SMALL
bcc


@<TRIPOS>ATOM
      1 C1          6.1020   -2.6220    2.1650 c3        1 J15      0.158000
      2 O1          5.5930   -1.3360    2.1460 os        1 J15     -0.242000
      3 C7          4.1620   -1.3850    2.0610 c2        1 J15      0.061000
      4 C8          3.4620   -2.4930    2.5730 c2        1 J15     -0.096000
      5 C9          2.0890   -2.4920    2.5830 c1        1 J15     -0.118000
      6 N14         1.3840   -3.6210    3.0620 n2        1 J15      0.460400
      7 O15         0.0800   -3.4890    3.4710 o         1 J15     -0.299200
      8 O16         1.9150   -4.7600    3.0170 o         1 J15     -0.299200
      9 C10         1.3900   -1.3960    2.0890 c2        1 J15     -0.070000
     10 C11         2.0860   -0.2890    1.5780 c1        1 J15     -0.112000
     11 C12         3.4610   -0.2880    1.5660 c1        1 J15     -0.053000
     12 C13         1.3180    0.9390    1.0890 c2        1 J15      0.342000
     13 N18        -0.1430    0.9590    1.1550 n         1 J15     -0.369000
     14 C19        -0.9050    1.8280    0.2630 c3        1 J15     -0.032000
     15 C20        -2.4030    1.3530    0.2200 c3        1 J15     -0.187000
     16 C21        -2.9820    1.5930   -1.2010 c3        1 J15     -0.063000
     17 N22        -4.4860    1.7760   -1.1150 n3        1 J15     -0.255000
     18 C23        -4.8410    3.0370   -1.6680 c3        1 J15     -0.070000
     19 C24        -6.3560    3.2290   -1.7570 c3        1 J15     -0.069500
     20 N25        -7.0020    2.1480   -2.4110 n3        1 J15     -0.254000
     21 C28        -8.4100    2.3230   -2.3320 c3        1 J15     -0.066000
     22 C35        -8.9960    2.3750   -3.7500 c3        1 J15     -0.165000
     23 C36       -10.3440    3.1370   -3.7240 c3        1 J15     -0.078000
     24 N37       -10.9570    3.0670   -5.0090 n3        1 J15     -0.348000
     25 C26        -6.6440    0.8760   -1.8560 c3        1 J15     -0.069500
     26 C27        -5.1360    0.6860   -1.7700 c3        1 J15     -0.070000
     27 O17         1.9400    1.9160    0.6000 o         1 J15     -0.354000
     28 C2          7.1550   -2.7190    3.2530 c3        1 J15      0.007000
     29 O2          6.5980   -2.2230    4.4840 oh        1 J15     -0.326000
     30 C3          8.3770   -1.9320    2.9270 c3        1 J15     -0.048000
     31 O3          9.4080   -2.2210    3.9200 oh        1 J15     -0.337000
     32 C4          8.9120   -2.2590    1.5710 c3        1 J15     -0.021000
     33 O4          9.4500   -3.6010    1.5890 oh        1 J15     -0.320000
     34 C5          7.8480   -2.1670    0.4890 c3        1 J15      0.037000
     35 C6          8.4180   -2.6830   -0.7890 c3        1 J15     -0.017000
     36 O6          9.4880   -1.8710   -1.1870 oh        1 J15     -0.336000
     37 O5          6.6450   -2.9400    0.8160 os        1 J15     -0.259000
     38 H1          5.4050   -3.2220    2.3620 h2        1 J15      0.146000
     39 H8          3.9500   -3.2080    3.0300 ha        1 J15      0.201000
     40 H10         0.4200   -1.3980    2.0970 ha        1 J15      0.172000
     41 H12         3.9570    0.4990    1.2010 ha        1 J15      0.182000
     42 H18        -0.5800    0.4570    1.7910 hn        1 J15      0.226000
     43 H191       -0.8650    2.7760    0.6020 h1        1 J15      0.104500
     44 H192       -0.5080    1.7840   -0.6730 h1        1 J15      0.104500
     45 H201       -2.4480    0.4060    0.4330 hc        1 J15      0.093500
     46 H202       -2.9120    1.8460    0.8590 hc        1 J15      0.093500
     47 H211       -2.5610    2.4260   -1.6020 h1        1 J15      0.073500
     48 H212       -2.7810    0.8270   -1.7630 h1        1 J15      0.073500
     49 H231       -4.4480    3.7750   -1.0850 h1        1 J15      0.076750
     50 H232       -4.4530    3.1080   -2.5860 h1        1 J15      0.076750
     51 H241       -6.5370    4.0260   -2.2310 h1        1 J15      0.077500
     52 H242       -6.7200    3.3100   -0.8470 h1        1 J15      0.077500
     53 H281       -8.8010    1.5820   -1.8460 h1        1 J15      0.071000
     54 H282       -8.6160    3.1910   -1.8470 h1        1 J15      0.071000
     55 H351       -8.3560    2.8490   -4.3590 hc        1 J15      0.094000
     56 H352       -9.1400    1.4690   -4.0740 hc        1 J15      0.094000
     57 H361      -10.1900    4.0430   -3.4970 h1        1 J15      0.064000
     58 H362      -10.9140    2.7450   -3.0820 h1        1 J15      0.064000
     59 H371      -11.1120    3.9120   -5.3180 hn        1 J15      0.144500
     60 H372      -11.7480    2.6170   -4.9450 hn        1 J15      0.144500
     61 H261       -7.0190    0.1670   -2.4130 h1        1 J15      0.077500
     62 H262       -7.0290    0.8060   -0.9480 h1        1 J15      0.077500
     63 H271       -4.7690    0.6000   -2.6940 h1        1 J15      0.076750
     64 H272       -4.9520   -0.1230   -1.2860 h1        1 J15      0.076750
     65 H2          7.4090   -3.6860    3.3780 h1        1 J15      0.117000
     66 HO2         6.6950   -2.8630    5.1480 ho        1 J15      0.229000
     67 H3          8.1500   -0.9360    2.9630 h1        1 J15      0.117000
     68 HO3         9.9650   -1.4840    4.0140 ho        1 J15      0.215000
     69 H4          9.6520   -1.6170    1.3520 h1        1 J15      0.099000
     70 HO4        10.3700   -3.5640    1.5380 ho        1 J15      0.216000
     71 H5          7.5950   -1.2150    0.3670 h1        1 J15      0.119000
     72 H61         8.7350   -3.5950   -0.6580 h1        1 J15      0.093000
     73 H62         7.7390   -2.6740   -1.4690 h1        1 J15      0.093000
     74 HO6         9.7400   -2.0930   -2.0280 ho        1 J15      0.208000
@<TRIPOS>BOND
     1    1    2 1   
     2    1   28 1   
     3    1   37 1   
     4    1   38 1   
     5    2    3 1   
     6    3    4 1   
     7    3   11 1   
     8    4    5 1   
     9    4   39 1   
    10    5    9 1   
    11    6    7 2   
    12    6    8 2   
    13    9   10 1   
    14    9   40 1   
    15   10   12 1   
    16   11   41 1   
    17   12   13 1   
    18   12   27 1   
    19   13   14 1   
    20   13   42 1   
    21   14   15 1   
    22   14   43 1   
    23   14   44 1   
    24   15   16 1   
    25   15   45 1   
    26   15   46 1   
    27   16   17 1   
    28   16   47 1   
    29   16   48 1   
    30   17   18 1   
    31   17   26 1   
    32   18   19 1   
    33   18   49 1   
    34   18   50 1   
    35   19   20 1   
    36   19   51 1   
    37   19   52 1   
    38   20   21 1   
    39   20   25 1   
    40   21   22 1   
    41   21   53 1   
    42   21   54 1   
    43   22   23 1   
    44   22   55 1   
    45   22   56 1   
    46   23   24 1   
    47   23   57 1   
    48   23   58 1   
    49   24   59 1   
    50   24   60 1   
    51   25   26 1   
    52   25   61 1   
    53   25   62 1   
    54   26   63 1   
    55   26   64 1   
    56   28   29 1   
    57   28   30 1   
    58   28   65 1   
    59   29   66 1   
    60   30   31 1   
    61   30   32 1   
    62   30   67 1   
    63   31   68 1   
    64   32   33 1   
    65   32   34 1   
    66   32   69 1   
    67   33   70 1   
    68   34   35 1   
    69   34   37 1   
    70   34   71 1   
    71   35   36 1   
    72   35   72 1   
    73   35   73 1   
    74   36   74 1   
@<TRIPOS>SUBSTRUCTURE
     1 J15         1 TEMP              0 ****  ****    0 ROOT
