@<TRIPOS>MOLECULE
J15
   74    76     1     0     0
SMALL
bcc


@<TRIPOS>ATOM
      1 C1          0.1550    0.1230    0.2630 c3        1 J15      0.308900
      2 O1         -0.6300   -0.9270    0.8380 os        1 J15     -0.373900
      3 C7         -1.8840   -1.1360    0.2910 ca        1 J15      0.112100
      4 C8         -2.3910   -2.4360    0.4500 ca        1 J15     -0.079000
      5 C9         -3.6820   -2.7040   -0.0230 ca        1 J15     -0.157200
      6 N14        -4.2480   -4.0710    0.1450 no        1 J15      0.314200
      7 O15        -3.5890   -4.9080    0.7000 o         1 J15     -0.201500
      8 O16        -5.3460   -4.2990   -0.2850 o         1 J15     -0.201500
      9 C10        -4.4550   -1.7140   -0.6530 ca        1 J15     -0.076000
     10 C11        -3.9180   -0.4350   -0.8070 ca        1 J15     -0.117600
     11 C12        -2.6400   -0.1330   -0.3250 ca        1 J15     -0.097000
     12 C13        -4.6910    0.6750   -1.4480 c         1 J15      0.666700
     13 N18        -5.4790    0.3590   -2.5350 n         1 J15     -0.556900
     14 C19        -6.3430    1.3200   -3.1650 c3        1 J15      0.083000
     15 C20        -7.8350    1.0610   -2.9450 c3        1 J15     -0.108400
     16 C21        -8.6320    2.1420   -3.6730 c3        1 J15      0.173800
     17 N22       -10.0610    1.8670   -3.7410 n3        1 J15     -0.729600
     18 C23       -10.7360    2.7810   -4.6530 c3        1 J15      0.166800
     19 C24       -12.2550    2.5410   -4.7270 c3        1 J15      0.167800
     20 N25       -12.8910    2.5200   -3.4160 n3        1 J15     -0.727600
     21 C28       -14.3220    2.2630   -3.5250 c3        1 J15      0.171800
     22 C35       -15.0830    2.4210   -2.2110 c3        1 J15     -0.085400
     23 C36       -16.5830    2.3660   -2.4980 c3        1 J15      0.158800
     24 N37       -17.3950    2.5120   -1.3130 n3        1 J15     -0.915800
     25 C26       -12.2180    1.6160   -2.4960 c3        1 J15      0.167800
     26 C27       -10.6950    1.8380   -2.4300 c3        1 J15      0.166800
     27 O17        -4.5660    1.8490   -1.0430 o         1 J15     -0.593100
     28 C2          1.6220   -0.1960    0.6030 c3        1 J15      0.091100
     29 O2          1.9940   -1.4740    0.1400 oh        1 J15     -0.586800
     30 C3          1.8710   -0.0650    2.1120 c3        1 J15      0.076100
     31 O3          3.2550   -0.1430    2.4040 oh        1 J15     -0.602800
     32 C4          1.3950    1.3120    2.6050 c3        1 J15      0.127100
     33 O4          2.1600    2.3550    2.0270 oh        1 J15     -0.592800
     34 C5         -0.0740    1.5090    2.2180 c3        1 J15      0.104100
     35 C6         -0.5420    2.9380    2.5160 c3        1 J15      0.143400
     36 O6         -1.9460    3.0360    2.4380 oh        1 J15     -0.594800
     37 O5         -0.3100    1.3250    0.8150 os        1 J15     -0.425600
     38 H1         -0.0090    0.2140   -0.8470 h2        1 J15      0.103700
     39 H8         -1.7870   -3.2140    0.9460 ha        1 J15      0.185000
     40 H10        -5.4750   -1.9570   -0.9970 ha        1 J15      0.173000
     41 H12        -2.2530    0.8990   -0.4100 ha        1 J15      0.189000
     42 H18        -5.6190   -0.5950   -2.7680 hn        1 J15      0.311500
     43 H191       -6.0850    2.3500   -2.7820 h1        1 J15      0.066200
     44 H192       -6.1280    1.2950   -4.2740 h1        1 J15      0.066200
     45 H201       -8.1140    0.0460   -3.3320 hc        1 J15      0.054700
     46 H202       -8.0690    1.0850   -1.8490 hc        1 J15      0.054700
     47 H211       -8.2550    2.2090   -4.7350 h1        1 J15      0.034200
     48 H212       -8.4200    3.1350   -3.1760 h1        1 J15      0.034200
     49 H231      -10.5530    3.8590   -4.3740 h1        1 J15      0.037950
     50 H232      -10.3150    2.6130   -5.6840 h1        1 J15      0.037950
     51 H241      -12.7060    3.3890   -5.3150 h1        1 J15      0.037450
     52 H242      -12.4430    1.5850   -5.2980 h1        1 J15      0.037450
     53 H281      -14.7340    3.0070   -4.2670 h1        1 J15      0.030700
     54 H282      -14.5270    1.2290   -3.9350 h1        1 J15      0.030700
     55 H351      -14.8220    3.3960   -1.7230 hc        1 J15      0.055200
     56 H352      -14.8000    1.6000   -1.5020 hc        1 J15      0.055200
     57 H361      -16.8530    3.2140   -3.1920 h1        1 J15      0.024200
     58 H362      -16.7990    1.4040   -3.0530 h1        1 J15      0.024200
     59 H371      -18.3570    2.3470   -1.5290 hn        1 J15      0.349300
     60 H372      -17.1040    1.8800   -0.5950 hn        1 J15      0.349300
     61 H261      -12.4140    0.5340   -2.7560 h1        1 J15      0.037450
     62 H262      -12.6300    1.8050   -1.4660 h1        1 J15      0.037450
     63 H271      -10.4930    2.7860   -1.8500 h1        1 J15      0.037950
     64 H272      -10.2530    0.9780   -1.8540 h1        1 J15      0.037950
     65 H2          2.2840    0.5270    0.0450 h1        1 J15      0.117700
     66 HO2         1.3890   -2.1170    0.5370 ho        1 J15      0.417000
     67 H3          1.3220   -0.8800    2.6610 h1        1 J15      0.060700
     68 HO3         3.6070   -0.8890    1.8970 ho        1 J15      0.426000
     69 H4          1.4930    1.3550    3.7270 h1        1 J15      0.063700
     70 HO4         3.0880    2.1500    2.2110 ho        1 J15      0.425000
     71 H5         -0.7000    0.7590    2.7790 h1        1 J15      0.072700
     72 H61        -0.2840    3.1990    3.5770 h1        1 J15      0.068200
     73 H62        -0.0430    3.6520    1.8100 h1        1 J15      0.068200
     74 HO6        -2.1950    2.8700    1.5200 ho        1 J15      0.415000
@<TRIPOS>BOND
     1    1    2 1   
     2    1   28 1   
     3    1   37 1   
     4    1   38 1   
     5    2    3 1   
     6    3    4 ar  
     7    3   11 ar  
     8    4    5 ar  
     9    4   39 1   
    10    5    6 1   
    11    5    9 ar  
    12    6    7 1   
    13    6    8 1   
    14    9   10 ar  
    15    9   40 1   
    16   10   11 ar  
    17   10   12 1   
    18   11   41 1   
    19   12   13 1   
    20   12   27 2   
    21   13   14 1   
    22   13   42 1   
    23   14   15 1   
    24   14   43 1   
    25   14   44 1   
    26   15   16 1   
    27   15   45 1   
    28   15   46 1   
    29   16   17 1   
    30   16   47 1   
    31   16   48 1   
    32   17   18 1   
    33   17   26 1   
    34   18   19 1   
    35   18   49 1   
    36   18   50 1   
    37   19   20 1   
    38   19   51 1   
    39   19   52 1   
    40   20   21 1   
    41   20   25 1   
    42   21   22 1   
    43   21   53 1   
    44   21   54 1   
    45   22   23 1   
    46   22   55 1   
    47   22   56 1   
    48   23   24 1   
    49   23   57 1   
    50   23   58 1   
    51   24   59 1   
    52   24   60 1   
    53   25   26 1   
    54   25   61 1   
    55   25   62 1   
    56   26   63 1   
    57   26   64 1   
    58   28   29 1   
    59   28   30 1   
    60   28   65 1   
    61   29   66 1   
    62   30   31 1   
    63   30   32 1   
    64   30   67 1   
    65   31   68 1   
    66   32   33 1   
    67   32   34 1   
    68   32   69 1   
    69   33   70 1   
    70   34   35 1   
    71   34   37 1   
    72   34   71 1   
    73   35   36 1   
    74   35   72 1   
    75   35   73 1   
    76   36   74 1   
@<TRIPOS>SUBSTRUCTURE
     1 J15         1 TEMP              0 ****  ****    0 ROOT
