@<TRIPOS>MOLECULE
J15
   74    76     1     0     0
SMALL
bcc


@<TRIPOS>ATOM
      1 C1          5.3640    0.6590   -0.4950 c3        1 J15      0.308900
      2 O1          4.9530   -0.6710   -0.1610 os        1 J15     -0.373900
      3 C7          3.6420   -1.0080   -0.4480 ca        1 J15      0.112100
      4 C8          3.4110   -2.3790   -0.6450 ca        1 J15     -0.079000
      5 C9          2.0950   -2.7990   -0.8760 ca        1 J15     -0.157200
      6 N14         1.8210   -4.2500   -1.0770 no        1 J15      0.314200
      7 O15         2.7350   -5.0270   -1.0140 o         1 J15     -0.201500
      8 O16         0.6940   -4.6000   -1.3000 o         1 J15     -0.201500
      9 C10         1.0280   -1.8860   -0.9270 ca        1 J15     -0.076000
     10 C11         1.2920   -0.5290   -0.7390 ca        1 J15     -0.117600
     11 C12         2.5930   -0.0820   -0.4840 ca        1 J15     -0.097000
     12 C13         0.2040    0.4990   -0.7570 c         1 J15      0.667700
     13 N18        -0.8120    0.3360   -1.6740 n         1 J15     -0.556900
     14 C19        -1.9590    1.2030   -1.7140 c3        1 J15      0.083000
     15 C20        -3.2620    0.5400   -1.2620 c3        1 J15     -0.108400
     16 C21        -4.3910    1.5650   -1.3590 c3        1 J15      0.173800
     17 N22        -5.7190    0.9900   -1.1900 n3        1 J15     -0.729600
     18 C23        -6.7610    1.9500   -1.5300 c3        1 J15      0.166800
     19 C24        -8.1810    1.3900   -1.3320 c3        1 J15      0.166800
     20 N25        -8.3860    0.8180   -0.0070 n3        1 J15     -0.728600
     21 C28        -9.7310    0.2750    0.1340 c3        1 J15      0.170800
     22 C35       -10.0750   -0.1660    1.5550 c3        1 J15     -0.086400
     23 C36       -11.5720   -0.4650    1.6330 c3        1 J15      0.158800
     24 N37       -11.9790   -0.9930    2.9130 n3        1 J15     -0.915800
     25 C26        -7.3460   -0.1390    0.3400 c3        1 J15      0.166800
     26 C27        -5.9220    0.4080    0.1290 c3        1 J15      0.166800
     27 O17         0.2630    1.4950   -0.0070 o         1 J15     -0.593100
     28 C2          6.8970    0.6190   -0.6300 c3        1 J15      0.091100
     29 O2          7.3080   -0.3370   -1.5820 oh        1 J15     -0.586800
     30 C3          7.5550    0.3560    0.7310 c3        1 J15      0.076100
     31 O3          8.9590    0.5330    0.6550 oh        1 J15     -0.602800
     32 C4          7.0400    1.3690    1.7670 c3        1 J15      0.127100
     33 O4          7.4320    2.6880    1.4330 oh        1 J15     -0.592800
     34 C5          5.5100    1.3090    1.8170 c3        1 J15      0.104100
     35 C6          4.9370    2.4300    2.6930 c3        1 J15      0.143400
     36 O6          3.5750    2.2040    2.9740 oh        1 J15     -0.594800
     37 O5          4.9030    1.4950    0.5310 os        1 J15     -0.425600
     38 H1          4.8690    1.0300   -1.4360 h2        1 J15      0.103700
     39 H8          4.2460   -3.0980   -0.6040 ha        1 J15      0.185000
     40 H10         0.0020   -2.2570   -1.0930 ha        1 J15      0.173000
     41 H12         2.7740    0.9900   -0.2870 ha        1 J15      0.189000
     42 H18        -0.8700   -0.5120   -2.1870 hn        1 J15      0.312500
     43 H191       -2.0810    1.5570   -2.7800 h1        1 J15      0.066200
     44 H192       -1.7570    2.1040   -1.0660 h1        1 J15      0.066200
     45 H201       -3.1610    0.1790   -0.2060 hc        1 J15      0.054700
     46 H202       -3.4900   -0.3490   -1.9060 hc        1 J15      0.054700
     47 H211       -4.3600    2.0350   -2.3840 h1        1 J15      0.034200
     48 H212       -4.1910    2.3840   -0.6050 h1        1 J15      0.034200
     49 H231       -6.6470    2.2110   -2.6200 h1        1 J15      0.037700
     50 H232       -6.6610    2.9030   -0.9330 h1        1 J15      0.037700
     51 H241       -8.3910    0.6380   -2.1480 h1        1 J15      0.038450
     52 H242       -8.9040    2.2440   -1.4550 h1        1 J15      0.038450
     53 H281       -9.9010   -0.6010   -0.5610 h1        1 J15      0.031200
     54 H282      -10.4480    1.0910   -0.1720 h1        1 J15      0.031200
     55 H351       -9.8050    0.6380    2.2880 hc        1 J15      0.055200
     56 H352       -9.4900   -1.0830    1.8250 hc        1 J15      0.055200
     57 H361      -11.8300   -1.2400    0.8550 h1        1 J15      0.024200
     58 H362      -12.1330    0.4780    1.3570 h1        1 J15      0.024200
     59 H371      -11.6420   -0.4240    3.6630 hn        1 J15      0.349800
     60 H372      -12.9760   -1.0490    2.9650 hn        1 J15      0.349800
     61 H261       -7.4550   -0.3820    1.4340 h1        1 J15      0.038450
     62 H262       -7.4540   -1.1010   -0.2420 h1        1 J15      0.038450
     63 H271       -5.2090   -0.4570    0.2350 h1        1 J15      0.037700
     64 H272       -5.6940    1.1490    0.9500 h1        1 J15      0.037700
     65 H2          7.2460    1.6120   -1.0360 h1        1 J15      0.117700
     66 HO2         6.9520   -1.1940   -1.3080 ho        1 J15      0.417000
     67 H3          7.3240   -0.6920    1.0700 h1        1 J15      0.060700
     68 HO3         9.2570    0.0780   -0.1460 ho        1 J15      0.426000
     69 H4          7.4560    1.1020    2.7800 h1        1 J15      0.063700
     70 HO4         8.3930    2.6690    1.3170 ho        1 J15      0.425000
     71 H5          5.2000    0.3000    2.2080 h1        1 J15      0.072700
     72 H61         5.4520    2.4210    3.6900 h1        1 J15      0.068200
     73 H62         5.0910    3.4190    2.1860 h1        1 J15      0.068200
     74 HO6         3.0960    2.2590    2.1370 ho        1 J15      0.415000
@<TRIPOS>BOND
     1    1    2 1   
     2    1   28 1   
     3    1   37 1   
     4    1   38 1   
     5    2    3 1   
     6    3    4 ar  
     7    3   11 ar  
     8    4    5 ar  
     9    4   39 1   
    10    5    6 1   
    11    5    9 ar  
    12    6    7 1   
    13    6    8 1   
    14    9   10 ar  
    15    9   40 1   
    16   10   11 ar  
    17   10   12 1   
    18   11   41 1   
    19   12   13 1   
    20   12   27 2   
    21   13   14 1   
    22   13   42 1   
    23   14   15 1   
    24   14   43 1   
    25   14   44 1   
    26   15   16 1   
    27   15   45 1   
    28   15   46 1   
    29   16   17 1   
    30   16   47 1   
    31   16   48 1   
    32   17   18 1   
    33   17   26 1   
    34   18   19 1   
    35   18   49 1   
    36   18   50 1   
    37   19   20 1   
    38   19   51 1   
    39   19   52 1   
    40   20   21 1   
    41   20   25 1   
    42   21   22 1   
    43   21   53 1   
    44   21   54 1   
    45   22   23 1   
    46   22   55 1   
    47   22   56 1   
    48   23   24 1   
    49   23   57 1   
    50   23   58 1   
    51   24   59 1   
    52   24   60 1   
    53   25   26 1   
    54   25   61 1   
    55   25   62 1   
    56   26   63 1   
    57   26   64 1   
    58   28   29 1   
    59   28   30 1   
    60   28   65 1   
    61   29   66 1   
    62   30   31 1   
    63   30   32 1   
    64   30   67 1   
    65   31   68 1   
    66   32   33 1   
    67   32   34 1   
    68   32   69 1   
    69   33   70 1   
    70   34   35 1   
    71   34   37 1   
    72   34   71 1   
    73   35   36 1   
    74   35   72 1   
    75   35   73 1   
    76   36   74 1   
@<TRIPOS>SUBSTRUCTURE
     1 J15         1 TEMP              0 ****  ****    0 ROOT
