@<TRIPOS>MOLECULE
J15
   76    78     1     0     0
SMALL
bcc


@<TRIPOS>ATOM
      1 C1          0.5220    0.1080    0.0810 c3        1 J15      0.303900
      2 O1         -0.2030   -1.0230    0.5940 os        1 J15     -0.331900
      3 C7         -1.3770   -1.3670   -0.0250 ca        1 J15      0.147100
      4 C8         -1.7620   -2.7140    0.1480 ca        1 J15     -0.034000
      5 C9         -2.9830   -3.1330   -0.3890 ca        1 J15     -0.149200
      6 N14        -3.4260   -4.5530   -0.2150 no        1 J15      0.317200
      7 O15        -2.6880   -5.3230    0.3230 o         1 J15     -0.173500
      8 O16        -4.5160   -4.8490   -0.6230 o         1 J15     -0.173500
      9 C10        -3.8180   -2.2530   -1.0940 ca        1 J15     -0.090000
     10 C11        -3.4170   -0.9230   -1.2470 ca        1 J15     -0.179600
     11 C12        -2.1960   -0.4690   -0.7230 ca        1 J15     -0.088000
     12 C13        -4.2330    0.0580   -1.9680 c         1 J15      0.579700
     13 N18        -5.7380   -0.1970   -1.9230 ny        1 J15     -0.680800
     14 C19        -6.5520    1.0090   -2.2550 c3        1 J15      0.102800
     15 C20        -8.0430    0.7030   -2.3180 c3        1 J15     -0.115400
     16 C21        -8.7850    1.9890   -2.7140 c3        1 J15      0.185800
     17 N22       -10.1950    1.7390   -2.9610 n3        1 J15     -0.744600
     18 C23       -10.7290    2.5270   -4.0640 c3        1 J15      0.172300
     19 C24       -12.2150    2.2240   -4.3420 c3        1 J15      0.172300
     20 N25       -13.0420    2.3130   -3.1460 n3        1 J15     -0.745600
     21 C28       -14.4450    2.0410   -3.4040 c3        1 J15      0.186800
     22 C35       -15.3570    3.0060   -2.6260 c3        1 J15     -0.119400
     23 C36       -16.7990    2.7340   -3.0310 c3        1 J15      0.099800
     24 N37       -17.7670    3.6560   -2.3640 nz        1 J15     -0.838600
     25 C26       -12.5040    1.5410   -2.0360 c3        1 J15      0.172300
     26 C27       -11.0160    1.8420   -1.7640 c3        1 J15      0.172300
     27 O17        -3.8760    1.0530   -2.5770 o         1 J15     -0.400100
     28 C2          1.9350    0.0520    0.6930 c3        1 J15      0.093100
     29 O2          2.5380   -1.2050    0.4840 oh        1 J15     -0.576800
     30 C3          1.8680    0.2680    2.2140 c3        1 J15      0.115100
     31 O3          3.1680    0.4240    2.7460 oh        1 J15     -0.596800
     32 C4          1.1200    1.5810    2.5060 c3        1 J15      0.123100
     33 O4          1.8210    2.6990    1.9940 oh        1 J15     -0.596800
     34 C5         -0.2650    1.5430    1.8480 c3        1 J15      0.145100
     35 C6         -0.9470    2.9090    1.9440 c3        1 J15      0.136400
     36 O6         -2.3380    2.6990    1.7420 oh        1 J15     -0.623800
     37 O5         -0.2100    1.2440    0.4440 os        1 J15     -0.427600
     38 H1          0.5410    0.1020   -1.0440 h2        1 J15      0.090700
     39 H8         -1.1020   -3.4100    0.7030 ha        1 J15      0.216000
     40 H10        -4.7530   -2.6470   -1.5280 ha        1 J15      0.160000
     41 H12        -1.8930    0.5890   -0.8410 ha        1 J15      0.208000
     42 H18        -5.9830   -0.5320   -0.9850 hn        1 J15      0.460300
     43 H191       -6.3390    1.7910   -1.4700 hx        1 J15      0.115200
     44 H192       -6.1900    1.4050   -3.2490 hx        1 J15      0.115200
     45 H201       -8.4150    0.3420   -1.3230 hc        1 J15      0.072700
     46 H202       -8.2500   -0.0990   -3.0750 hc        1 J15      0.072700
     47 H211       -8.3080    2.3940   -3.6530 h1        1 J15      0.049700
     48 H212       -8.6270    2.7540   -1.8980 h1        1 J15      0.049700
     49 H231      -10.6130    3.6340   -3.8790 h1        1 J15      0.047950
     50 H232      -10.1530    2.2630   -4.9950 h1        1 J15      0.047950
     51 H241      -12.5830    2.9920   -5.0800 h1        1 J15      0.047200
     52 H242      -12.2930    1.2060   -4.8250 h1        1 J15      0.047200
     53 H281      -14.7300    0.9850   -3.1230 h1        1 J15      0.049200
     54 H282      -14.6610    2.1680   -4.5030 h1        1 J15      0.049200
     55 H351      -15.2200    2.8500   -1.5240 hc        1 J15      0.077700
     56 H352      -15.0710    4.0650   -2.8640 hc        1 J15      0.077700
     57 H361      -16.9220    2.8640   -4.1470 hx        1 J15      0.114200
     58 H362      -17.0900    1.6780   -2.7570 hx        1 J15      0.114200
     59 H371      -17.7070    3.5540   -1.3450 hn        1 J15      0.464800
     60 H372      -18.7230    3.4420   -2.6660 hn        1 J15      0.464800
     61 H261      -12.6220    0.4300   -2.2050 h1        1 J15      0.047200
     62 H262      -13.0830    1.8160   -1.1100 h1        1 J15      0.047200
     63 H271      -10.9340    2.8620   -1.2880 h1        1 J15      0.047950
     64 H272      -10.6440    1.0810   -1.0220 h1        1 J15      0.047950
     65 H2          2.5320    0.8870    0.2250 h1        1 J15      0.092700
     66 HO2         2.8770   -1.2170   -0.4200 ho        1 J15      0.418000
     67 H3          1.3430   -0.6020    2.6960 h1        1 J15      0.074700
     68 HO3         3.6470   -0.3970    2.5640 ho        1 J15      0.437000
     69 H4          0.9990    1.6900    3.6220 h1        1 J15      0.072700
     70 HO4         2.7120    2.6670    2.3720 ho        1 J15      0.437000
     71 H5         -0.8850    0.7470    2.3480 h1        1 J15      0.069700
     72 H61        -0.7580    3.3400    2.9630 h1        1 J15      0.061200
     73 H62        -0.5400    3.5970    1.1570 h1        1 J15      0.061200
     74 HO6        -2.7650    3.5450    1.9220 ho        1 J15      0.410000
     75 H182       -5.9570   -0.9450   -2.5930 hn        1 J15      0.460300
     76 H373      -17.5500    4.6300   -2.6050 hn        1 J15      0.464800
@<TRIPOS>BOND
     1    1    2 1   
     2    1   28 1   
     3    1   37 1   
     4    1   38 1   
     5    2    3 1   
     6    3    4 ar  
     7    3   11 ar  
     8    4    5 ar  
     9    4   39 1   
    10    5    6 1   
    11    5    9 ar  
    12    6    7 1   
    13    6    8 1   
    14    9   10 ar  
    15    9   40 1   
    16   10   11 ar  
    17   10   12 1   
    18   11   41 1   
    19   12   13 1   
    20   12   27 2   
    21   13   14 1   
    22   13   42 1   
    23   13   75 1   
    24   14   15 1   
    25   14   43 1   
    26   14   44 1   
    27   15   16 1   
    28   15   45 1   
    29   15   46 1   
    30   16   17 1   
    31   16   47 1   
    32   16   48 1   
    33   17   18 1   
    34   17   26 1   
    35   18   19 1   
    36   18   49 1   
    37   18   50 1   
    38   19   20 1   
    39   19   51 1   
    40   19   52 1   
    41   20   21 1   
    42   20   25 1   
    43   21   22 1   
    44   21   53 1   
    45   21   54 1   
    46   22   23 1   
    47   22   55 1   
    48   22   56 1   
    49   23   24 1   
    50   23   57 1   
    51   23   58 1   
    52   24   59 1   
    53   24   60 1   
    54   24   76 1   
    55   25   26 1   
    56   25   61 1   
    57   25   62 1   
    58   26   63 1   
    59   26   64 1   
    60   28   29 1   
    61   28   30 1   
    62   28   65 1   
    63   29   66 1   
    64   30   31 1   
    65   30   32 1   
    66   30   67 1   
    67   31   68 1   
    68   32   33 1   
    69   32   34 1   
    70   32   69 1   
    71   33   70 1   
    72   34   35 1   
    73   34   37 1   
    74   34   71 1   
    75   35   36 1   
    76   35   72 1   
    77   35   73 1   
    78   36   74 1   
@<TRIPOS>SUBSTRUCTURE
     1 J15         1 TEMP              0 ****  ****    0 ROOT
