@<TRIPOS>MOLECULE
J19
   37    36     1     0     0
SMALL
bcc


@<TRIPOS>ATOM
      1 C21         2.9940   -2.0130    3.0300 c2        1 J19     -0.100000
      2 C11         0.2010   -1.7830   -3.9260 c2        1 J19      0.447000
      3 N10        -0.1280   -0.9460   -5.0010 n         1 J19     -0.324000
      4 C12         0.2050   -1.2790   -2.5930 c1        1 J19     -0.152000
      5 S13        -0.6840    1.0120   -6.6190 sh        1 J19      0.039000
      6 C9         -0.5520    0.3880   -4.9630 c2        1 J19      0.073000
      7 N8         -0.8170    0.9960   -3.8450 n2        1 J19     -0.202000
      8 C4         -1.2120    2.3400   -3.7560 c2        1 J19     -0.058000
      9 C3         -2.4220    2.6850   -3.2280 c2        1 J19     -0.045000
     10 C2         -2.7770    4.0570   -2.9630 c2        1 J19     -0.443000
     11 C5         -0.2270    3.4090   -4.0310 c2        1 J19     -0.070000
     12 CL7         1.2230    3.3040   -3.1500 cl        1 J19      0.013000
     13 C6         -0.4540    4.4270   -4.8770 c2        1 J19     -0.199000
     14 C1         -2.1560    5.1360   -3.4190 c1        1 J19      0.176000
     15 C15         0.2250   -0.8990   -1.4560 c1        1 J19      0.074000
     16 C16         0.2530   -0.4710   -0.1720 c1        1 J19     -0.046000
     17 C20         1.8760   -1.3750    3.1700 c1        1 J19     -0.260000
     18 C19         0.7540   -0.7070    3.2810 c2        1 J19      0.091000
     19 O22        -0.1690   -0.8900    4.2940 oh        1 J19     -0.259000
     20 C18         0.2740    0.3720    2.3360 c3        1 J19      0.189000
     21 C17         0.2740   -0.0840    0.9630 c1        1 J19     -0.111000
     22 O23         1.1480    1.4910    2.5270 os        1 J19     -0.254000
     23 C24         0.6670    2.6820    1.9240 c3        1 J19     -0.082000
     24 H1          3.0700   -2.9500    2.4580 ha        1 J19      0.129500
     25 H3         -3.1760    1.9200   -2.9790 ha        1 J19      0.152000
     26 H4         -3.6620    4.2060   -2.3090 ha        1 J19      0.192000
     27 H5         -1.3470    4.4690   -5.5210 ha        1 J19      0.148000
     28 H6          0.2600    5.2510   -5.0140 ha        1 J19      0.148000
     29 H7         -1.0280    2.2660   -6.3440 hs        1 J19      0.063000
     30 H9          3.9350   -1.6530    3.4760 ha        1 J19      0.129500
     31 H10         0.1900   -1.5400    4.9150 ho        1 J19      0.224000
     32 H11        -0.7830    0.6680    2.6230 h1        1 J19      0.127000
     33 H12         0.5460    2.5470    0.8210 h1        1 J19      0.081333
     34 H13        -0.3040    2.9900    2.3840 h1        1 J19      0.081333
     35 H14         1.4640    3.4370    2.1440 h1        1 J19      0.081333
     36 H2         -0.0700   -1.3630   -5.9100 hn        1 J19      0.264000
     37 O14         0.4960   -2.9600   -4.2050 o         1 J19     -0.317000
@<TRIPOS>BOND
     1    1   17 1   
     2    1   24 1   
     3    1   30 1   
     4    2    3 1   
     5    2    4 1   
     6    2   37 1   
     7    3    6 1   
     8    3   36 1   
     9    4   15 1   
    10    5    6 1   
    11    5   29 1   
    12    6    7 1   
    13    7    8 1   
    14    8    9 1   
    15    8   11 1   
    16    9   10 1   
    17    9   25 1   
    18   10   14 1   
    19   10   26 1   
    20   11   12 1   
    21   11   13 1   
    22   13   27 1   
    23   13   28 1   
    24   15   16 1   
    25   16   21 1   
    26   17   18 1   
    27   18   19 1   
    28   18   20 1   
    29   19   31 1   
    30   20   21 1   
    31   20   22 1   
    32   20   32 1   
    33   22   23 1   
    34   23   33 1   
    35   23   34 1   
    36   23   35 1   
@<TRIPOS>SUBSTRUCTURE
     1 J19         1 TEMP              0 ****  ****    0 ROOT
