@<TRIPOS>MOLECULE
J19
   37    36     1     0     0
SMALL
bcc


@<TRIPOS>ATOM
      1 C21        -1.0340   -2.4080    2.4460 c2        1 J19     -0.098000
      2 C11         2.2240    0.4740   -3.8250 c2        1 J19      0.439000
      3 N10         1.3160    1.1250   -4.6630 n         1 J19     -0.319000
      4 C12         1.9960    0.4290   -2.4130 c1        1 J19     -0.173000
      5 S13        -0.2030    1.6630   -2.5490 sh        1 J19      0.098000
      6 C9          0.1200    1.7500   -4.2740 c2        1 J19      0.050000
      7 N8         -0.6030    2.2930   -5.2150 n2        1 J19     -0.211000
      8 C4         -1.7940    2.9900   -5.0020 c2        1 J19     -0.033000
      9 C3         -1.9400    4.0980   -4.2180 c2        1 J19     -0.097000
     10 C2         -3.1850    4.8250   -4.1720 c2        1 J19     -0.438000
     11 C5         -2.9440    2.5760   -5.8400 c2        1 J19     -0.037000
     12 CL7        -2.7050    2.6910   -7.5180 cl        1 J19      0.016000
     13 C6         -4.1150    2.1720   -5.3210 c2        1 J19     -0.191000
     14 C1         -4.3560    4.3920   -4.6220 c1        1 J19      0.171000
     15 C15         1.9560    0.3070   -1.2170 c1        1 J19      0.088000
     16 C16         1.8860    0.1830    0.1280 c1        1 J19     -0.061000
     17 C20        -0.3610   -1.3750    2.8410 c1        1 J19     -0.260000
     18 C19         0.3540   -0.3460    3.2260 c2        1 J19      0.089000
     19 O22        -0.0750    0.6140    4.1230 oh        1 J19     -0.259000
     20 C18         1.7590   -0.0280    2.7640 c3        1 J19      0.186000
     21 C17         1.8310    0.0750    1.3220 c1        1 J19     -0.092000
     22 O23         2.5940   -1.0770    3.2650 os        1 J19     -0.252000
     23 C24         3.9780   -0.7730    3.1900 c3        1 J19     -0.082000
     24 H1         -1.6960   -2.3800    1.5670 ha        1 J19      0.130500
     25 H3         -1.1110    4.4900   -3.6080 ha        1 J19      0.144000
     26 H4         -3.1410    5.8360   -3.7180 ha        1 J19      0.188000
     27 H5         -4.2510    2.0130   -4.2400 ha        1 J19      0.146000
     28 H6         -4.9840    1.9260   -5.9470 ha        1 J19      0.146000
     29 H7         -1.3880    2.2600   -2.5260 hs        1 J19      0.020000
     30 H9         -0.9830   -3.3760    2.9680 ha        1 J19      0.130500
     31 H10        -0.9410    0.3450    4.4630 ho        1 J19      0.225000
     32 H11         2.0800    0.9610    3.2170 h1        1 J19      0.130000
     33 H12         4.2870   -0.5940    2.1310 h1        1 J19      0.082000
     34 H13         4.4780   -1.6870    3.5980 h1        1 J19      0.082000
     35 H14         4.2190    0.1210    3.8180 h1        1 J19      0.082000
     36 H2          1.5460    1.1220   -5.6400 hn        1 J19      0.268000
     37 O14         3.2240   -0.0450   -4.3540 o         1 J19     -0.307000
@<TRIPOS>BOND
     1    1   17 1   
     2    1   24 1   
     3    1   30 1   
     4    2    3 1   
     5    2    4 1   
     6    2   37 1   
     7    3    6 1   
     8    3   36 1   
     9    4   15 1   
    10    5    6 1   
    11    5   29 1   
    12    6    7 1   
    13    7    8 1   
    14    8    9 1   
    15    8   11 1   
    16    9   10 1   
    17    9   25 1   
    18   10   14 1   
    19   10   26 1   
    20   11   12 1   
    21   11   13 1   
    22   13   27 1   
    23   13   28 1   
    24   15   16 1   
    25   16   21 1   
    26   17   18 1   
    27   18   19 1   
    28   18   20 1   
    29   19   31 1   
    30   20   21 1   
    31   20   22 1   
    32   20   32 1   
    33   22   23 1   
    34   23   33 1   
    35   23   34 1   
    36   23   35 1   
@<TRIPOS>SUBSTRUCTURE
     1 J19         1 TEMP              0 ****  ****    0 ROOT
