@<TRIPOS>MOLECULE
J19
   37    36     1     0     0
SMALL
bcc


@<TRIPOS>ATOM
      1 C21        -0.9980   -2.3300    2.5010 c2        1 J19     -0.098000
      2 C11         2.2500    0.4970   -3.7990 c2        1 J19      0.439000
      3 N10         1.3400    1.1180   -4.6570 ns        1 J19     -0.319000
      4 C12         2.0120    0.4760   -2.3880 c1        1 J19     -0.173000
      5 S13        -0.2030    1.6750   -2.5660 sh        1 J19      0.098000
      6 C9          0.1320    1.7340   -4.2890 c2        1 J19      0.050000
      7 N8         -0.5890    2.2500   -5.2460 n2        1 J19     -0.211000
      8 C4         -1.7910    2.9360   -5.0560 c2        1 J19     -0.033000
      9 C3         -1.9590    4.0540   -4.2930 c2        1 J19     -0.097000
     10 C2         -3.2130    4.7660   -4.2700 c2        1 J19     -0.438000
     11 C5         -2.9280    2.4920   -5.8980 c2        1 J19     -0.037000
     12 Cl7        -2.6740    2.5810   -7.5740 cl        1 J19      0.016000
     13 C6         -4.0980    2.0810   -5.3820 c2        1 J19     -0.191000
     14 C1         -4.3750    4.3090   -4.7240 c1        1 J19      0.171000
     15 C15         1.9640    0.3760   -1.1910 c1        1 J19      0.088000
     16 C16         1.8850    0.2780    0.1560 c1        1 J19     -0.061000
     17 C20        -0.3510   -1.2750    2.8800 c1        1 J19     -0.259000
     18 C19         0.3380   -0.2240    3.2510 c2        1 J19      0.089000
     19 O22        -0.1200    0.7440    4.1260 oh        1 J19     -0.259000
     20 C18         1.7400    0.1160    2.7940 c3        1 J19      0.186000
     21 C17         1.8220    0.1920    1.3510 c1        1 J19     -0.092000
     22 O23         2.5930   -0.9040    3.3230 os        1 J19     -0.252000
     23 C24         3.9710   -0.5710    3.2530 c3        1 J19     -0.082000
     24 H1         -1.6530   -2.3340    1.6150 ha        1 J19      0.130500
     25 H3         -1.1410    4.4680   -3.6820 ha        1 J19      0.144000
     26 H4         -3.1880    5.7850   -3.8330 ha        1 J19      0.188000
     27 H5         -4.2420    1.9380   -4.3000 ha        1 J19      0.146000
     28 H6         -4.9580    1.8130   -6.0110 ha        1 J19      0.146000
     29 H7         -1.3970    2.2540   -2.5640 hs        1 J19      0.020000
     30 H9         -0.9310   -3.2870    3.0420 ha        1 J19      0.130500
     31 H10        -0.9820    0.4630    4.4630 ho        1 J19      0.225000
     32 H11         2.0350    1.1200    3.2310 h1        1 J19      0.130000
     33 H12         4.2850   -0.4060    2.1930 h1        1 J19      0.082000
     34 H13         4.1860    0.3400    3.8650 h1        1 J19      0.082000
     35 H14         4.4870   -1.4660    3.6840 h1        1 J19      0.082000
     36 H2          1.5790    1.1000   -5.6320 hn        1 J19      0.268000
     37 O14         3.2610   -0.0190   -4.3100 o         1 J19     -0.307000
@<TRIPOS>BOND
     1    1   17 1   
     2    1   24 1   
     3    1   30 1   
     4    2    3 1   
     5    2    4 1   
     6    2   37 1   
     7    3    6 1   
     8    3   36 1   
     9    4   15 1   
    10    5    6 1   
    11    5   29 1   
    12    6    7 1   
    13    7    8 1   
    14    8    9 1   
    15    8   11 1   
    16    9   10 1   
    17    9   25 1   
    18   10   14 1   
    19   10   26 1   
    20   11   12 1   
    21   11   13 1   
    22   13   27 1   
    23   13   28 1   
    24   15   16 1   
    25   16   21 1   
    26   17   18 1   
    27   18   19 1   
    28   18   20 1   
    29   19   31 1   
    30   20   21 1   
    31   20   22 1   
    32   20   32 1   
    33   22   23 1   
    34   23   33 1   
    35   23   34 1   
    36   23   35 1   
@<TRIPOS>SUBSTRUCTURE
     1 J19         1 TEMP              0 ****  ****    0 ROOT
