@<TRIPOS>MOLECULE
J19
   37    39     1     0     0
SMALL
bcc


@<TRIPOS>ATOM
      1 C21         2.3810   -0.9000   -0.4730 ca        1 J19     -0.090000
      2 C11        -0.1080    2.8130    0.2230 c         1 J19      0.710700
      3 N10        -1.4820    2.6010    0.3980 n         1 J19     -0.494400
      4 C12         0.6380    1.5280    0.0940 cc        1 J19     -0.142600
      5 S13        -0.4470    0.2170    0.2030 ss        1 J19     -0.160800
      6 C9         -1.8850    1.2520    0.3850 cc        1 J19      0.526800
      7 N8         -3.1340    0.9110    0.4810 nf        1 J19     -0.606100
      8 C4         -3.5820   -0.4170    0.4840 ca        1 J19      0.159400
      9 C3         -2.8360   -1.5010    1.0000 ca        1 J19     -0.156000
     10 C2         -3.3680   -2.7850    1.0360 ca        1 J19     -0.117000
     11 C5         -4.8910   -0.6840    0.0020 ca        1 J19      0.038400
     12 CL7        -5.8570    0.5540   -0.6430 cl        1 J19     -0.071400
     13 C6         -5.4110   -1.9800    0.0410 ca        1 J19     -0.122000
     14 C1         -4.6530   -3.0290    0.5560 ca        1 J19     -0.124000
     15 C15         1.9740    1.5330   -0.0610 cf        1 J19      0.019800
     16 C16         2.8500    0.3900   -0.1950 ca        1 J19     -0.095800
     17 C20         3.2590   -1.9740   -0.5940 ca        1 J19     -0.147000
     18 C19         4.6330   -1.7690   -0.4330 ca        1 J19      0.138100
     19 O22         5.4540   -2.8600   -0.5560 oh        1 J19     -0.488100
     20 C18         5.1190   -0.4660   -0.1560 ca        1 J19      0.038100
     21 C17         4.2360    0.6020   -0.0430 ca        1 J19     -0.133000
     22 O23         6.4940   -0.3830   -0.0180 os        1 J19     -0.347900
     23 C24         7.0210    0.9160    0.2290 c3        1 J19      0.119700
     24 H1          1.3020   -1.0840   -0.6220 ha        1 J19      0.148000
     25 H3         -1.8230   -1.3310    1.4060 ha        1 J19      0.146000
     26 H4         -2.7670   -3.6110    1.4470 ha        1 J19      0.138000
     27 H5         -6.4270   -2.1710   -0.3380 ha        1 J19      0.149000
     28 H6         -5.0720   -4.0450    0.5830 ha        1 J19      0.140000
     29 H7          2.4790    2.5230   -0.0800 ha        1 J19      0.157000
     30 H9          2.8890   -2.9860   -0.8150 ha        1 J19      0.160000
     31 H10         6.3710   -2.5690   -0.4260 ho        1 J19      0.442000
     32 H11         4.6070    1.6150    0.1700 ha        1 J19      0.145000
     33 H12         6.7750    1.6070   -0.6130 h1        1 J19      0.049033
     34 H13         6.6320    1.3190    1.1960 h1        1 J19      0.049033
     35 H14         8.1250    0.7400    0.2880 h1        1 J19      0.049033
     36 H2         -2.1290    3.3510    0.4780 hn        1 J19      0.361500
     37 O14         0.3790    3.9520    0.1930 o         1 J19     -0.588500
@<TRIPOS>BOND
     1    1   16 ar  
     2    1   17 ar  
     3    1   24 1   
     4    2    3 1   
     5    2    4 1   
     6    2   37 2   
     7    3    6 1   
     8    3   36 1   
     9    4    5 1   
    10    4   15 2   
    11    5    6 1   
    12    6    7 2   
    13    7    8 1   
    14    8    9 ar  
    15    8   11 ar  
    16    9   10 ar  
    17    9   25 1   
    18   10   14 ar  
    19   10   26 1   
    20   11   12 1   
    21   11   13 ar  
    22   13   14 ar  
    23   13   27 1   
    24   14   28 1   
    25   15   16 1   
    26   15   29 1   
    27   16   21 ar  
    28   17   18 ar  
    29   17   30 1   
    30   18   19 1   
    31   18   20 ar  
    32   19   31 1   
    33   20   21 ar  
    34   20   22 1   
    35   21   32 1   
    36   22   23 1   
    37   23   33 1   
    38   23   34 1   
    39   23   35 1   
@<TRIPOS>SUBSTRUCTURE
     1 J19         1 TEMP              0 ****  ****    0 ROOT
