@<TRIPOS>MOLECULE
J1A
   75    72     1     0     0
SMALL
bcc


@<TRIPOS>ATOM
      1 C1        -22.5980  -26.6950   95.9670 c1        1 J1A     -0.104000
      2 N1        -17.0240  -25.4480   94.9350 n3        1 J1A     -0.234000
      3 O1        -16.9950  -24.9020   92.7310 oh        1 J1A     -0.247000
      4 S1         17.5890   20.5270  -74.2040 sh        1 J1A      0.050000
      5 C2        -22.8330  -27.0420   97.2200 c2        1 J1A     -0.062000
      6 N2        -15.3900  -25.5430   96.5040 n7        1 J1A     -0.230000
      7 O2        -24.0810  -27.3860   97.7260 oh        1 J1A     -0.290000
      8 C3        -21.7910  -27.1000   98.2220 c1        1 J1A      0.108000
      9 O3        -22.0430  -27.4420   99.4490 oh        1 J1A     -0.149000
     10 C4        -17.7500  -25.2880   93.7560 c1        1 J1A      0.152000
     11 N4        -18.2650  -26.5920   98.7000 n7        1 J1A     -0.217000
     12 C5        -15.6340  -25.2630   95.1850 c1        1 J1A      0.129000
     13 N5        -18.9520  -26.1560   96.4250 n2        1 J1A     -0.155000
     14 C6        -16.5960  -25.9150   97.1470 c2        1 J1A     -0.240000
     15 N6         16.6800   24.7800  -74.0350 n3        1 J1A     -0.178000
     16 C7        -16.9150  -26.2970   98.4750 c2        1 J1A      0.262000
     17 C8        -19.2070  -26.5100   97.6850 c1        1 J1A     -0.062000
     18 N8         21.6450   24.2280  -81.8470 na        1 J1A     -0.173000
     19 C9        -17.6510  -25.8550   96.1390 c2        1 J1A      0.183000
     20 C10       -22.3330  -26.3530   94.7490 c2        1 J1A     -0.083000
     21 N10        23.8960   23.6020  -81.3320 ns        1 J1A     -0.334000
     22 C11        19.0830   20.5640  -71.8990 c2        1 J1A     -0.117000
     23 N11        21.7900   22.8630  -78.3940 n2        1 J1A     -0.124000
     24 C12        19.4890   19.1470  -71.9180 c3        1 J1A     -0.212000
     25 N12        19.8840   23.9610  -80.2340 n2        1 J1A     -0.053000
     26 C13        15.8990   25.8540  -74.3100 c1        1 J1A     -0.053000
     27 C14        17.2950   24.4460  -72.8820 c1        1 J1A     -0.053000
     28 C15        18.3170   21.1650  -72.8110 c2        1 J1A     -0.358000
     29 C18        20.0490   22.5340  -76.8020 c2        1 J1A     -0.429000
     30 C19        22.9590   24.1230  -82.2180 cz        1 J1A      0.355000
     31 C20        23.5770   23.1540  -80.0160 c2        1 J1A      0.366000
     32 C21        20.4470   22.9820  -78.0510 c2        1 J1A      0.092000
     33 C22        19.5250   23.5600  -79.0280 c2        1 J1A     -0.183000
     34 C25        21.2160   23.8180  -80.5600 c2        1 J1A     -0.148000
     35 C26        22.1460   23.2700  -79.6140 c2        1 J1A     -0.002000
     36 C27        18.3590   23.8190  -75.6110 c3        1 J1A     -0.160000
     37 N28        18.6920   22.5540  -76.3310 ny        1 J1A      0.050000
     38 H1        -17.5870  -24.8170   91.9560 ho        1 J1A      0.289000
     39 H2        -15.8560  -24.1800   90.6520 ha        1 J1A      0.001500
     40 HO2       -24.7370  -27.3300   97.0170 ho        1 J1A      0.255000
     41 H3        -15.3520  -24.2010   91.1050 ha        1 J1A      0.001500
     42 HN3       -15.0310  -26.1530   99.2540 hn        1 J1A      0.262000
     43 HN3A      -16.2070  -26.6400  100.3890 hn        1 J1A      0.262000
     44 HO3       -22.9840  -27.6560   99.6420 ho        1 J1A      0.263000
     45 H4        -20.4780  -26.8080   97.9790 DU        1 J1A      0.359000
     46 H5        -14.5090  -25.4950   96.9490 hn        1 J1A      0.274000
     47 H8        -18.5710  -26.8690   99.6110 hn        1 J1A      0.274000
     48 H10       -22.3660  -25.3020   94.4110 ha        1 J1A      0.177000
     49 H10A      -22.0490  -27.0890   93.9770 ha        1 J1A      0.177000
     50 H11        18.0720   19.2910  -74.2320 hs        1 J1A      0.056000
     51 H12        20.0230   18.8930  -72.8690 hc        1 J1A      0.095333
     52 H12A       18.5950   18.4780  -71.8290 hc        1 J1A      0.095333
     53 H13        20.1770   18.9190  -71.0660 hc        1 J1A      0.095333
     54 H13A       15.7240   26.5210  -73.4360 ha        1 J1A      0.064500
     55 H14        17.1040   25.1370  -72.0320 ha        1 J1A      0.064500
     56 H14A       18.0470   22.2390  -72.7040 h4        1 J1A      0.192000
     57 H15        19.4560   21.1540  -71.0420 ha        1 J1A      0.148000
     58 H15A      -18.5680  -24.5540   90.1350 ha        1 J1A      0.001500
     59 H18        19.0560   23.8920  -74.7250 hx        1 J1A      0.148000
     60 H18A       18.0410   22.4360  -77.1120 hn        1 J1A      0.241500
     61 H22        18.4580   23.7050  -78.7920 h4        1 J1A      0.157000
     62 H27        16.5730   22.8190  -74.7930 h1        1 J1A      0.130000
     63 H27A       18.5680   24.6830  -76.3020 hx        1 J1A      0.148000
     64 HN28       20.7690   22.1420  -76.0670 hx        1 J1A      0.195000
     65 N3        -15.9760  -26.3720   99.4630 n8        1 J1A     -0.361000
     66 O4         24.5130   22.7200  -79.3490 o         1 J1A     -0.218000
     67 N9         23.3560   24.5340  -83.4760 nv        1 J1A     -0.378000
     68 H282       18.5550   21.7460  -75.6630 hn        1 J1A      0.241500
     69 H91        20.9600   24.6050  -82.4750 hn        1 J1A      0.290000
     70 C16        16.8880   23.8460  -75.1490 c3        1 J1A     -0.054000
     71 HN10       24.8550   23.5290  -81.6150 hn        1 J1A      0.278000
     72 H16       -17.9390  -24.3920   89.9410 ha        1 J1A      0.001500
     73 HN9        22.7010   24.9080  -84.1220 hn        1 J1A      0.273000
     74 HN9A       24.3060   24.4560  -83.7550 hn        1 J1A      0.273000
     75 H16A       16.2250   24.1600  -76.0050 h1        1 J1A      0.130000
@<TRIPOS>BOND
     1    1    5 1   
     2    1   20 1   
     3    2   10 1   
     4    2   12 1   
     5    2   19 1   
     6    3   10 1   
     7    3   38 1   
     8    4   28 1   
     9    4   50 1   
    10    5    7 1   
    11    5    8 1   
    12    6   12 1   
    13    6   14 1   
    14    6   46 1   
    15    7   40 1   
    16    8    9 1   
    17    9   44 1   
    18   11   16 1   
    19   11   17 1   
    20   11   47 1   
    21   13   17 1   
    22   13   19 1   
    23   14   16 1   
    24   14   19 1   
    25   15   26 1   
    26   15   27 1   
    27   15   70 1   
    28   16   65 1   
    29   18   30 1   
    30   18   34 1   
    31   18   69 1   
    32   20   48 1   
    33   20   49 1   
    34   21   30 1   
    35   21   31 1   
    36   21   71 1   
    37   22   24 1   
    38   22   28 1   
    39   22   57 1   
    40   23   32 1   
    41   23   35 1   
    42   24   51 1   
    43   24   52 1   
    44   24   53 1   
    45   25   33 1   
    46   25   34 1   
    47   26   54 1   
    48   27   55 1   
    49   28   56 1   
    50   29   32 1   
    51   29   37 1   
    52   29   64 1   
    53   30   67 1   
    54   31   35 1   
    55   31   66 1   
    56   32   33 1   
    57   33   61 1   
    58   34   35 1   
    59   36   37 1   
    60   36   59 1   
    61   36   63 1   
    62   36   70 1   
    63   37   60 1   
    64   37   68 1   
    65   39   41 1   
    66   42   65 1   
    67   43   65 1   
    68   58   72 1   
    69   62   70 1   
    70   67   73 1   
    71   67   74 1   
    72   70   75 1   
@<TRIPOS>SUBSTRUCTURE
     1 J1A         1 TEMP              0 ****  ****    0 ROOT
