@<TRIPOS>MOLECULE
J1A
   75    73     1     0     0
SMALL
bcc


@<TRIPOS>ATOM
      1 C1        -51.1910  -21.4460   28.7370 c2        1 J1A     -0.175000
      2 N1        -51.2860  -16.7190   32.0720 n         1 J1A     -0.261000
      3 O1        -52.3090  -16.2800   30.0820 o         1 J1A     -0.369000
      4 S1        -53.9470  -21.4610   28.9370 ss        1 J1A      0.463000
      5 C2        -48.8250  -16.6010   29.8160 c1        1 J1A      0.088000
      6 N2        -52.0440  -16.5870   34.1940 n3        1 J1A     -0.202000
      7 O2        -48.6710  -15.3840   30.1770 oh        1 J1A     -0.110000
      8 C3        -50.1470  -17.3200   29.8490 c3        1 J1A     -0.076000
      9 O3        -50.0090  -18.6770   30.2080 oh        1 J1A     -0.309000
     10 C4        -51.3080  -16.7290   30.6710 c2        1 J1A      0.313000
     11 N4        -48.4170  -17.2620   34.9620 n3        1 J1A     -0.222000
     12 C5        -52.4300  -16.5120   32.8910 c1        1 J1A      0.030000
     13 N5        -48.8650  -17.1760   32.5990 n2        1 J1A     -0.267000
     14 C6        -50.6510  -16.8460   34.2780 c2        1 J1A     -0.282000
     15 N6        -55.1640  -16.8580   30.1660 n3        1 J1A     -0.124000
     16 C7        -49.7410  -17.0100   35.3520 c2        1 J1A      0.241000
     17 C8        -48.0140  -17.3390   33.6400 c1        1 J1A      0.043000
     18 N8        168.3570   59.3920 -102.6360 na        1 J1A     -0.219000
     19 C9        -50.1530  -16.9430   32.9070 c2        1 J1A      0.146000
     20 C10       -52.3970  -21.9660   28.5290 c2        1 J1A     -0.396000
     21 N10       169.6090   57.7290 -101.4460 n         1 J1A     -0.330000
     22 C11       -53.8220  -20.0000   29.7180 c2        1 J1A     -0.304000
     23 N11       166.4700   58.3940  -99.5910 n2        1 J1A     -0.061000
     24 C12       -52.5900  -15.5690   26.6540 c3        1 J1A     -0.284000
     25 N12       166.2390   60.1730 -101.8220 n2        1 J1A     -0.079000
     26 C13       -54.8920  -15.6050   30.6920 c1        1 J1A      0.044000
     27 C14       -54.8340  -18.0830   30.9320 c3        1 J1A     -0.058000
     28 C15       -54.9120  -19.3500   30.1660 c2        1 J1A     -0.295000
     29 C18       164.2120   59.0020  -98.9840 c1        1 J1A      0.118000
     30 C19       169.4760   58.5860 -102.5270 cz        1 J1A      0.388000
     31 C20       168.6340   57.6030 -100.4050 c2        1 J1A      0.371000
     32 C21       165.3710   59.1750  -99.7720 c2        1 J1A     -0.086000
     33 C22       165.2840   60.0790 -100.9110 c2        1 J1A     -0.046000
     34 C25       167.3340   59.3460 -101.6610 c2        1 J1A      0.011000
     35 C26       167.4320   58.4640 -100.5450 c2        1 J1A     -0.071000
     36 C27       -56.0500  -15.7240   28.1170 c3        1 J1A     -0.093000
     37 N28       -57.0770  -16.0230   27.1690 n3        1 J1A     -0.391000
     38 H1        -52.4920  -22.9310   27.9890 h4        1 J1A      0.173000
     39 H2        -53.3930  -14.2490   29.5930 ha        1 J1A      0.007500
     40 HO2       -49.4440  -14.9240   30.5740 ho        1 J1A      0.168000
     41 H3        -53.6730  -14.5560   29.0520 ha        1 J1A      0.007500
     42 HN3       -51.0760  -16.7270   36.8790 hn        1 J1A      0.250500
     43 HN3A      -49.4850  -17.0340   37.4020 hn        1 J1A      0.250500
     44 HO3       -49.1240  -18.8050   30.5900 ho        1 J1A      0.256000
     45 H4        -50.5180  -17.3210   28.7710 h1        1 J1A      0.154000
     46 H5        -52.6360  -16.4750   34.9770 hn        1 J1A      0.269000
     47 H8        -47.7110  -17.3930   35.6570 hn        1 J1A      0.271000
     48 H10       -51.0060  -20.4990   29.2660 ha        1 J1A      0.137000
     49 H10A      -50.2790  -21.9500   28.3820 ha        1 J1A      0.137000
     50 H11       -53.2460  -16.3000   26.1320 hc        1 J1A      0.071500
     51 H12       -53.0970  -14.5810   26.7060 hc        1 J1A      0.071500
     52 H12A      -51.6390  -15.4620   26.0860 hc        1 J1A      0.071500
     53 H13       -52.3680  -15.9290   27.6840 hc        1 J1A      0.071500
     54 H13A      -54.1760  -15.6040   31.5480 ha        1 J1A      0.130000
     55 H14       -53.7920  -17.9140   31.3440 h1        1 J1A      0.138500
     56 H14A      -55.5580  -18.1220   31.7990 h1        1 J1A      0.138500
     57 H15       -55.9200  -19.7810   30.0520 ha        1 J1A      0.147000
     58 H15A      -52.8190  -19.5600   29.8760 h4        1 J1A      0.158000
     59 H18       -55.0590  -15.4710   27.6100 h1        1 J1A      0.157500
     60 H18A      -57.9300  -15.5390   27.3490 hn        1 J1A      0.196500
     61 H22       164.3980   60.7300 -101.0520 h4        1 J1A      0.213000
     62 H27       -55.3220  -14.9100   24.7460 ha        1 J1A      0.007500
     63 H27A      -56.2970  -14.8450   28.7930 h1        1 J1A      0.157500
     64 HN28      164.0320   59.3620  -97.9710 ha        1 J1A      0.165000
     65 N3        -50.1340  -16.9310   36.6600 n3        1 J1A     -0.374000
     66 O4        168.8890   56.8050  -99.5100 o         1 J1A     -0.185000
     67 N9        170.4510   58.6430 -103.4930 nh        1 J1A     -0.353000
     68 H282      -56.7820  -15.9230   26.2210 hn        1 J1A      0.196500
     69 H91       168.2480   60.0180 -103.4140 hn        1 J1A      0.303000
     70 C16       -55.7580  -16.9330   28.9760 c2        1 J1A      0.213000
     71 HN10      170.4240   57.1450 -101.3700 hn        1 J1A      0.290000
     72 H16       -54.9410  -14.9860   25.3020 ha        1 J1A      0.007500
     73 HN9       170.3680   59.2530 -104.2750 hn        1 J1A      0.284000
     74 HN9A      171.2640   58.0700 -103.4280 hn        1 J1A      0.284000
     75 H16A      -56.0260  -17.9420   28.5740 h4        1 J1A      0.210000
@<TRIPOS>BOND
     1    1   20 1   
     2    1   48 1   
     3    1   49 1   
     4    2   10 1   
     5    2   12 1   
     6    2   19 1   
     7    3   10 1   
     8    4   20 1   
     9    4   22 1   
    10    5    7 1   
    11    5    8 1   
    12    6   12 1   
    13    6   14 1   
    14    6   46 1   
    15    7   40 1   
    16    8    9 1   
    17    8   10 1   
    18    8   45 1   
    19    9   44 1   
    20   11   16 1   
    21   11   17 1   
    22   11   47 1   
    23   13   17 1   
    24   13   19 1   
    25   14   16 1   
    26   14   19 1   
    27   15   26 1   
    28   15   27 1   
    29   15   70 1   
    30   16   65 1   
    31   18   30 1   
    32   18   34 1   
    33   18   69 1   
    34   20   38 1   
    35   21   30 1   
    36   21   31 1   
    37   21   71 1   
    38   22   28 1   
    39   22   58 1   
    40   23   32 1   
    41   23   35 1   
    42   24   50 1   
    43   24   51 1   
    44   24   52 1   
    45   24   53 1   
    46   25   33 1   
    47   25   34 1   
    48   26   54 1   
    49   27   28 1   
    50   27   55 1   
    51   27   56 1   
    52   28   57 1   
    53   29   32 1   
    54   29   64 1   
    55   30   67 1   
    56   31   35 1   
    57   31   66 1   
    58   32   33 1   
    59   33   61 1   
    60   34   35 1   
    61   36   37 1   
    62   36   59 1   
    63   36   63 1   
    64   36   70 1   
    65   37   60 1   
    66   37   68 1   
    67   39   41 1   
    68   42   65 1   
    69   43   65 1   
    70   62   72 1   
    71   67   73 1   
    72   67   74 1   
    73   70   75 1   
@<TRIPOS>SUBSTRUCTURE
     1 J1A         1 TEMP              0 ****  ****    0 ROOT
