@<TRIPOS>MOLECULE
J1A
   76    72     1     0     0
SMALL
bcc


@<TRIPOS>ATOM
      1 C1         32.6060  -74.6750  383.7410 c2        1 J1A     -0.205000
      2 N1         36.5450  -73.0470  387.9910 n3        1 J1A     -0.287000
      3 O1         38.4020  -71.6900  387.4190 oh        1 J1A     -0.185000
      4 S1         30.3220  -74.0140  382.6090 ss        1 J1A      0.511000
      5 C2         33.9350  -74.4680  384.2670 c2        1 J1A     -0.017000
      6 N2         35.4950  -74.9720  387.2840 n3        1 J1A     -0.129000
      7 O2         34.6800  -75.6020  384.5860 oh        1 J1A     -0.330000
      8 C3         34.5380  -73.2760  384.5050 c2        1 J1A     -0.083000
      9 O3         35.8180  -73.1780  385.0000 oh        1 J1A     -0.287000
     10 C4         37.3860  -71.9090  388.1870 c1        1 J1A      0.290000
     11 N4         33.0280  -74.1380  389.9760 n3        1 J1A     -0.289000
     12 C5         36.6530  -74.0850  387.1020 c1        1 J1A      0.188000
     13 N5         34.8860  -72.5850  389.8290 n2        1 J1A     -0.028000
     14 C6         34.7090  -74.5020  388.2360 c2        1 J1A      0.100000
     15 N6       -537.1280  -20.3850 -315.8120 n3        1 J1A     -0.227000
     16 C7         33.3840  -74.9790  388.8030 c3        1 J1A      0.049000
     17 C8         33.6660  -73.0490  390.4020 c1        1 J1A      0.111000
     18 N8        571.6120  168.0840 -355.3820 n2        1 J1A     -0.065000
     19 C9         35.3620  -73.2160  388.8060 c2        1 J1A      0.062000
     20 C10        31.8550  -73.7090  383.1760 c2        1 J1A     -0.345000
     21 N10       570.9230  166.2520 -356.8320 n         1 J1A     -0.348000
     22 C11        29.8030  -72.5460  381.9710 c2        1 J1A     -0.723000
     23 N11       574.5830  166.6570 -357.1210 n2        1 J1A     -0.097000
     24 C12      -534.9410  -20.8600 -318.0230 c3        1 J1A     -0.306000
     25 N12       573.9100  168.7390 -355.2570 n2        1 J1A     -0.006000
     26 C13      -535.8360  -20.8290 -315.5490 c1        1 J1A      0.046000
     27 C14      -538.2750  -21.1360 -316.0720 c1        1 J1A      0.046000
     28 C15        28.5860  -72.3240  381.5140 c1        1 J1A      0.289000
     29 C18       576.8870  167.2020 -356.7190 c1        1 J1A      0.101000
     30 C19       570.7070  167.2780 -355.9050 c2        1 J1A      0.038000
     31 C20       572.2420  165.9930 -357.2930 c2        1 J1A      0.363000
     32 C21       575.5380  167.4650 -356.5640 c2        1 J1A     -0.037000
     33 C22       575.1550  168.5260 -355.6280 c2        1 J1A     -0.097000
     34 C25       572.9410  167.8970 -355.7860 c2        1 J1A     -0.082000
     35 C26       573.3100  166.8680 -356.7210 c2        1 J1A     -0.030000
     36 C27      -536.2020  -18.0460 -315.5880 c3        1 J1A     -0.096000
     37 N28      -536.6950  -16.7120 -315.6300 n3        1 J1A     -0.400000
     38 H1         38.6260  -72.2890  386.6760 ho        1 J1A      0.248000
     39 H2         27.9730  -74.5070  382.2640 ha        1 J1A      0.012500
     40 HO2        34.5130  -76.2660  383.8990 ho        1 J1A      0.247000
     41 H3         28.2110  -74.7090  381.6560 ha        1 J1A      0.012500
     42 HN3        32.6090  -74.7290  387.9910 h2        1 J1A      0.181000
     43 HN3A       33.8930  -76.7270  389.7740 hn        1 J1A      0.204000
     44 HO3        36.3400  -73.9130  384.6340 ho        1 J1A      0.237000
     45 H4         34.0650  -72.2900  384.3960 h4        1 J1A      0.184000
     46 H5         35.3410  -75.7720  386.6900 hn        1 J1A      0.334000
     47 H8         32.1850  -74.3950  390.4550 hn        1 J1A      0.288000
     48 H10        32.2660  -72.6890  383.0810 h4        1 J1A      0.146000
     49 H10A       32.2280  -75.7100  383.8180 ha        1 J1A      0.142000
     50 H11      -535.3940  -21.8490 -317.7910 hc        1 J1A      0.084500
     51 H12      -535.7290  -20.1510 -318.3620 hc        1 J1A      0.084500
     52 H12A     -534.2020  -21.0000 -318.8470 hc        1 J1A      0.084500
     53 H13      -534.3940  -20.4440 -317.1420 hc        1 J1A      0.084500
     54 H13A     -535.7280  -21.9350 -315.5300 ha        1 J1A      0.096000
     55 H14      -538.6370  -21.1550 -318.2940 ha        1 J1A      0.012500
     56 H14A     -538.1050  -22.2350 -316.0400 ha        1 J1A      0.096000
     57 H15        30.5190  -71.7020  381.8980 h4        1 J1A      0.222000
     58 H15A     -537.9770  -21.3340 -318.2920 ha        1 J1A      0.012500
     59 H18      -536.3630  -16.1760 -316.4020 hn        1 J1A      0.213500
     60 H18A     -535.4110  -18.2630 -316.3800 h1        1 J1A      0.179500
     61 H22       575.9240  169.1950 -355.1970 h4        1 J1A      0.204000
     62 H27      -537.4900  -18.7240 -318.1690 ha        1 J1A      0.012500
     63 H27A     -535.7070  -18.3140 -314.5970 h1        1 J1A      0.179500
     64 HN28      577.6780  167.4510 -357.4140 ha        1 J1A      0.207000
     65 N3         33.4130  -76.4150  388.9530 n3        1 J1A     -0.363000
     66 O4        572.3820  165.0850 -358.1100 o         1 J1A     -0.222000
     67 N9        569.2970  167.5020 -355.4430 n4        1 J1A     -0.027000
     68 H282     -536.6320  -16.2230 -314.7640 hn        1 J1A      0.213500
     69 H33        32.5010  -76.8220  388.8900 hn        1 J1A      0.204000
     70 H91       568.7060  167.7380 -356.2480 hn        1 J1A      0.277333
     71 C16      -537.3170  -19.0280 -315.8090 c2        1 J1A      0.345000
     72 HN10      570.1860  165.6780 -357.1800 hn        1 J1A      0.266000
     73 H16      -537.7440  -18.7020 -318.7990 ha        1 J1A      0.012500
     74 HN9       569.2770  168.2840 -354.7680 hn        1 J1A      0.277333
     75 HN9A      568.9470  166.6530 -354.9860 hn        1 J1A      0.277333
     76 H16A     -538.3690  -18.6660 -315.9760 h4        1 J1A      0.237000
@<TRIPOS>BOND
     1    1    5 1   
     2    1   20 1   
     3    1   49 1   
     4    2   10 1   
     5    2   12 1   
     6    2   19 1   
     7    3   10 1   
     8    3   38 1   
     9    4   20 1   
    10    4   22 1   
    11    5    7 1   
    12    5    8 1   
    13    6   12 1   
    14    6   14 1   
    15    6   46 1   
    16    7   40 1   
    17    8    9 1   
    18    8   45 1   
    19    9   44 1   
    20   11   16 1   
    21   11   17 1   
    22   11   47 1   
    23   13   17 1   
    24   13   19 1   
    25   14   16 1   
    26   14   19 1   
    27   15   26 1   
    28   15   27 1   
    29   15   71 1   
    30   16   42 1   
    31   16   65 1   
    32   18   30 1   
    33   18   34 1   
    34   20   48 1   
    35   21   30 1   
    36   21   31 1   
    37   21   72 1   
    38   22   28 1   
    39   22   57 1   
    40   23   32 1   
    41   23   35 1   
    42   24   50 1   
    43   24   51 1   
    44   24   52 1   
    45   24   53 1   
    46   25   33 1   
    47   25   34 1   
    48   26   54 1   
    49   27   56 1   
    50   29   32 1   
    51   29   64 1   
    52   30   67 1   
    53   31   35 1   
    54   31   66 1   
    55   32   33 1   
    56   33   61 1   
    57   34   35 1   
    58   36   37 1   
    59   36   60 1   
    60   36   63 1   
    61   36   71 1   
    62   37   59 1   
    63   37   68 1   
    64   39   41 1   
    65   43   65 1   
    66   55   58 1   
    67   62   73 1   
    68   65   69 1   
    69   67   70 1   
    70   67   74 1   
    71   67   75 1   
    72   71   76 1   
@<TRIPOS>SUBSTRUCTURE
     1 J1A         1 TEMP              0 ****  ****    0 ROOT
