@<TRIPOS>MOLECULE
J1A
   73    70     1     0     0
SMALL
bcc


@<TRIPOS>ATOM
      1 C1          1.6170   -2.5500    2.2600 c3        1 J1A      0.019000
      2 N1         -0.1210   -5.3080    3.8090 n2        1 J1A     -0.209000
      3 O1          1.7650   -3.9280    2.9660 os        1 J1A     -0.264000
      4 S1          2.1290    0.0760    2.8480 ss        1 J1A      0.074000
      5 C2          0.6510   -2.7000    1.4450 c3        1 J1A      0.015000
      6 N2         -0.6470   -6.0270    5.7950 n2        1 J1A     -0.120000
      7 O2          1.1660   -3.1250    0.1220 oh        1 J1A     -0.318000
      8 C3         -0.2880   -3.8550    2.0620 c3        1 J1A     -0.025000
      9 N3         -2.2410   -9.0370    6.1430 n3        1 J1A     -0.354000
     10 O3         -1.0980   -4.4830    0.9770 oh        1 J1A     -0.326000
     11 C4          0.4990   -4.7180    2.5860 c2        1 J1A      0.136000
     12 N4         -1.9740   -8.9430    3.9350 n1        1 J1A     -0.269000
     13 O4          0.4720    5.5270   -8.1590 o         1 J1A     -0.301000
     14 C5         -0.0390   -5.0350    5.1260 c1        1 J1A     -0.031000
     15 N5         -1.0480   -7.2540    2.5630 n1        1 J1A     -0.242000
     16 C6         -1.1120   -6.9260    4.8850 c1        1 J1A     -0.237000
     17 N6          0.4170    3.7970    0.8230 n3        1 J1A     -0.259000
     18 C7         -1.7160   -8.1780    5.0340 c1        1 J1A      0.245000
     19 C8         -1.6460   -8.4930    2.7090 c1        1 J1A      0.030000
     20 N8         -2.3140    2.8350   -6.6830 n1        1 J1A     -0.232000
     21 C9         -0.7880   -6.4820    3.6650 c1        1 J1A      0.059000
     22 N9         -3.0080    2.4150   -9.0040 n3        1 J1A     -0.332000
     23 C10         1.2790   -1.4410    3.2970 c3        1 J1A     -0.305000
     24 N10        -1.2250    4.0840   -8.6230 n         1 J1A     -0.352000
     25 C11         0.9040    1.3230    2.2680 c3        1 J1A     -0.206000
     26 N11         0.3840    5.0700   -5.3430 n1        1 J1A     -0.023000
     27 C12         1.2550    2.6630    2.8640 c3        1 J1A     -0.187500
     28 N12        -1.4780    3.2170   -4.4160 n1        1 J1A     -0.097000
     29 C13         0.4160    3.7770    2.3050 c3        1 J1A     -0.071500
     30 C14         0.0670    2.4650    0.2280 c3        1 J1A     -0.071500
     31 C15         0.9060    1.3460    0.7870 c3        1 J1A     -0.187500
     32 C16         1.7610    4.2050    0.3350 c3        1 J1A     -0.082000
     33 C18         1.1650    5.6440   -3.0510 c3        1 J1A     -0.021000
     34 C19        -2.2220    3.1140   -8.1180 c2        1 J1A      0.242000
     35 C20        -0.3750    4.7370   -7.7340 c2        1 J1A      0.368000
     36 C21         0.3290    4.7790   -4.0360 c1        1 J1A     -0.090000
     37 C22        -0.6250    3.8270   -3.5510 c1        1 J1A     -0.064000
     38 C25        -1.4230    3.5110   -5.7450 c1        1 J1A      0.081000
     39 C26        -0.4780    4.4540   -6.2230 c2        1 J1A     -0.179000
     40 C27         1.6110    5.3410   -0.7490 c3        1 J1A     -0.065000
     41 N28         1.7980    4.7830   -2.0620 n3        1 J1A     -0.300000
     42 H1          2.4750   -2.3120    1.7570 h1        1 J1A      0.160000
     43 H2          0.1300   -1.8410    1.3590 h1        1 J1A      0.096000
     44 HO2         0.9500   -2.5400   -0.4700 ho        1 J1A      0.233000
     45 H3         -0.8390   -3.5020    2.7020 h1        1 J1A      0.117000
     46 HN3        -2.2520   -8.7200    6.9940 hn        1 J1A      0.246000
     47 HN3A       -2.6290   -9.8210    5.9540 hn        1 J1A      0.246000
     48 HO3        -1.8980   -4.0040    0.8690 ho        1 J1A      0.242000
     49 H4          0.7160   -5.4220    1.9350 h4        1 J1A      0.144000
     50 H5          0.3330   -4.2800    5.5000 DU        1 J1A      0.216000
     51 H8         -1.8440   -9.0790    1.8690 ha        1 J1A      0.188000
     52 HN9        -3.1900    2.7870   -9.8980 hn        1 J1A      0.221000
     53 HN9A       -3.4060    1.7130   -8.7510 hn        1 J1A      0.221000
     54 H10         0.2830   -1.2820    3.3040 h1        1 J1A      0.124000
     55 H10A        1.5840   -1.7350    4.2190 h1        1 J1A      0.124000
     56 HN10       -1.1700    4.2610   -9.5410 hn        1 J1A      0.252000
     57 H11         0.0230    1.0670    2.5750 h1        1 J1A      0.102000
     58 H12         2.2330    2.8610    2.6690 hc        1 J1A      0.102750
     59 H12A        1.1250    2.6250    3.8450 hc        1 J1A      0.102750
     60 H13         0.7770    4.6670    2.6540 h1        1 J1A      0.092750
     61 H13A       -0.4430    3.6750    2.5950 h1        1 J1A      0.092750
     62 H14        -0.9000    2.2690    0.4140 h1        1 J1A      0.092750
     63 H14A        0.1950    2.5040   -0.7070 h1        1 J1A      0.092750
     64 H15         0.5500    0.4760    0.4480 hc        1 J1A      0.102750
     65 H15A        1.8910    1.4590    0.4540 hc        1 J1A      0.102750
     66 H16         2.2870    4.5310    1.0750 h1        1 J1A      0.085500
     67 H16A        2.2000    3.4450   -0.0580 h1        1 J1A      0.085500
     68 H18         1.8500    6.1270   -3.5440 h1        1 J1A      0.091000
     69 H18A        0.5890    6.2690   -2.6100 h1        1 J1A      0.091000
     70 H22        -0.6640    3.6120   -2.5840 ha        1 J1A      0.175000
     71 H27         2.2860    6.0330   -0.5930 h1        1 J1A      0.071500
     72 H27A        0.6400    5.7690   -0.6800 h1        1 J1A      0.071500
     73 HN28        1.3940    3.8830   -2.1010 hn        1 J1A      0.167000
@<TRIPOS>BOND
     1    1    3 1   
     2    1    5 1   
     3    1   23 1   
     4    1   42 1   
     5    2   14 1   
     6    2   21 1   
     7    3   11 1   
     8    4   23 1   
     9    4   25 1   
    10    5    7 1   
    11    5    8 1   
    12    5   43 1   
    13    6   14 1   
    14    6   16 1   
    15    7   44 1   
    16    8   10 1   
    17    8   11 1   
    18    8   45 1   
    19    9   18 1   
    20    9   46 1   
    21    9   47 1   
    22   10   48 1   
    23   11   49 1   
    24   12   19 1   
    25   13   35 1   
    26   15   21 1   
    27   16   18 1   
    28   17   29 1   
    29   17   30 1   
    30   17   32 1   
    31   19   51 1   
    32   20   34 1   
    33   22   34 1   
    34   22   52 1   
    35   22   53 1   
    36   23   54 1   
    37   23   55 1   
    38   24   34 1   
    39   24   35 1   
    40   24   56 1   
    41   25   27 1   
    42   25   31 1   
    43   25   57 1   
    44   26   39 1   
    45   27   29 1   
    46   27   58 1   
    47   27   59 1   
    48   28   38 1   
    49   29   60 1   
    50   29   61 1   
    51   30   31 1   
    52   30   62 1   
    53   30   63 1   
    54   31   64 1   
    55   31   65 1   
    56   32   40 1   
    57   32   66 1   
    58   32   67 1   
    59   33   36 1   
    60   33   41 1   
    61   33   68 1   
    62   33   69 1   
    63   35   39 1   
    64   36   37 1   
    65   37   70 1   
    66   38   39 1   
    67   40   41 1   
    68   40   71 1   
    69   40   72 1   
    70   41   73 1   
@<TRIPOS>SUBSTRUCTURE
     1 J1A         1 TEMP              0 ****  ****    0 ROOT
