@<TRIPOS>MOLECULE
J1A
   73    78     1     0     0
SMALL
bcc


@<TRIPOS>ATOM
      1 C1         -5.4850    2.5690   -0.9180 c3        1 J1A      0.108100
      2 N1         -4.7420   -0.5530   -0.5200 na        1 J1A     -0.297000
      3 O1         -5.3010    1.3980   -1.7290 os        1 J1A     -0.392600
      4 S1         -2.8840    3.2170   -1.2540 ss        1 J1A     -0.291200
      5 C2         -6.6620    2.2770    0.0470 c3        1 J1A      0.129100
      6 N2         -2.6150   -1.3180   -0.0720 nc        1 J1A     -0.550100
      7 O2         -7.8120    2.9980   -0.3110 oh        1 J1A     -0.573800
      8 C3         -6.8440    0.7420    0.0010 c3        1 J1A      0.081100
      9 O3         -8.1510    0.4620   -0.4490 oh        1 J1A     -0.591800
     10 C4         -5.8170    0.2410   -1.0700 c3        1 J1A      0.221800
     11 N4         -4.5590   -4.1990    1.4280 nb        1 J1A     -0.796000
     12 C5         -3.3440   -0.3350   -0.6180 cd        1 J1A      0.416700
     13 N5         -6.0330   -2.4720    0.4780 nb        1 J1A     -0.760000
     14 C6         -3.5500   -2.2480    0.4100 ca        1 J1A     -0.228200
     15 N6          1.1700    4.0420    0.6950 n3        1 J1A     -0.723600
     16 C7         -3.4170   -3.5060    1.0890 ca        1 J1A      0.765200
     17 C8         -5.7540   -3.6400    1.1050 ca        1 J1A      0.688900
     18 N8          8.7710   -2.1300   -1.3640 nc        1 J1A     -0.738700
     19 C9         -4.9030   -1.7840    0.1320 ca        1 J1A      0.448800
     20 C10        -4.2290    2.9170   -0.1440 c3        1 J1A     -0.044300
     21 N10         8.1330   -3.9980    0.0560 n         1 J1A     -0.512400
     22 C11        -1.6500    3.9110   -0.1690 c3        1 J1A      0.014400
     23 N11         6.1350   -1.0590    1.0550 nb        1 J1A     -0.545000
     24 C12        -1.0770    2.8860    0.7860 c3        1 J1A     -0.108900
     25 N12         7.7390    0.0010   -1.0680 nb        1 J1A     -0.622000
     26 C13         0.1330    3.4560    1.5320 c3        1 J1A      0.166800
     27 C14         0.6060    4.9860   -0.2580 c3        1 J1A      0.166800
     28 C15        -0.5780    4.4710   -1.0810 c3        1 J1A     -0.108900
     29 C18         5.0700    1.1550    1.3530 c3        1 J1A      0.122500
     30 C19         8.9050   -3.4080   -0.9650 cd        1 J1A      0.691800
     31 C20         7.1950   -3.2500    0.7960 c         1 J1A      0.622000
     32 C21         6.0370    0.2200    0.6650 ca        1 J1A      0.263300
     33 C22         6.8520    0.7320   -0.4020 ca        1 J1A      0.334900
     34 C25         7.8590   -1.3260   -0.6830 ca        1 J1A      0.566000
     35 C26         7.0410   -1.8300    0.3940 ca        1 J1A      0.172500
     36 C27         3.1120    2.5400    1.0840 c3        1 J1A      0.161800
     37 N28         4.0050    1.5790    0.4660 n3        1 J1A     -0.823200
     38 H1         -5.7450    3.3830   -1.6500 h1        1 J1A      0.108700
     39 H2         -6.4270    2.6180    1.0920 h1        1 J1A      0.092700
     40 HO2        -8.2080    2.5740   -1.0850 ho        1 J1A      0.426000
     41 H3         -6.6650    0.2880    1.0110 h1        1 J1A      0.082700
     42 HN3        -2.0750   -4.8790    1.8310 hn        1 J1A      0.451300
     43 HN3A       -1.3780   -3.4980    1.0950 hn        1 J1A      0.451300
     44 HO3        -8.3160   -0.4730   -0.2640 ho        1 J1A      0.433000
     45 H4         -6.3380   -0.3590   -1.8770 h2        1 J1A      0.107700
     46 H5         -2.9540    0.5810   -1.1020 h5        1 J1A      0.104800
     47 H8         -6.6400   -4.2420    1.4040 h5        1 J1A      0.050100
     48 HN9        10.3710   -3.7830   -2.3360 hn        1 J1A      0.427300
     49 HN9A        9.7030   -5.1660   -1.6610 hn        1 J1A      0.427300
     50 H10        -4.4280    3.8290    0.4720 h1        1 J1A      0.070700
     51 H10A       -3.9620    2.0820    0.5510 h1        1 J1A      0.070700
     52 H11        -2.1120    4.7450    0.4220 h1        1 J1A      0.068700
     53 H12        -1.8520    2.5840    1.5370 hc        1 J1A      0.060200
     54 H12A       -0.7770    1.9650    0.2190 hc        1 J1A      0.060200
     55 H13         0.5860    2.6400    2.1600 h1        1 J1A      0.054700
     56 H13A       -0.2210    4.2730    2.2230 h1        1 J1A      0.054700
     57 H14         0.2640    5.8770    0.3430 h1        1 J1A      0.054700
     58 H14A        1.4130    5.3350   -0.9600 h1        1 J1A      0.054700
     59 H15        -0.2290    3.6730   -1.7890 hc        1 J1A      0.060200
     60 H15A       -0.9930    5.3150   -1.6900 hc        1 J1A      0.060200
     61 H18         4.5910    0.6470    2.2400 h1        1 J1A      0.054200
     62 H18A        5.6800    2.0240    1.7490 h1        1 J1A      0.054200
     63 H22         6.7670    1.7900   -0.7100 h4        1 J1A      0.034100
     64 H27         3.6700    3.4240    1.5150 h1        1 J1A      0.039700
     65 H27A        2.6000    2.0160    1.9400 h1        1 J1A      0.039700
     66 HN28        4.3760    1.9360   -0.3950 hn        1 J1A      0.354800
     67 N3         -2.1780   -3.9910    1.4060 nh        1 J1A     -0.957500
     68 C16         2.0530    3.0560    0.0830 c3        1 J1A      0.159800
     69 HN10        8.2960   -4.9400    0.3400 hn        1 J1A      0.338500
     70 O4          6.5830   -3.8330    1.7000 o         1 J1A     -0.576500
     71 N9          9.9110   -4.1990   -1.5540 nh        1 J1A     -0.893800
     72 H16         1.4790    2.1750   -0.3270 h1        1 J1A      0.042200
     73 H16A        2.5890    3.5410   -0.7820 h1        1 J1A      0.042200
@<TRIPOS>BOND
     1    1    3 1   
     2    1    5 1   
     3    1   20 1   
     4    1   38 1   
     5    2   10 1   
     6    2   12 1   
     7    2   19 1   
     8    3   10 1   
     9    4   20 1   
    10    4   22 1   
    11    5    7 1   
    12    5    8 1   
    13    5   39 1   
    14    6   12 2   
    15    6   14 1   
    16    7   40 1   
    17    8    9 1   
    18    8   10 1   
    19    8   41 1   
    20    9   44 1   
    21   10   45 1   
    22   11   16 ar  
    23   11   17 ar  
    24   12   46 1   
    25   13   17 ar  
    26   13   19 ar  
    27   14   16 ar  
    28   14   19 ar  
    29   15   26 1   
    30   15   27 1   
    31   15   68 1   
    32   16   67 1   
    33   17   47 1   
    34   18   30 2   
    35   18   34 1   
    36   20   50 1   
    37   20   51 1   
    38   21   30 1   
    39   21   31 1   
    40   21   69 1   
    41   22   24 1   
    42   22   28 1   
    43   22   52 1   
    44   23   32 ar  
    45   23   35 ar  
    46   24   26 1   
    47   24   53 1   
    48   24   54 1   
    49   25   33 ar  
    50   25   34 ar  
    51   26   55 1   
    52   26   56 1   
    53   27   28 1   
    54   27   57 1   
    55   27   58 1   
    56   28   59 1   
    57   28   60 1   
    58   29   32 1   
    59   29   37 1   
    60   29   61 1   
    61   29   62 1   
    62   30   71 1   
    63   31   35 1   
    64   31   70 2   
    65   32   33 ar  
    66   33   63 1   
    67   34   35 ar  
    68   36   37 1   
    69   36   64 1   
    70   36   65 1   
    71   36   68 1   
    72   37   66 1   
    73   42   67 1   
    74   43   67 1   
    75   48   71 1   
    76   49   71 1   
    77   68   72 1   
    78   68   73 1   
@<TRIPOS>SUBSTRUCTURE
     1 J1A         1 TEMP              0 ****  ****    0 ROOT
