@<TRIPOS>MOLECULE
J1B
   81    86     1     0     0
SMALL
bcc


@<TRIPOS>ATOM
      1 C1          3.8350    1.6290   -0.0580 c3        1 J1B      0.098100
      2 N1          6.9210    0.5630    0.5000 na        1 J1B     -0.292000
      3 O1          5.1400    2.1010    0.3250 os        1 J1B     -0.408600
      4 S1          1.4720    1.1150    1.2440 ss        1 J1B     -0.290200
      5 C2          3.9890    0.7630   -1.3280 c3        1 J1B      0.124100
      6 N2          7.7260   -0.3850    2.4410 nc        1 J1B     -0.547100
      7 O2          3.2640    1.2900   -2.4110 oh        1 J1B     -0.575800
      8 C3          5.5080    0.6660   -1.5840 c3        1 J1B      0.083100
      9 O3          5.8050    1.3520   -2.7810 oh        1 J1B     -0.593800
     10 C4          6.1740    1.4240   -0.3890 c3        1 J1B      0.226800
     11 N4         10.1960   -1.9220    0.0210 nb        1 J1B     -0.796000
     12 C5          6.8090    0.4330    1.9060 cd        1 J1B      0.424700
     13 N5          8.5710   -0.4590   -1.1080 nb        1 J1B     -0.760000
     14 C6          8.5040   -0.8240    1.3590 ca        1 J1B     -0.228200
     15 N6         -1.3090   -1.5990   -1.1660 n3        1 J1B     -0.723600
     16 C7          9.6370   -1.7010    1.2600 ca        1 J1B      0.766200
     17 C8          9.6320   -1.2990   -1.0460 ca        1 J1B      0.690900
     18 N8         -9.2450    1.5400    0.0370 nc        1 J1B     -0.738300
     19 C9          8.0140   -0.2300    0.1210 ca        1 J1B      0.450800
     20 C10         3.2110    0.8870    1.1090 c3        1 J1B     -0.042300
     21 N10        -7.4610    2.7450    1.1530 n         1 J1B     -0.511400
     22 C11         0.7780    0.2100   -0.1270 c3        1 J1B      0.005400
     23 N11        -6.2780   -0.7110    0.4790 nf        1 J1B     -0.477300
     24 C12         0.8770   -1.2880    0.0580 c3        1 J1B     -0.104900
     25 N12        -8.9160   -0.7370   -0.5630 nh        1 J1B     -0.740000
     26 C13         0.0780   -2.0130   -1.0290 c3        1 J1B      0.166300
     27 C14        -1.4200   -0.1520   -1.2740 c3        1 J1B      0.166300
     28 C15        -0.6670    0.6560   -0.2120 c3        1 J1B     -0.104900
     29 C18        -5.8830   -3.0550   -0.1260 c3        1 J1B      0.147500
     30 C19        -8.7420    2.6640    0.5980 cd        1 J1B      0.715800
     31 C20        -6.5650    1.6400    1.1130 c         1 J1B      0.749700
     32 C21        -6.7040   -1.7740   -0.1330 c2        1 J1B      0.303300
     33 C22        -8.0430   -1.8720   -0.8840 c3        1 J1B      0.178900
     34 C23        -8.7580   -3.1800   -0.5010 c3        1 J1B     -0.111600
     35 C24        -7.7480   -1.9140   -2.3970 c3        1 J1B     -0.111600
     36 C25        -8.4090    0.4250   -0.0230 cc        1 J1B      0.443600
     37 C26        -7.0860    0.4230    0.5030 cd        1 J1B     -0.181600
     38 C27        -3.6260   -2.3720   -0.7160 c3        1 J1B      0.159800
     39 N28        -4.4990   -2.9910    0.2660 n3        1 J1B     -0.814200
     40 H1          3.2470    2.5640   -0.2830 h1        1 J1B      0.103700
     41 H2          3.5540   -0.2650   -1.1750 h1        1 J1B      0.092700
     42 HO2         3.7310    2.0710   -2.7390 ho        1 J1B      0.427000
     43 H3          5.8330   -0.4060   -1.6490 h1        1 J1B      0.085700
     44 HN3        10.9400   -2.8850    2.3260 hn        1 J1B      0.450800
     45 HN3A        9.7420   -2.0920    3.2590 hn        1 J1B      0.450800
     46 HO3         6.6830    1.0600   -3.0610 ho        1 J1B      0.433000
     47 H4          6.8660    2.2370   -0.7690 h2        1 J1B      0.103700
     48 H5          6.0260    0.9760    2.4520 h5        1 J1B      0.085800
     49 H8         10.1240   -1.5150   -2.0190 h5        1 J1B      0.051100
     50 HN9       -10.4750    3.7070    0.2880 hn        1 J1B      0.428300
     51 HN9A       -9.3860    4.4830    1.3060 hn        1 J1B      0.428300
     52 H10         3.4750   -0.1970    1.0730 h1        1 J1B      0.082700
     53 H10A        3.6190    1.3080    2.0660 h1        1 J1B      0.082700
     54 H11         1.3200    0.5030   -1.0680 h1        1 J1B      0.084700
     55 H12         1.9480   -1.6150   -0.0010 hc        1 J1B      0.056700
     56 H12A        0.4870   -1.5730    1.0700 hc        1 J1B      0.056700
     57 HN12       -9.8100   -0.7330   -0.9990 hn        1 J1B      0.445800
     58 H13         0.1190   -3.1210   -0.8360 h1        1 J1B      0.055200
     59 H13A        0.5700   -1.8180   -2.0250 h1        1 J1B      0.055200
     60 H14        -1.0170    0.1270   -2.2880 h1        1 J1B      0.055200
     61 H14A       -2.5080    0.1350   -1.2370 h1        1 J1B      0.055200
     62 H15        -1.1630    0.5290    0.7870 hc        1 J1B      0.056700
     63 H15A       -0.7180    1.7420   -0.4830 hc        1 J1B      0.056700
     64 H18        -6.3940   -3.7570    0.5980 h1        1 J1B      0.059200
     65 H18A       -5.9350   -3.5060   -1.1570 h1        1 J1B      0.059200
     66 H23        -9.7700   -3.2310   -0.9720 hc        1 J1B      0.047867
     67 H23A       -8.1600   -4.0490   -0.8650 hc        1 J1B      0.047867
     68 H23B       -8.8720   -3.2560    0.6070 hc        1 J1B      0.047867
     69 H24        -7.1470   -1.0250   -2.7040 hc        1 J1B      0.047867
     70 H24A       -7.1720   -2.8360   -2.6440 hc        1 J1B      0.047867
     71 H24B       -8.6990   -1.9280   -2.9820 hc        1 J1B      0.047867
     72 H27        -4.0230   -1.3770   -1.0690 h1        1 J1B      0.040200
     73 H27A       -3.5850   -3.0570   -1.6100 h1        1 J1B      0.040200
     74 HN28       -4.3990   -2.5420    1.1590 hn        1 J1B      0.375800
     75 N3         10.1360   -2.3110    2.3780 nh        1 J1B     -0.958500
     76 C16        -2.1950   -2.1790   -0.1640 c3        1 J1B      0.159800
     77 HN10       -7.1160    3.6030    1.5260 hn        1 J1B      0.334500
     78 O5         -5.4400    1.8320    1.6020 o         1 J1B     -0.609500
     79 N9         -9.5270    3.8320    0.5680 nh        1 J1B     -0.903800
     80 H16        -1.7960   -3.1880    0.1410 h1        1 J1B      0.040700
     81 H16A       -2.2430   -1.5400    0.7660 h1        1 J1B      0.040700
@<TRIPOS>BOND
     1    1    3 1   
     2    1    5 1   
     3    1   20 1   
     4    1   40 1   
     5    2   10 1   
     6    2   12 1   
     7    2   19 1   
     8    3   10 1   
     9    4   20 1   
    10    4   22 1   
    11    5    7 1   
    12    5    8 1   
    13    5   41 1   
    14    6   12 2   
    15    6   14 1   
    16    7   42 1   
    17    8    9 1   
    18    8   10 1   
    19    8   43 1   
    20    9   46 1   
    21   10   47 1   
    22   11   16 ar  
    23   11   17 ar  
    24   12   48 1   
    25   13   17 ar  
    26   13   19 ar  
    27   14   16 ar  
    28   14   19 ar  
    29   15   26 1   
    30   15   27 1   
    31   15   76 1   
    32   16   75 1   
    33   17   49 1   
    34   18   30 2   
    35   18   36 1   
    36   20   52 1   
    37   20   53 1   
    38   21   30 1   
    39   21   31 1   
    40   21   77 1   
    41   22   24 1   
    42   22   28 1   
    43   22   54 1   
    44   23   32 2   
    45   23   37 1   
    46   24   26 1   
    47   24   55 1   
    48   24   56 1   
    49   25   33 1   
    50   25   36 1   
    51   25   57 1   
    52   26   58 1   
    53   26   59 1   
    54   27   28 1   
    55   27   60 1   
    56   27   61 1   
    57   28   62 1   
    58   28   63 1   
    59   29   32 1   
    60   29   39 1   
    61   29   64 1   
    62   29   65 1   
    63   30   79 1   
    64   31   37 1   
    65   31   78 2   
    66   32   33 1   
    67   33   34 1   
    68   33   35 1   
    69   34   66 1   
    70   34   67 1   
    71   34   68 1   
    72   35   69 1   
    73   35   70 1   
    74   35   71 1   
    75   36   37 2   
    76   38   39 1   
    77   38   72 1   
    78   38   73 1   
    79   38   76 1   
    80   39   74 1   
    81   44   75 1   
    82   45   75 1   
    83   50   79 1   
    84   51   79 1   
    85   76   80 1   
    86   76   81 1   
@<TRIPOS>SUBSTRUCTURE
     1 J1B         1 TEMP              0 ****  ****    0 ROOT
