@<TRIPOS>MOLECULE
J1B
   83    82     1     0     0
SMALL
bcc


@<TRIPOS>ATOM
      1 C1          0.3530    1.1740   -3.9180 c3        1 J1B     -0.179000
      2 N1          0.7770   -1.5670   -0.1860 n3        1 J1B     -0.270000
      3 O1          1.7070   -1.6240   -2.3270 oh        1 J1B     -0.226000
      4 S1          2.2320    1.8450   -6.0610 ss        1 J1B      0.013000
      5 C2         -2.1520    0.8500   -1.7150 c1        1 J1B     -0.032000
      6 N2          1.6450   -1.9070    1.8750 n7        1 J1B     -0.198000
      7 O2         -2.0430   -0.3500   -2.2520 oh        1 J1B     -0.265000
      8 C3         -3.4970    1.1340   -1.1290 c3        1 J1B     -0.103000
      9 O3         -4.3620    0.0170   -0.9920 oh        1 J1B     -0.389000
     10 C4          0.6720   -1.4150   -1.5500 c1        1 J1B      0.129000
     11 N4         -1.8980   -1.1450    2.9160 n7        1 J1B     -0.213000
     12 C5          1.9530   -1.8960    0.5520 c1        1 J1B      0.037000
     13 N5         -1.5970   -1.0650    0.5300 n2        1 J1B     -0.251000
     14 C6          0.2700   -1.5930    2.0580 c2        1 J1B     -0.280000
     15 N6         -1.9000    1.0490   -7.4950 n3        1 J1B     -0.114000
     16 C7         -0.5590   -1.4650    3.1970 c2        1 J1B      0.237000
     17 C8         -2.3710   -0.9620    1.6320 c1        1 J1B     -0.044000
     18 N8         -6.3950   -5.8970   -4.9900 n2        1 J1B     -0.189000
     19 C9         -0.3020   -1.3740    0.7280 c2        1 J1B      0.186000
     20 C10         1.2270    2.0950   -4.6230 cv        1 J1B     -0.211000
     21 N10        -5.4340   -5.8810   -7.2160 ns        1 J1B     -0.335000
     22 C11         2.5680    3.6080   -5.5420 cy        1 J1B     -0.184000
     23 N11        -4.7140   -2.6080   -5.5970 n2        1 J1B     -0.083000
     24 C12         0.2360    1.3270   -8.7160 c3        1 J1B     -0.354000
     25 N12        -5.9290   -4.0930   -3.4900 nu        1 J1B     -0.240000
     26 C13        -1.0200    1.8260   -8.2230 c1        1 J1B      0.082000
     27 C14        -2.9820    1.4900   -6.8480 cv        1 J1B      0.202000
     28 C15         1.6040    3.3790   -4.4170 cv        1 J1B     -0.174000
     29 C18        -4.5500   -0.5710   -4.2510 c3        1 J1B     -0.021000
     30 C19        -6.1760   -6.4260   -6.1850 c2        1 J1B      0.131000
     31 C20        -4.8530   -4.5730   -7.0460 c2        1 J1B      0.392000
     32 C21        -4.8510   -2.0520   -4.4310 c2        1 J1B     -0.094000
     33 C22        -5.3210   -2.7810   -3.1610 c3        1 J1B      0.008000
     34 C23        -6.3230   -2.0250   -2.3690 c1        1 J1B     -0.031000
     35 C24        -4.0750   -2.9990   -2.2680 c3        1 J1B     -0.235000
     36 C25        -5.8110   -4.6330   -4.7340 c2        1 J1B      0.197000
     37 C26        -5.1120   -3.9350   -5.7600 c2        1 J1B     -0.252000
     38 C27        -3.3690    0.0640   -6.3210 cy        1 J1B     -0.002000
     39 N28        -3.3930   -0.0400   -4.9130 n7        1 J1B     -0.321000
     40 H1          2.5580   -1.8820   -1.9140 ho        1 J1B      0.239000
     41 H2         -0.3940    0.7160   -4.6180 hc        1 J1B      0.099000
     42 HO2        -1.0850   -0.5140   -2.4240 ho        1 J1B      0.284000
     43 H3         -4.0420    1.8620   -1.7910 h1        1 J1B      0.125000
     44 HN3         0.8730   -1.8240    4.6160 hn        1 J1B      0.252000
     45 HN3A       -0.6740   -1.5230    5.2600 hn        1 J1B      0.252000
     46 HO3        -4.0600   -0.4790   -0.2160 ho        1 J1B      0.242000
     47 H4         -3.3170    1.6190   -0.1290 h1        1 J1B      0.125000
     48 H5          2.2760   -2.1030    2.6100 hn        1 J1B      0.274000
     49 H8         -2.5490   -1.0360    3.6650 hn        1 J1B      0.268000
     50 H10        -0.2110    1.6880   -3.0930 hc        1 J1B      0.099000
     51 H10A        0.9470    0.3360   -3.4610 hc        1 J1B      0.099000
     52 H11         3.6220    3.7610   -5.2330 h1        1 J1B      0.147500
     53 H12         0.3550    0.2220   -8.8410 hc        1 J1B      0.171667
     54 H12A        2.2510    4.3510   -6.2980 h1        1 J1B      0.147500
     55 H13         1.0200    1.6770   -7.9360 hc        1 J1B      0.171667
     56 H13A        0.4950    1.8520   -9.6750 hc        1 J1B      0.171667
     57 H14        -0.6950   -1.6130   -4.4040 ha        1 J1B      0.006167
     58 H14A       -3.3920    2.5090   -6.7630 h4        1 J1B      0.244000
     59 H15         1.3340    4.1010   -3.6500 ha        1 J1B      0.178000
     60 H15A       -0.2050   -1.7400   -3.9500 ha        1 J1B      0.006167
     61 H18        -5.4650   -0.0010   -4.5870 h1        1 J1B      0.146000
     62 H18A       -4.3440    4.8710   -6.6700 ha        1 J1B      0.006167
     63 H23        -5.5590   -2.2270   -0.2640 ha        1 J1B      0.006167
     64 H23A       -6.0210   -1.7610   -0.0770 ha        1 J1B      0.006167
     65 H23B       -6.1540   -0.9500   -2.2200 ha        1 J1B      0.113000
     66 H24        -3.2780   -3.5240   -2.8470 hc        1 J1B      0.118667
     67 H24A       -4.3330   -3.6150   -1.3730 hc        1 J1B      0.118667
     68 H24B       -3.6800   -2.0070   -1.9270 hc        1 J1B      0.118667
     69 H27        -4.3150   -0.2850   -6.8190 h1        1 J1B      0.179000
     70 H27A       -4.4670    4.2180   -6.5350 ha        1 J1B      0.006167
     71 HN28       -4.3770   -0.3680   -3.1450 h1        1 J1B      0.146000
     72 N3         -0.0920   -1.6570    4.4690 n8        1 J1B     -0.371000
     73 HN10       -5.2900   -6.3430   -8.0910 hn        1 J1B      0.270000
     74 O5         -4.2050   -4.1490   -8.0060 o         1 J1B     -0.274000
     75 N9         -6.8240   -7.7670   -6.4160 nz        1 J1B     -0.044000
     76 H282       -2.5270   -0.3460   -4.5070 hn        1 J1B      0.224000
     77 H91        -7.4800   -7.7010   -7.2050 hn        1 J1B      0.284000
     78 C16        -2.0600   -0.3860   -7.1010 cy        1 J1B     -0.150000
     79 HN12       -6.6060   -4.4290   -2.8330 hn        1 J1B      0.281000
     80 H16        -1.2220   -0.7620   -6.4650 h1        1 J1B      0.159500
     81 HN9        -6.1010   -8.4680   -6.6180 hn        1 J1B      0.284000
     82 HN9A       -7.3440   -8.0530   -5.5700 hn        1 J1B      0.284000
     83 H16A       -2.2440   -1.0660   -7.9660 h1        1 J1B      0.159500
@<TRIPOS>BOND
     1    1   20 1   
     2    1   41 1   
     3    1   50 1   
     4    1   51 1   
     5    2   10 1   
     6    2   12 1   
     7    2   19 1   
     8    3   10 1   
     9    3   40 1   
    10    4   20 1   
    11    4   22 1   
    12    5    7 1   
    13    5    8 1   
    14    6   12 1   
    15    6   14 1   
    16    6   48 1   
    17    7   42 1   
    18    8    9 1   
    19    8   43 1   
    20    8   47 1   
    21    9   46 1   
    22   11   16 1   
    23   11   17 1   
    24   11   49 1   
    25   13   17 1   
    26   13   19 1   
    27   14   16 1   
    28   14   19 1   
    29   15   26 1   
    30   15   27 1   
    31   15   78 1   
    32   16   72 1   
    33   18   30 1   
    34   18   36 1   
    35   20   28 1   
    36   21   30 1   
    37   21   31 1   
    38   21   73 1   
    39   22   28 1   
    40   22   52 1   
    41   22   54 1   
    42   23   32 1   
    43   23   37 1   
    44   24   26 1   
    45   24   53 1   
    46   24   55 1   
    47   24   56 1   
    48   25   33 1   
    49   25   36 1   
    50   25   79 1   
    51   27   38 1   
    52   27   58 1   
    53   28   59 1   
    54   29   32 1   
    55   29   39 1   
    56   29   61 1   
    57   29   71 1   
    58   30   75 1   
    59   31   37 1   
    60   31   74 1   
    61   32   33 1   
    62   33   34 1   
    63   33   35 1   
    64   34   65 1   
    65   35   66 1   
    66   35   67 1   
    67   35   68 1   
    68   36   37 1   
    69   38   39 1   
    70   38   69 1   
    71   38   78 1   
    72   39   76 1   
    73   44   72 1   
    74   45   72 1   
    75   57   60 1   
    76   62   70 1   
    77   63   64 1   
    78   75   77 1   
    79   75   81 1   
    80   75   82 1   
    81   78   80 1   
    82   78   83 1   
@<TRIPOS>SUBSTRUCTURE
     1 J1B         1 TEMP              0 ****  ****    0 ROOT
