@<TRIPOS>MOLECULE
J1B
   84    86     1     0     0
SMALL
bcc


@<TRIPOS>ATOM
      1 C1          1.1480    0.5680    0.2990 c3        1 J1B     -0.185000
      2 N1          5.0530    0.4830    2.0710 n         1 J1B     -0.270000
      3 O1          3.4940   -1.0570    1.4110 o         1 J1B     -0.233000
      4 S1         -0.2300    0.1120   -1.9220 ss        1 J1B      0.115000
      5 C2          1.1960    0.5170    1.8200 c3        1 J1B      0.010000
      6 N2          7.2740    0.5720    1.6230 n3        1 J1B     -0.250000
      7 O2          0.8500   -0.7490    2.3420 oh        1 J1B     -0.322000
      8 C3          2.5600    0.9520    2.4030 c3        1 J1B     -0.012000
      9 O3          2.5100    0.9230    3.8120 oh        1 J1B     -0.337000
     10 C4          3.7040    0.0390    1.9310 c2        1 J1B      0.307000
     11 N4          7.3510    2.7590    4.7180 n2        1 J1B     -0.196000
     12 C5          6.0790    0.0440    1.1890 c1        1 J1B      0.180000
     13 N5          5.1520    1.9740    4.1600 n3        1 J1B     -0.143000
     14 C6          7.0700    1.3510    2.7810 c2        1 J1B     -0.190000
     15 N6         -4.4050   -0.9270   -4.1230 n3        1 J1B     -0.107000
     16 C7          7.8730    2.1030    3.6660 c2        1 J1B      0.053000
     17 C8          6.0170    2.7000    4.9670 c1        1 J1B      0.090000
     18 N8         -8.5940   -6.2660   -8.9050 n2        1 J1B     -0.188000
     19 C9          5.6280    1.2990    3.0720 c2        1 J1B      0.126000
     20 C10        -0.2740    0.3800   -0.1730 c3        1 J1B     -0.281000
     21 N10        -8.0790   -6.7650   -6.5890 n         1 J1B     -0.331000
     22 C11        -1.9170    0.2730   -2.4020 c3        1 J1B     -0.301000
     23 N11        -6.8640   -3.3280   -7.3500 n2        1 J1B     -0.072000
     24 C12        -3.7950    1.3030   -5.2430 c3        1 J1B     -0.237000
     25 N12        -8.1500   -4.0870   -9.7740 nh        1 J1B     -0.239000
     26 C13        -4.2600   -0.0700   -5.1250 cv        1 J1B      0.147000
     27 C14        -4.1460   -0.8830   -2.7060 c3        1 J1B     -0.072000
     28 C15        -2.6810   -1.0220   -2.2870 c3        1 J1B     -0.177000
     29 C18        -6.1810   -1.1460   -8.2210 c3        1 J1B     -0.017000
     30 C19        -8.5720   -7.0640   -7.8460 c2        1 J1B      0.144000
     31 C20        -7.4910   -5.4720   -6.3560 c2        1 J1B      0.396000
     32 C21        -6.9170   -2.4740   -8.3290 c2        1 J1B     -0.115000
     33 C22        -7.6770   -2.6910   -9.6460 c3        1 J1B      0.005000
     34 C23        -6.8850   -2.3710  -10.8580 c1        1 J1B      0.002000
     35 C24        -8.8990   -1.7320   -9.6810 c3        1 J1B     -0.234000
     36 C25        -8.0750   -4.9610   -8.7350 c2        1 J1B      0.214000
     37 C26        -7.4890   -4.5640   -7.4980 c2        1 J1B     -0.265000
     38 C27        -4.8100   -1.0960   -6.1860 cy        1 J1B      0.005000
     39 N28        -5.9450   -0.6320   -6.8960 n3        1 J1B     -0.296000
     40 H1          1.5440    1.5570   -0.0520 hc        1 J1B      0.117500
     41 H2          1.8050   -0.2390   -0.1270 hc        1 J1B      0.117500
     42 HO2         1.3500   -1.4260    1.8620 ho        1 J1B      0.231000
     43 H3          0.4200    1.2140    2.2590 h1        1 J1B      0.147000
     44 HN3         9.7390    1.2350    3.5040 hn        1 J1B      0.274667
     45 HN3A        9.7730    2.7710    4.1750 hn        1 J1B      0.274667
     46 HO3         1.9640    0.1660    4.0890 ho        1 J1B      0.261000
     47 H4          2.7760    2.0220    2.1230 h1        1 J1B      0.144000
     48 H5          8.1480    0.4180    1.1860 hn        1 J1B      0.278000
     49 H8          4.1780    1.9480    4.4200 hn        1 J1B      0.316000
     50 H10        -0.7320   -0.4990    0.3460 h1        1 J1B      0.114000
     51 H10A       -0.8900    1.2800    0.0720 h1        1 J1B      0.114000
     52 H11        -2.4220    1.0740   -1.8060 h1        1 J1B      0.111000
     53 H12        -4.5090    1.8790   -5.8940 hc        1 J1B      0.157333
     54 H12A       -1.8820    0.6100   -3.4700 h1        1 J1B      0.111000
     55 H13        -2.7880    1.3170   -5.7470 hc        1 J1B      0.157333
     56 H13A       -3.7040    1.8180   -4.2510 hc        1 J1B      0.157333
     57 H14        -4.7370   -1.7310   -2.2480 h1        1 J1B      0.139500
     58 H14A       -4.5550    0.0930   -2.3090 h1        1 J1B      0.139500
     59 H15        -2.1670   -1.8280   -2.8760 hc        1 J1B      0.126000
     60 H15A       -2.6880   -1.3560   -1.2120 hc        1 J1B      0.126000
     61 H18        -4.5970    0.4220  -11.0090 ha        1 J1B      0.001250
     62 H18A       -5.1990   -1.2530   -8.7700 h1        1 J1B      0.132000
     63 H23        -7.0520    0.8200  -10.5950 ha        1 J1B      0.001250
     64 H23A       -7.4930    1.3320  -10.6530 ha        1 J1B      0.001250
     65 H23B       -6.3350   -1.4190  -10.8570 ha        1 J1B      0.089000
     66 H24        -9.4880   -1.8350   -8.7390 hc        1 J1B      0.117000
     67 H24A       -9.5650   -1.9700  -10.5470 hc        1 J1B      0.117000
     68 H24B       -8.5510   -0.6760   -9.7830 hc        1 J1B      0.117000
     69 H27        -3.9940   -1.4410   -6.8760 h1        1 J1B      0.167000
     70 H27A       -4.8410    0.1650  -10.4310 ha        1 J1B      0.001250
     71 HN28       -6.7950   -0.3560   -8.7530 h1        1 J1B      0.132000
     72 N3          9.3370    2.1780    3.4480 n4        1 J1B     -0.033000
     73 HN10       -8.1040   -7.4090   -5.8240 hn        1 J1B      0.275000
     74 O5         -7.0510   -5.2770   -5.2200 o         1 J1B     -0.281000
     75 N9         -9.1520   -8.4360   -8.0700 n4        1 J1B     -0.044000
     76 H282       -6.7780   -0.6100   -6.3380 hn        1 J1B      0.207000
     77 H33         9.5270    2.5860    2.5270 hn        1 J1B      0.274667
     78 H91        -9.9560   -8.5780   -7.4440 hn        1 J1B      0.288667
     79 C16        -4.9660   -2.0480   -4.9240 cy        1 J1B     -0.097000
     80 HN12       -8.3570   -4.3890  -10.7070 hn        1 J1B      0.290000
     81 H16        -6.0110   -2.3170   -4.6350 h1        1 J1B      0.164000
     82 HN9        -8.4350   -9.1500   -7.8880 hn        1 J1B      0.288667
     83 HN9A       -9.4720   -8.5240   -9.0510 hn        1 J1B      0.288667
     84 H16A       -4.3120   -2.9530   -4.9270 h1        1 J1B      0.164000
@<TRIPOS>BOND
     1    1    5 1   
     2    1   20 1   
     3    1   40 1   
     4    1   41 1   
     5    2   10 1   
     6    2   12 1   
     7    2   19 1   
     8    3   10 1   
     9    4   20 1   
    10    4   22 1   
    11    5    7 1   
    12    5    8 1   
    13    5   43 1   
    14    6   12 1   
    15    6   14 1   
    16    6   48 1   
    17    7   42 1   
    18    8    9 1   
    19    8   10 1   
    20    8   47 1   
    21    9   46 1   
    22   11   16 1   
    23   11   17 1   
    24   13   17 1   
    25   13   19 1   
    26   13   49 1   
    27   14   16 1   
    28   14   19 1   
    29   15   26 1   
    30   15   27 1   
    31   15   79 1   
    32   16   72 1   
    33   18   30 1   
    34   18   36 1   
    35   20   50 1   
    36   20   51 1   
    37   21   30 1   
    38   21   31 1   
    39   21   73 1   
    40   22   28 1   
    41   22   52 1   
    42   22   54 1   
    43   23   32 1   
    44   23   37 1   
    45   24   26 1   
    46   24   53 1   
    47   24   55 1   
    48   24   56 1   
    49   25   33 1   
    50   25   36 1   
    51   25   80 1   
    52   26   38 1   
    53   27   28 1   
    54   27   57 1   
    55   27   58 1   
    56   28   59 1   
    57   28   60 1   
    58   29   32 1   
    59   29   39 1   
    60   29   62 1   
    61   29   71 1   
    62   30   75 1   
    63   31   37 1   
    64   31   74 1   
    65   32   33 1   
    66   33   34 1   
    67   33   35 1   
    68   34   65 1   
    69   35   66 1   
    70   35   67 1   
    71   35   68 1   
    72   36   37 1   
    73   38   39 1   
    74   38   69 1   
    75   38   79 1   
    76   39   76 1   
    77   44   72 1   
    78   45   72 1   
    79   61   70 1   
    80   63   64 1   
    81   72   77 1   
    82   75   78 1   
    83   75   82 1   
    84   75   83 1   
    85   79   81 1   
    86   79   84 1   
@<TRIPOS>SUBSTRUCTURE
     1 J1B         1 TEMP              0 ****  ****    0 ROOT
