@<TRIPOS>MOLECULE
J1C
   83    85     1     0     0
SMALL
bcc


@<TRIPOS>ATOM
      1 C1        255.6760  175.3070  312.8080 c2        1 J1C     -0.205400
      2 N1        258.1690  175.6980  314.9160 na        1 J1C     -0.185900
      3 O1        256.8290  177.5810  314.6030 oh        1 J1C     -0.583800
      4 S1        253.7590  176.5910  314.0640 ss        1 J1C     -0.218700
      5 C2        255.0820  174.6560  311.5890 c3        1 J1C      0.164600
      6 N2        259.0790  174.8980  316.9120 nc        1 J1C     -0.628000
      7 O2        255.4800  175.2790  310.3860 oh        1 J1C     -0.598800
      8 C3        256.8890  175.9040  312.7830 c2        1 J1C      0.056900
      9 O3        257.7150  175.9950  311.6940 oh        1 J1C     -0.496100
     10 C4        257.5890  176.6400  313.9120 c3        1 J1C      0.301000
     11 N4        260.0340  171.9700  314.7700 n3        1 J1C     -0.263400
     12 C5        258.3740  175.9390  316.2270 cd        1 J1C      0.639400
     13 N5        258.7430  173.6470  313.5790 nf        1 J1C     -0.378800
     14 C6        259.3540  173.9890  315.9910 cc        1 J1C      0.392600
     15 N6       -238.8680 -163.1340 -299.0610 n2        1 J1C     -0.692900
     16 C7        260.1070  172.6680  316.0840 c3        1 J1C      0.179900
     17 C8        259.4810  172.4210  313.6550 c1        1 J1C      0.306400
     18 N8       -247.1050 -164.9630 -299.6730 nc        1 J1C     -0.636300
     19 C9        258.7580  174.3990  314.6310 cd        1 J1C      0.029800
     20 C10       254.8420  175.1820  314.0220 c3        1 J1C      0.001900
     21 N10      -246.6870 -163.3520 -297.9120 n         1 J1C     -0.491400
     22 C11       252.8310  176.2890  315.4500 c2        1 J1C     -0.147400
     23 N11      -243.4940 -165.1040 -298.6850 nf        1 J1C     -0.451300
     24 C12      -236.8030 -161.8570 -298.3880 c3        1 J1C     -0.218400
     25 N12      -245.3110 -166.2990 -300.5110 nh        1 J1C     -0.703000
     26 C13      -238.1110 -162.0960 -299.0490 c2        1 J1C      0.516200
     27 C14       251.2290  177.0160  317.1980 c3        1 J1C     -0.076900
     28 C15       252.1170  177.2510  316.0440 c2        1 J1C     -0.094200
     29 C18      -241.6100 -166.4820 -299.3870 c3        1 J1C      0.195500
     30 C19      -247.4820 -164.0180 -298.8210 cd        1 J1C      0.609800
     31 C20      -245.2830 -163.6800 -297.8260 c         1 J1C      0.752700
     32 C21      -243.0650 -166.0240 -299.4980 c2        1 J1C      0.277300
     33 C22      -243.9090 -166.7660 -300.5450 c3        1 J1C      0.193900
     34 C23      -243.8640 -168.2750 -300.2500 c3        1 J1C     -0.127600
     35 C24      -243.3220 -166.5150 -301.9450 c3        1 J1C     -0.127600
     36 C25      -245.7410 -165.3390 -299.6490 cc        1 J1C      0.453600
     37 C26      -244.8280 -164.7270 -298.7410 cd        1 J1C     -0.149600
     38 C27      -239.5500 -165.4340 -298.5470 c2        1 J1C      0.412200
     39 N28      -240.6710 -165.3380 -299.2080 nh        1 J1C     -0.241100
     40 H1        255.8670  177.4090  314.4950 ho        1 J1C      0.471000
     41 H2        253.9610  174.6380  311.6730 h1        1 J1C      0.079700
     42 HO2       254.9940  176.1100  310.3040 ho        1 J1C      0.424000
     43 H3        255.4680  173.6010  311.5020 h1        1 J1C      0.079700
     44 HN3       260.1270  172.1830  318.0660 hn        1 J1C      0.411300
     45 HN3A      261.2100  172.9630  316.2090 h2        1 J1C      0.139700
     46 HO3       257.4030  175.4100  310.9790 ho        1 J1C      0.479000
     47 H4        258.4900  177.2090  313.4930 h2        1 J1C      0.153700
     48 H5        258.0380  176.8610  316.7520 h5        1 J1C      0.136100
     49 H8        260.4890  171.0730  314.7440 hn        1 J1C      0.352700
     50 H10       255.4540  175.1450  314.9550 h1        1 J1C      0.070200
     51 H10A      254.2450  174.2330  313.9880 h1        1 J1C      0.070200
     52 H11       252.7930  175.2500  315.8100 h4        1 J1C      0.144000
     53 H12      -236.0360 -161.6040 -299.1640 hc        1 J1C      0.080033
     54 H12A     -236.4400 -162.7370 -297.8030 hc        1 J1C      0.080033
     55 H13      -236.8930 -160.9810 -297.6950 hc        1 J1C      0.080033
     56 H13A     -238.5060 -161.2330 -299.6360 h4        1 J1C      0.044800
     57 H14       250.1710  177.2480  316.9130 hc        1 J1C      0.057700
     58 H14A      251.5160  177.6910  318.0440 hc        1 J1C      0.057700
     59 H15       252.1480  178.2930  315.6790 ha        1 J1C      0.137000
     60 H15A      251.2720  175.9580  317.5560 hc        1 J1C      0.057700
     61 H23      -244.3250 -168.5090 -299.2600 hc        1 J1C      0.070867
     62 H23A     -244.4040 -168.8440 -301.0450 hc        1 J1C      0.070867
     63 H23B     -242.8010 -168.6210 -300.2300 hc        1 J1C      0.070867
     64 H24      -243.1440 -165.4270 -302.1160 hc        1 J1C      0.070867
     65 H24A     -242.3590 -167.0680 -302.0560 hc        1 J1C      0.070867
     66 H24B     -244.0150 -166.8920 -302.7390 hc        1 J1C      0.070867
     67 H27      -239.2980 -166.4130 -298.0650 h4        1 J1C      0.080800
     68 H27A     -241.9780 -167.1920 -297.5930 ho        1 J1C      0.452000
     69 HN28     -241.2810 -167.0150 -300.3370 h2        1 J1C      0.141700
     70 N3        259.7510  171.8440  317.2050 n3        1 J1C     -0.926800
     71 HN10     -247.0320 -162.6440 -297.2940 hn        1 J1C      0.366500
     72 O4       -241.4280 -167.4200 -298.3590 oh        1 J1C     -0.565800
     73 O5       -244.6350 -163.0420 -296.9990 o         1 J1C     -0.503500
     74 N9       -248.9450 -163.6560 -298.8780 n4        1 J1C     -0.813600
     75 H282     -240.9500 -164.4690 -299.6420 hn        1 J1C      0.349700
     76 H33       258.7820  171.6190  317.2690 hn        1 J1C      0.411300
     77 H91      -249.0460 -162.6610 -299.1180 hn        1 J1C      0.494800
     78 C16      -238.5280 -164.3440 -298.3660 c3        1 J1C      0.008500
     79 HN12     -245.9400 -166.7530 -301.1410 hn        1 J1C      0.484800
     80 H16      -238.4390 -164.1870 -297.2450 h1        1 J1C      0.116700
     81 HN9      -249.3820 -163.8430 -297.9650 hn        1 J1C      0.494800
     82 HN9A     -249.4190 -164.2260 -299.6000 hn        1 J1C      0.494800
     83 H16A     -237.5410 -164.7820 -298.7170 h1        1 J1C      0.116700
@<TRIPOS>BOND
     1    1    5 1   
     2    1    8 2   
     3    1   20 1   
     4    2   10 1   
     5    2   12 1   
     6    2   19 1   
     7    3   10 1   
     8    3   40 1   
     9    4   20 1   
    10    4   22 1   
    11    5    7 1   
    12    5   41 1   
    13    5   43 1   
    14    6   12 2   
    15    6   14 1   
    16    7   42 1   
    17    8    9 1   
    18    8   10 1   
    19    9   46 1   
    20   10   47 1   
    21   11   16 1   
    22   11   17 2   
    23   11   49 1   
    24   12   48 1   
    25   13   17 2   
    26   13   19 1   
    27   14   16 1   
    28   14   19 2   
    29   15   26 2   
    30   15   78 1   
    31   16   45 1   
    32   16   70 1   
    33   18   30 2   
    34   18   36 1   
    35   20   50 1   
    36   20   51 1   
    37   21   30 1   
    38   21   31 1   
    39   21   71 1   
    40   22   28 2   
    41   22   52 1   
    42   23   32 2   
    43   23   37 1   
    44   24   26 1   
    45   24   53 1   
    46   24   54 1   
    47   24   55 1   
    48   25   33 1   
    49   25   36 1   
    50   25   79 1   
    51   26   56 1   
    52   27   28 1   
    53   27   57 1   
    54   27   58 1   
    55   27   60 1   
    56   28   59 1   
    57   29   32 1   
    58   29   39 1   
    59   29   69 1   
    60   29   72 1   
    61   30   74 1   
    62   31   37 1   
    63   31   73 2   
    64   32   33 1   
    65   33   34 1   
    66   33   35 1   
    67   34   61 1   
    68   34   62 1   
    69   34   63 1   
    70   35   64 1   
    71   35   65 1   
    72   35   66 1   
    73   36   37 2   
    74   38   39 2   
    75   38   67 1   
    76   38   78 1   
    77   39   75 1   
    78   44   70 1   
    79   68   72 1   
    80   70   76 1   
    81   74   77 1   
    82   74   81 1   
    83   74   82 1   
    84   78   80 1   
    85   78   83 1   
@<TRIPOS>SUBSTRUCTURE
     1 J1C         1 TEMP              0 ****  ****    0 ROOT
