@<TRIPOS>MOLECULE
J1C
   80    77     1     0     0
SMALL
bcc


@<TRIPOS>ATOM
      1 C1         -0.0530   -0.7400    5.4540 c3        1 J1C     -0.009000
      2 N1         -0.3710    1.1430    7.7270 n2        1 J1C     -0.213000
      3 O1          0.9270   -0.0760    6.3660 os        1 J1C     -0.269000
      4 S1          0.1760    0.2060    2.9830 ss        1 J1C      0.069000
      5 C2         -1.1470   -1.4060    6.3990 c3        1 J1C     -0.026000
      6 N2         -1.7150    2.7430    8.3890 n2        1 J1C     -0.119000
      7 O2         -1.3780   -2.8480    5.9900 oh        1 J1C     -0.315000
      8 C3         -0.6630   -1.3560    7.5280 c3        1 J1C     -0.031000
      9 N3         -0.6600    5.0940   10.4010 n3        1 J1C     -0.355000
     10 O3          0.0860   -2.6160    7.8230 oh        1 J1C     -0.315000
     11 C4          0.3600   -0.0810    7.5230 c2        1 J1C      0.168000
     12 N4          1.1930    3.8730   10.3210 n1        1 J1C     -0.269000
     13 O4          1.8910    0.9950   -4.9700 o         1 J1C     -0.377000
     14 C5         -1.6240    1.6200    7.6200 c1        1 J1C     -0.037000
     15 N5          1.6020    1.9310    9.0370 n1        1 J1C     -0.217000
     16 O5         -2.9890   -1.7080   -8.4270 o         1 J1C     -0.331000
     17 C6         -0.5080    2.9530    8.9690 c1        1 J1C     -0.241000
     18 N6          0.5220    0.3270   -0.7700 n3        1 J1C     -0.243000
     19 C7         -0.0620    3.9160    9.8610 c1        1 J1C      0.241000
     20 C8          2.0380    2.8790    9.9130 c1        1 J1C      0.024000
     21 N8          0.6560   -2.9000   -9.9150 n1        1 J1C     -0.317000
     22 C9          0.3260    1.9720    8.5670 c1        1 J1C      0.067000
     23 N9         -0.5500   -4.5270  -11.3790 n3        1 J1C     -0.349000
     24 C10        -0.6580    0.2220    4.5940 c3        1 J1C     -0.303000
     25 N10        -1.8920   -2.9620   -9.9720 n         1 J1C     -0.353000
     26 C11        -1.0510    0.4890    1.6620 c3        1 J1C     -0.200000
     27 N11        -0.6740   -0.5660   -7.1250 n1        1 J1C     -0.017000
     28 C12        -0.6670    1.7260    0.8940 c3        1 J1C     -0.187500
     29 N12         1.7430   -1.5850   -8.1390 n3        1 J1C     -0.289000
     30 C13         0.5810    1.5340    0.0880 c3        1 J1C     -0.075000
     31 C14         0.1450   -0.9070   -0.0140 c3        1 J1C     -0.075000
     32 C15        -1.1100   -0.7230    0.7930 c3        1 J1C     -0.187500
     33 C16        -0.4240    0.5430   -1.8550 c3        1 J1C     -0.103000
     34 C18         0.8320    0.4850   -5.2830 c1        1 J1C      0.359000
     35 C19        -0.5950   -3.4480  -10.4660 c2        1 J1C      0.286000
     36 C20        -1.9420   -2.0280   -8.8870 c2        1 J1C      0.392000
     37 C21         0.6090   -0.0030   -6.7350 c1        1 J1C     -0.145000
     38 C22         1.7740   -0.2960   -7.6060 c3        1 J1C      0.115000
     39 C23         1.9310    0.7830   -8.7220 c3        1 J1C     -0.236000
     40 C24         3.0560   -0.0880   -6.8420 c3        1 J1C     -0.236000
     41 C25         0.6140   -1.9860   -8.8120 c1        1 J1C      0.241000
     42 C26        -0.6890   -1.5500   -8.2660 c1        1 J1C     -0.323000
     43 C27        -0.0380   -0.3560   -3.0670 c3        1 J1C     -0.038000
     44 N28        -0.2470    0.3810   -4.3020 n3        1 J1C     -0.348000
     45 H1          0.3850   -1.4140    4.9380 h1        1 J1C      0.145000
     46 H2         -1.9880   -0.8970    6.3630 h1        1 J1C      0.135000
     47 HO2        -2.1520   -2.9230    5.6440 ho        1 J1C      0.221000
     48 H3         -1.3510   -1.2210    8.1750 h1        1 J1C      0.132000
     49 HN3        -1.5480    5.0950   10.6200 hn        1 J1C      0.243500
     50 HN3A       -0.1440    5.8420   10.5620 hn        1 J1C      0.243500
     51 HO3        -0.2620   -3.0100    8.5650 ho        1 J1C      0.223000
     52 H4          1.0160   -0.1860    8.2050 h4        1 J1C      0.158000
     53 H5         -2.3500    1.1930    7.1680 DU        1 J1C      0.214000
     54 H8          2.9340    2.8490   10.2430 ha        1 J1C      0.189000
     55 HN9        -0.0370   -4.4560  -12.1620 hn        1 J1C      0.230500
     56 HN9A       -0.9530   -5.3140  -11.1700 hn        1 J1C      0.230500
     57 H10        -0.5800    1.0880    4.9800 h1        1 J1C      0.124000
     58 H10A       -1.6010    0.0030    4.4740 h1        1 J1C      0.124000
     59 HN10       -2.6770   -3.3070  -10.3190 hn        1 J1C      0.249000
     60 H11        -1.9660    0.6370    2.0890 h1        1 J1C      0.099000
     61 H12        -1.3810    1.9580    0.3060 hc        1 J1C      0.099250
     62 H12A       -0.5220    2.4710    1.5360 hc        1 J1C      0.099250
     63 HN12        2.5200   -2.0730   -8.2120 hn        1 J1C      0.246000
     64 H13         0.7130    2.3210   -0.4810 h1        1 J1C      0.099750
     65 H13A        1.3200    1.4550    0.6820 h1        1 J1C      0.099750
     66 H14         0.0120   -1.6400   -0.6470 h1        1 J1C      0.099750
     67 H14A        0.8740   -1.1410    0.5870 h1        1 J1C      0.099750
     68 H15        -1.2390   -1.5080    1.3540 hc        1 J1C      0.099250
     69 H15A       -1.8620   -0.6420    0.1900 hc        1 J1C      0.099250
     70 H16        -0.4020    1.5080   -2.1320 h1        1 J1C      0.079000
     71 H16A       -1.2960    0.3200   -1.5630 h1        1 J1C      0.079000
     72 H23         2.0570    1.6900   -8.2960 hc        1 J1C      0.095833
     73 H23A        1.1530    0.7930   -9.2650 hc        1 J1C      0.095833
     74 H23B        2.7180    0.5700   -9.2780 hc        1 J1C      0.095833
     75 H24         3.1500    0.8520   -6.6230 hc        1 J1C      0.095833
     76 H24A        3.0360   -0.6390   -5.9810 hc        1 J1C      0.095833
     77 H24B        3.8170   -0.3720   -7.3960 hc        1 J1C      0.095833
     78 H27         0.9100   -0.6160   -2.9950 h1        1 J1C      0.108000
     79 H27A       -0.6170   -1.1880   -3.0680 h1        1 J1C      0.108000
     80 HN28       -1.0400    0.8400   -4.4380 hn        1 J1C      0.234000
@<TRIPOS>BOND
     1    1    3 1   
     2    1    5 1   
     3    1   24 1   
     4    1   45 1   
     5    2   14 1   
     6    2   22 1   
     7    3   11 1   
     8    4   24 1   
     9    4   26 1   
    10    5    7 1   
    11    5    8 1   
    12    5   46 1   
    13    6   14 1   
    14    6   17 1   
    15    7   47 1   
    16    8   10 1   
    17    8   11 1   
    18    8   48 1   
    19    9   19 1   
    20    9   49 1   
    21    9   50 1   
    22   10   51 1   
    23   11   52 1   
    24   12   20 1   
    25   13   34 1   
    26   15   22 1   
    27   16   36 1   
    28   17   19 1   
    29   18   30 1   
    30   18   31 1   
    31   18   33 1   
    32   20   54 1   
    33   21   35 1   
    34   23   35 1   
    35   23   55 1   
    36   23   56 1   
    37   24   57 1   
    38   24   58 1   
    39   25   35 1   
    40   25   36 1   
    41   25   59 1   
    42   26   28 1   
    43   26   32 1   
    44   26   60 1   
    45   27   37 1   
    46   28   30 1   
    47   28   61 1   
    48   28   62 1   
    49   29   38 1   
    50   29   41 1   
    51   29   63 1   
    52   30   64 1   
    53   30   65 1   
    54   31   32 1   
    55   31   66 1   
    56   31   67 1   
    57   32   68 1   
    58   32   69 1   
    59   33   43 1   
    60   33   70 1   
    61   33   71 1   
    62   34   44 1   
    63   36   42 1   
    64   37   38 1   
    65   38   39 1   
    66   38   40 1   
    67   39   72 1   
    68   39   73 1   
    69   39   74 1   
    70   40   75 1   
    71   40   76 1   
    72   40   77 1   
    73   41   42 1   
    74   43   44 1   
    75   43   78 1   
    76   43   79 1   
    77   44   80 1   
@<TRIPOS>SUBSTRUCTURE
     1 J1C         1 TEMP              0 ****  ****    0 ROOT
