@<TRIPOS>MOLECULE
J1C
   80    85     1     0     0
SMALL
bcc


@<TRIPOS>ATOM
      1 C1         -3.9810    1.1160    1.5010 c3        1 J1C      0.109100
      2 N1         -6.9190    0.5340    0.1610 na        1 J1C     -0.293000
      3 O1         -4.9540    1.7480    0.6530 os        1 J1C     -0.398600
      4 S1         -2.1500    0.4070   -0.3180 ss        1 J1C     -0.296200
      5 C2         -4.6830    0.7620    2.8340 c3        1 J1C      0.130100
      6 N2         -7.3330   -0.6840   -1.7520 nc        1 J1C     -0.549100
      7 O2         -4.2250    1.5690    3.8890 oh        1 J1C     -0.571800
      8 C3         -6.1940    0.9080    2.5480 c3        1 J1C      0.082100
      9 O3         -6.7250    1.8770    3.4250 oh        1 J1C     -0.591800
     10 C4         -6.2830    1.4490    1.0820 c3        1 J1C      0.221800
     11 N4        -10.6390   -1.2740   -0.0050 nb        1 J1C     -0.795000
     12 C5         -6.4520    0.0870   -1.1000 cd        1 J1C      0.422700
     13 N5         -9.1230    0.1430    1.3180 nb        1 J1C     -0.760000
     14 C6         -8.4530   -0.7580   -0.9080 ca        1 J1C     -0.228200
     15 N6          1.1180   -2.6140   -1.3930 n3        1 J1C     -0.721600
     16 C7         -9.7240   -1.4160   -1.0250 ca        1 J1C      0.764200
     17 C8        -10.2750   -0.5220    1.0670 ca        1 J1C      0.689900
     18 N8         10.0430    1.5480   -0.0830 nc        1 J1C     -0.745300
     19 C9         -8.2130    0.0130    0.3050 ca        1 J1C      0.449800
     20 C10        -3.3950   -0.1090    0.8280 c3        1 J1C     -0.038300
     21 N10         9.1180    2.5980   -2.0660 n         1 J1C     -0.513400
     22 C11        -1.3460   -1.1310   -0.7260 c3        1 J1C      0.015400
     23 N11         6.6120    0.2000   -0.7490 ne        1 J1C     -0.444300
     24 C12        -0.6110   -0.8810   -2.0270 c3        1 J1C     -0.106400
     25 N12         8.7670   -0.0890    1.0690 nh        1 J1C     -0.733000
     26 C13         0.2140   -2.1110   -2.4160 c3        1 J1C      0.165800
     27 C14         0.4340   -2.7860   -0.1190 c3        1 J1C      0.165800
     28 C15        -0.3920   -1.5870    0.3570 c3        1 J1C     -0.106400
     29 C18         5.2230   -1.4210    0.4020 c         1 J1C      0.596800
     30 C19        10.1480    2.3840   -1.1450 cd        1 J1C      0.731800
     31 C20         7.8890    1.8830   -1.9840 c         1 J1C      0.753700
     32 C21         6.4750   -0.5830    0.2830 cf        1 J1C      0.287300
     33 C22         7.4860   -0.7150    1.4300 c3        1 J1C      0.198900
     34 C23         7.7150   -2.2040    1.7390 c3        1 J1C     -0.118100
     35 C24         6.8990   -0.0440    2.6850 c3        1 J1C     -0.118100
     36 C25         8.8630    0.8200    0.0460 cc        1 J1C      0.463600
     37 C26         7.7690    0.9550   -0.8670 cd        1 J1C     -0.201600
     38 C27         3.5250   -2.7470   -0.7850 c3        1 J1C      0.079000
     39 N28         4.7900   -2.0630   -0.7430 n         1 J1C     -0.538900
     40 H1         -3.1880    1.9020    1.6600 h1        1 J1C      0.111700
     41 H2         -4.4430   -0.2880    3.1580 h1        1 J1C      0.093700
     42 HO2        -4.6180    2.4480    3.7910 ho        1 J1C      0.425000
     43 H3         -6.7160   -0.0760    2.6760 h1        1 J1C      0.084700
     44 HN3       -10.9000   -2.5880   -2.2390 hn        1 J1C      0.449300
     45 HN3A       -9.3570   -2.2000   -2.8700 hn        1 J1C      0.449300
     46 HO3        -7.6870    1.7740    3.4060 ho        1 J1C      0.434000
     47 H4         -6.8400    2.4360    1.0520 h2        1 J1C      0.104700
     48 H5         -5.4550    0.3820   -1.4600 h5        1 J1C      0.094800
     49 H8        -11.0520   -0.4440    1.8590 h5        1 J1C      0.051100
     50 HN9        12.0430    2.9620   -0.6230 hn        1 J1C      0.435300
     51 HN9A       11.3560    3.8970   -1.8460 hn        1 J1C      0.435300
     52 H10        -2.9410   -0.7820    1.5970 h1        1 J1C      0.070700
     53 H10A       -4.1960   -0.6790    0.2960 h1        1 J1C      0.070700
     54 H11        -2.1280   -1.9190   -0.8830 h1        1 J1C      0.066700
     55 H12        -1.3420   -0.6600   -2.8460 hc        1 J1C      0.059200
     56 H12A        0.0630    0.0090   -1.9170 hc        1 J1C      0.059200
     57 HN12        9.4980   -0.1690    1.7390 hn        1 J1C      0.450800
     58 H13         0.7980   -1.8780   -3.3480 h1        1 J1C      0.054950
     59 H13A       -0.4940   -2.9560   -2.6550 h1        1 J1C      0.054950
     60 H14        -0.2530   -3.6710   -0.2420 h1        1 J1C      0.054950
     61 H14A        1.1920   -3.0400    0.6730 h1        1 J1C      0.054950
     62 H15         0.2900   -0.7430    0.6410 hc        1 J1C      0.059200
     63 H15A       -0.9620   -1.8870    1.2740 hc        1 J1C      0.059200
     64 H23         8.4540   -2.3250    2.5670 hc        1 J1C      0.056200
     65 H23A        6.7440   -2.6560    2.0600 hc        1 J1C      0.056200
     66 H23B        8.0880   -2.7460    0.8380 hc        1 J1C      0.056200
     67 H24         6.6870    1.0350    2.4960 hc        1 J1C      0.056200
     68 H24A        5.9420   -0.5530    2.9590 hc        1 J1C      0.056200
     69 H24B        7.6100   -0.1300    3.5420 hc        1 J1C      0.056200
     70 H27         3.2890   -3.1290    0.2490 h1        1 J1C      0.068200
     71 H27A        3.6400   -3.6300   -1.4750 h1        1 J1C      0.068200
     72 HN28        5.1530   -1.7600   -1.6190 hn        1 J1C      0.321500
     73 N3        -10.0050   -2.1850   -2.1220 nh        1 J1C     -0.956500
     74 C16         2.3600   -1.8570   -1.2880 c3        1 J1C      0.133800
     75 HN10        9.2440    3.2030   -2.8490 hn        1 J1C      0.335500
     76 O4          4.6450   -1.5770    1.4970 o         1 J1C     -0.617100
     77 O5          7.0550    2.1310   -2.8680 o         1 J1C     -0.606500
     78 N9         11.3720    3.0350   -1.3540 nh        1 J1C     -0.909800
     79 H16         2.6320   -1.4580   -2.3060 h1        1 J1C      0.042200
     80 H16A        2.2560   -0.9720   -0.5960 h1        1 J1C      0.042200
@<TRIPOS>BOND
     1    1    3 1   
     2    1    5 1   
     3    1   20 1   
     4    1   40 1   
     5    2   10 1   
     6    2   12 1   
     7    2   19 1   
     8    3   10 1   
     9    4   20 1   
    10    4   22 1   
    11    5    7 1   
    12    5    8 1   
    13    5   41 1   
    14    6   12 2   
    15    6   14 1   
    16    7   42 1   
    17    8    9 1   
    18    8   10 1   
    19    8   43 1   
    20    9   46 1   
    21   10   47 1   
    22   11   16 ar  
    23   11   17 ar  
    24   12   48 1   
    25   13   17 ar  
    26   13   19 ar  
    27   14   16 ar  
    28   14   19 ar  
    29   15   26 1   
    30   15   27 1   
    31   15   74 1   
    32   16   73 1   
    33   17   49 1   
    34   18   30 2   
    35   18   36 1   
    36   20   52 1   
    37   20   53 1   
    38   21   30 1   
    39   21   31 1   
    40   21   75 1   
    41   22   24 1   
    42   22   28 1   
    43   22   54 1   
    44   23   32 2   
    45   23   37 1   
    46   24   26 1   
    47   24   55 1   
    48   24   56 1   
    49   25   33 1   
    50   25   36 1   
    51   25   57 1   
    52   26   58 1   
    53   26   59 1   
    54   27   28 1   
    55   27   60 1   
    56   27   61 1   
    57   28   62 1   
    58   28   63 1   
    59   29   32 1   
    60   29   39 1   
    61   29   76 2   
    62   30   78 1   
    63   31   37 1   
    64   31   77 2   
    65   32   33 1   
    66   33   34 1   
    67   33   35 1   
    68   34   64 1   
    69   34   65 1   
    70   34   66 1   
    71   35   67 1   
    72   35   68 1   
    73   35   69 1   
    74   36   37 2   
    75   38   39 1   
    76   38   70 1   
    77   38   71 1   
    78   38   74 1   
    79   39   72 1   
    80   44   73 1   
    81   45   73 1   
    82   50   78 1   
    83   51   78 1   
    84   74   79 1   
    85   74   80 1   
@<TRIPOS>SUBSTRUCTURE
     1 J1C         1 TEMP              0 ****  ****    0 ROOT
