@<TRIPOS>MOLECULE
J1C
   82    82     1     0     0
SMALL
bcc


@<TRIPOS>ATOM
      1 C1         -0.2130    1.3910   -0.2130 c2        1 J1C     -0.341400
      2 N1          2.2060    0.5230    2.0880 na        1 J1C     -0.286200
      3 O1          1.0080   -0.8470    0.5590 oh        1 J1C     -0.580800
      4 S1          2.1590    1.6710   -1.2460 s4        1 J1C      1.009700
      5 C2         -1.0580    0.7000   -1.0200 c2        1 J1C      0.147100
      6 N2          3.9500    0.7830    3.5840 nc        1 J1C     -0.503300
      7 O2         -1.8640   -0.3250   -0.6590 oh        1 J1C     -0.490100
      8 C3         -0.1000    1.1670    1.2570 c3        1 J1C      0.205300
      9 O3         -1.3260    0.7100    1.8210 oh        1 J1C     -0.613800
     10 C4          0.9030    0.0300    1.6610 c3        1 J1C      0.238800
     11 N4          5.4380    2.6800    0.7190 nh        1 J1C     -0.256600
     12 C5          2.7400    0.2610    3.3910 cd        1 J1C      0.419700
     13 N5          3.2510    1.8220    0.1520 nh        1 J1C     -0.459800
     14 C6          4.2680    1.4260    2.3750 cc        1 J1C     -0.212000
     15 N6         -0.1060   -0.2560   -4.3230 ne        1 J1C     -0.613300
     16 C7          5.4480    2.1570    2.0200 c2        1 J1C      0.251800
     17 C8          4.3850    2.5110   -0.1460 c1        1 J1C      0.033000
     18 N8         -9.9990   -6.2340   -8.6090 nc        1 J1C     -0.628300
     19 C9          3.1740    1.2690    1.4200 cc        1 J1C      0.332100
     20 C10         0.6420    2.4480   -0.7890 c3        1 J1C      0.035100
     21 N10        -8.9350   -8.2420   -7.7680 n         1 J1C     -0.497400
     22 C11         2.5560    2.3170   -2.5350 c2        1 J1C     -0.908000
     23 N11        -6.8400   -5.3150   -6.8010 ne        1 J1C     -0.456300
     24 C12         1.6070   -0.2860   -6.1080 c2        1 J1C     -0.224000
     25 N12        -8.9940   -4.0990   -8.2110 nh        1 J1C     -0.718000
     26 C13         0.9680    0.2580   -5.0620 ce        1 J1C      0.020600
     27 C14        -3.6870    2.4210   -3.6620 c1        1 J1C     -0.168500
     28 C15        -3.6610    1.4400   -2.9790 c1        1 J1C     -0.168500
     29 C18        -5.7390   -3.2130   -6.3610 c         1 J1C      0.511600
     30 C19        -9.9300   -7.5450   -8.4230 cd        1 J1C      0.575800
     31 C20        -7.8240   -7.5170   -7.1960 c         1 J1C      0.747700
     32 C21        -6.8220   -4.0320   -7.0110 cf        1 J1C      0.310300
     33 C22        -7.8350   -3.2540   -7.8660 c3        1 J1C      0.178900
     34 C23        -7.1270   -2.7690   -9.1420 c3        1 J1C     -0.122600
     35 C24        -8.3140   -2.0270   -7.0730 c3        1 J1C     -0.122600
     36 C25        -8.9430   -5.4590   -8.0760 cc        1 J1C      0.414600
     37 C26        -7.8700   -6.0660   -7.3710 cd        1 J1C     -0.106600
     38 C27        -2.0900   -1.6760   -4.0100 c3        1 J1C      0.096500
     39 N28        -3.3990   -1.5120   -4.5830 n3        1 J1C     -0.919800
     40 H1          1.3510   -1.6970    0.8720 ho        1 J1C      0.430000
     41 H2         -1.1970    0.9240   -2.1000 h4        1 J1C      0.197000
     42 HO2        -1.6590   -0.6220    0.2450 ho        1 J1C      0.449000
     43 H3          0.1990    2.1270    1.7700 h1        1 J1C      0.065700
     44 HN3         6.4050    1.9150    3.7990 hn        1 J1C      0.325200
     45 HN3A        7.2940    2.8220    2.6510 hn        1 J1C      0.325200
     46 HO3        -1.9860    1.3980    1.6620 ho        1 J1C      0.438000
     47 H4          0.4650   -0.5130    2.5590 h2        1 J1C      0.100700
     48 H5          2.1660   -0.3110    4.1360 h5        1 J1C      0.101800
     49 H8          6.2160    3.2080    0.3740 hn        1 J1C      0.336700
     50 H10         0.8070    3.2800   -0.0590 h1        1 J1C      0.105700
     51 H10A        0.1450    2.9140   -1.6830 h1        1 J1C      0.105700
     52 H11         2.0370    3.0970   -3.1120 h4        1 J1C      0.188000
     53 H12         3.4980    2.0660   -3.0540 h4        1 J1C      0.188000
     54 H12A        2.4730    0.2090   -6.5660 ha        1 J1C      0.126000
     55 H13         1.3030    1.2260   -4.6330 h4        1 J1C      0.142000
     56 H13A       -1.1010    2.7570   -3.7510 ha        1 J1C      0.001500
     57 H14        -3.7140    3.2930   -4.2680 ha        1 J1C      0.169500
     58 H14A       -3.6410    0.5690   -2.3680 ha        1 J1C      0.169500
     59 H15         1.3270   -1.2470   -6.5600 ha        1 J1C      0.126000
     60 H15A       -0.4270    2.7740   -3.8300 ha        1 J1C      0.001500
     61 H23        -6.7540   -3.6300   -9.7470 hc        1 J1C      0.066367
     62 H23A       -7.8220   -2.1580   -9.7660 hc        1 J1C      0.066367
     63 H23B       -6.2520   -2.1340   -8.8560 hc        1 J1C      0.066367
     64 H24        -7.4290   -1.3830   -6.8450 hc        1 J1C      0.066367
     65 H24A       -8.8000   -2.3290   -6.1150 hc        1 J1C      0.066367
     66 H24B       -9.0390   -1.4280   -7.6740 hc        1 J1C      0.066367
     67 H27        -3.6810   -0.5500   -4.5640 hn        1 J1C      0.360300
     68 H27A       -1.8810   -2.7820   -3.9200 h1        1 J1C      0.072200
     69 HN28       -5.6810   -3.3060   -5.2540 h4        1 J1C      0.060200
     70 N3          6.4720    2.3160    2.8870 nh        1 J1C     -0.382300
     71 HN10       -8.9420   -9.2360   -7.6640 hn        1 J1C      0.354500
     72 O4         -4.9820   -2.5000   -7.0140 o         1 J1C     -0.504100
     73 O5         -6.9810   -8.2130   -6.6330 o         1 J1C     -0.510500
     74 N9        -11.0760   -8.3320   -9.0060 n4        1 J1C     -0.810600
     75 H282       -3.4310   -1.8430   -5.5290 hn        1 J1C      0.360300
     76 H91       -11.5610   -8.8390   -8.2550 hn        1 J1C      0.486133
     77 C16        -0.9480   -1.0920   -4.8230 c2        1 J1C      0.398200
     78 HN12       -9.7250   -3.6610   -8.7270 hn        1 J1C      0.468800
     79 H16        -2.1070   -1.2430   -2.9670 h1        1 J1C      0.072200
     80 HN9       -10.7170   -8.9970   -9.7020 hn        1 J1C      0.486133
     81 HN9A      -11.7420   -7.6900   -9.4640 hn        1 J1C      0.486133
     82 H16A       -0.9100   -1.4590   -5.8740 h4        1 J1C     -0.023200
@<TRIPOS>BOND
     1    1    5 2   
     2    1    8 1   
     3    1   20 1   
     4    2   10 1   
     5    2   12 1   
     6    2   19 2   
     7    3   10 1   
     8    3   40 1   
     9    4   13 1   
    10    4   20 1   
    11    4   22 2   
    12    5    7 1   
    13    5   41 1   
    14    6   12 2   
    15    6   14 1   
    16    7   42 1   
    17    8    9 1   
    18    8   10 1   
    19    8   43 1   
    20    9   46 1   
    21   10   47 1   
    22   11   16 1   
    23   11   17 2   
    24   11   49 1   
    25   12   48 1   
    26   13   17 2   
    27   13   19 1   
    28   14   16 2   
    29   14   19 1   
    30   15   26 1   
    31   15   77 2   
    32   16   70 1   
    33   18   30 2   
    34   18   36 1   
    35   20   50 1   
    36   20   51 1   
    37   21   30 1   
    38   21   31 1   
    39   21   71 1   
    40   22   52 1   
    41   22   53 1   
    42   23   32 2   
    43   23   37 1   
    44   24   26 2   
    45   24   54 1   
    46   24   59 1   
    47   25   33 1   
    48   25   36 1   
    49   25   78 1   
    50   26   55 1   
    51   27   28 3   
    52   27   57 1   
    53   28   58 1   
    54   29   32 1   
    55   29   69 1   
    56   29   72 2   
    57   30   74 1   
    58   31   37 1   
    59   31   73 2   
    60   32   33 1   
    61   33   34 1   
    62   33   35 1   
    63   34   61 1   
    64   34   62 1   
    65   34   63 1   
    66   35   64 1   
    67   35   65 1   
    68   35   66 1   
    69   36   37 2   
    70   38   39 1   
    71   38   68 1   
    72   38   77 1   
    73   38   79 1   
    74   39   67 1   
    75   39   75 1   
    76   44   70 1   
    77   45   70 1   
    78   56   60 1   
    79   74   76 1   
    80   74   80 1   
    81   74   81 1   
    82   77   82 1   
@<TRIPOS>SUBSTRUCTURE
     1 J1C         1 TEMP              0 ****  ****    0 ROOT
