@<TRIPOS>MOLECULE
J1Z
   12     9     1     0     0
SMALL
bcc


@<TRIPOS>ATOM
      1 CAA        -1.3710    0.0060   -1.9480 c1        1 J1Z     -0.197900
      2 CAB         1.3710    0.0080    1.9480 c1        1 J1Z     -0.197900
      3 CAC         0.0940    0.0060   -1.9480 cg        1 J1Z     -0.135300
      4 CAD        -0.0940    0.0070    1.9480 ch        1 J1Z     -0.135300
      5 SAE        -1.8530    0.0060   -0.4570 ss        1 J1Z      0.114300
      6 SAF         1.8530    0.0070    0.4570 ss        1 J1Z      0.114300
      7 CAG         0.5930    0.0060   -0.4420 ce        1 J1Z     -0.106100
      8 CAH        -0.5930    0.0060    0.4420 cf        1 J1Z     -0.106100
      9 HAA        -1.9450   -0.0340   -2.7370 DU        1 J1Z      0.163000
     10 HAB         1.9450   -0.0320    2.7370 DU        1 J1Z      0.163000
     11 HAC         0.6660    0.0060   -2.7390 DU        1 J1Z      0.163000
     12 HAD        -0.6660    0.0070    2.7390 DU        1 J1Z      0.163000
@<TRIPOS>BOND
     1    1    3 3   
     2    1    5 1   
     3    2    4 3   
     4    2    6 1   
     5    3    7 1   
     6    4    8 1   
     7    5    8 1   
     8    6    7 1   
     9    7    8 2   
@<TRIPOS>SUBSTRUCTURE
     1 J1Z         1 TEMP              0 ****  ****    0 ROOT
