@<TRIPOS>MOLECULE
J1Z
   12    13     1     0     0
SMALL
bcc


@<TRIPOS>ATOM
      1 CAA         2.0530   -0.9540    0.0010 cc        1 J1Z     -0.153100
      2 CAB        -2.0530    0.9540   -0.0010 cc        1 J1Z     -0.153100
      3 CAC         0.8410   -1.6050    0.0000 cd        1 J1Z     -0.102000
      4 CAD        -0.8410    1.6050   -0.0000 cd        1 J1Z     -0.102000
      5 SAE         1.8990    0.7220    0.0010 ss        1 J1Z      0.040200
      6 SAF        -1.8990   -0.7220   -0.0010 ss        1 J1Z      0.040200
      7 CAG        -0.2360   -0.6730   -0.0000 cd        1 J1Z     -0.110100
      8 CAH         0.2360    0.6730    0.0000 cc        1 J1Z     -0.110100
      9 HAA         3.0280   -1.4390    0.0010 h4        1 J1Z      0.170000
     10 HAB        -3.0280    1.4390   -0.0010 h4        1 J1Z      0.170000
     11 HAC         0.7040   -2.6880   -0.0000 ha        1 J1Z      0.156000
     12 HAD        -0.7040    2.6880    0.0000 ha        1 J1Z      0.156000
@<TRIPOS>BOND
     1    1    3 2   
     2    1    5 1   
     3    1    9 1   
     4    2    4 2   
     5    2    6 1   
     6    2   10 1   
     7    3    7 1   
     8    3   11 1   
     9    4    8 1   
    10    4   12 1   
    11    5    8 1   
    12    6    7 1   
    13    7    8 2   
@<TRIPOS>SUBSTRUCTURE
     1 J1Z         1 TEMP              0 ****  ****    0 ROOT
