@<TRIPOS>MOLECULE
J21
   70    63     1     0     0
SMALL
bcc


@<TRIPOS>ATOM
      1 C1          1.5950    0.5580   -0.0930 c3        1 J21     -0.014000
      2 C2          2.5340    1.7460   -0.2660 c3        1 J21     -0.253000
      3 C3         -1.5850   -0.3160    2.0280 c1        1 J21      0.173500
      4 C4          0.9540    4.5370   -1.7120 c1        1 J21      0.173500
      5 C5          1.6200   -1.7340    0.8150 c2        1 J21      0.287000
      6 C6         -2.8480   -3.1190   -0.8340 c1        1 J21     -0.416000
      7 O1          1.2860    0.3700   -2.5880 oh        1 J21     -0.263000
      8 O2          0.4980    5.5080   -2.1730 o         1 J21     -0.168000
      9 O9         -5.6020   -8.7760   -3.8750 o         1 J21     -0.441000
     10 C21        -5.4640   -9.9680   -3.5060 c2        1 J21      0.317000
     11 C22        -5.5350  -10.3560   -2.0520 c3        1 J21     -0.249000
     12 N3         -5.2420  -10.9440   -4.4390 n         1 J21     -0.421000
     13 C20        -5.9600   -6.4020   -6.0770 c2        1 J21     -0.191000
     14 C19        -6.5810   -5.4390   -5.3960 c2        1 J21     -0.078000
     15 C18        -7.8080   -5.4120   -3.3700 c2        1 J21      0.104000
     16 C17        -8.9940   -5.2350   -4.1970 c2        1 J21     -0.156000
     17 C16        -9.9180   -4.2880   -3.9870 c2        1 J21     -0.209000
     18 BR        -11.4530   -4.0960   -5.0030 br        1 J21      0.111000
     19 C15       -10.1650   -4.9020   -1.5780 c1        1 J21      0.219000
     20 C14        -9.0180   -5.4680   -1.2320 c2        1 J21     -0.431000
     21 C13        -7.8070   -5.5460   -2.0120 c2        1 J21     -0.161000
     22 C12        -6.5470   -5.8510   -1.2450 c3        1 J21      0.134000
     23 O7         -5.9530   -7.0750   -1.5840 oh        1 J21     -0.320000
     24 N2         -5.4890   -4.7650   -1.4230 n4        1 J21     -0.052000
     25 C11        -5.5370   -3.6880   -0.4030 c3        1 J21     -0.269000
     26 C10        -6.6200   -2.6660   -0.6280 c3        1 J21     -0.223000
     27 C8         -2.3750   -4.1740   -1.4190 c1        1 J21     -0.223000
     28 C7         -2.5270    1.4540   -2.5400 c1        1 J21      0.446000
     29 O6         -3.1520    0.5120   -2.1570 o         1 J21     -0.222000
     30 O5         -1.9250    2.4040   -2.9180 o         1 J21     -0.222000
     31 N1         -2.1140   -1.9420   -0.4720 n4        1 J21      0.030000
     32 O4          0.3830   -1.7440    0.9690 o         1 J21     -0.420000
     33 N           2.2740   -0.6740    0.2340 n         1 J21     -0.389000
     34 C           0.7360    0.3920   -1.3510 c2        1 J21      0.313000
     35 O          -0.4930    0.2570   -1.3490 o         1 J21     -0.381000
     36 O3         -0.7830    0.3420    2.5700 o         1 J21     -0.168000
     37 H1          2.2440    0.5060   -2.5330 ho        1 J21      0.243000
     38 H2          3.3520    1.5300   -0.9950 hc        1 J21      0.111667
     39 H3          0.8600    0.7900    0.7450 h1        1 J21      0.144000
     40 H4          1.9490    2.6280   -0.6370 hc        1 J21      0.111667
     41 H5          2.9970    2.0140    0.7150 hc        1 J21      0.111667
     42 H6         -1.1160   -1.9560   -0.7100 hn        1 J21      0.231667
     43 H7         -5.6780   -9.4310   -1.4390 hc        1 J21      0.113333
     44 H8         -4.5930  -10.8630   -1.7330 hc        1 J21      0.113333
     45 H9         -6.3960  -11.0460   -1.8770 hc        1 J21      0.113333
     46 H10        -5.1980  -10.7110   -5.4000 hn        1 J21      0.232000
     47 H11        -7.0510   -4.5300   -5.7950 h4        1 J21      0.152000
     48 H12        -5.8370   -6.3310   -7.1660 ha        1 J21      0.155000
     49 H13        -9.0830   -5.9740   -5.0180 ha        1 J21      0.176000
     50 H14        -9.8120   -3.4920   -3.2290 h4        1 J21      0.172000
     51 H15        -8.9950   -5.9620   -0.2350 ha        1 J21      0.198000
     52 H16        -5.5800   -4.3490   -2.3540 hn        1 J21      0.248500
     53 H17        -7.6370   -3.1310   -0.6490 hc        1 J21      0.091000
     54 H18        -4.4330   -3.1830   -0.4590 hx        1 J21      0.193000
     55 H19        -6.4620   -2.1100   -1.5840 hc        1 J21      0.091000
     56 H20        -6.5830   -1.9310    0.2130 hc        1 J21      0.091000
     57 H21        -1.7830   -6.1960   -1.4150 ha        1 J21      0.125000
     58 H22        -2.1570   -5.4570   -3.0770 ha        1 J21      0.125000
     59 H24        -2.5410   -1.1380   -0.9420 hn        1 J21      0.231667
     60 H25         3.2660   -0.6720    0.1820 hn        1 J21      0.246000
     61 H28        -5.1380  -11.8890   -4.1730 hn        1 J21      0.232000
     62 H29        -5.5360   -7.2940   -5.5880 ha        1 J21      0.155000
     63 H30        -6.7520   -5.9240   -0.1310 hx        1 J21      0.157000
     64 H31        -5.6470   -4.1640    0.6080 hx        1 J21      0.193000
     65 H32        -6.0560   -7.2540   -2.5380 ho        1 J21      0.272000
     66 H221       -4.5570   -5.2110   -1.3700 hn        1 J21      0.248500
     67 H121       -2.1930   -1.8130    0.5460 hn        1 J21      0.231667
     68 HN3         2.2770   -2.5850    1.1090 h5        1 J21      0.158000
     69 C9         -2.1040   -5.3150   -1.9880 c2        1 J21     -0.224000
     70 O8         -6.5730   -5.5140   -3.9910 os        1 J21     -0.213000
@<TRIPOS>BOND
     1    1    2 1   
     2    1   33 1   
     3    1   34 1   
     4    1   39 1   
     5    2   38 1   
     6    2   40 1   
     7    2   41 1   
     8    3   36 1   
     9    4    8 1   
    10    5   32 1   
    11    5   33 1   
    12    5   68 1   
    13    6   27 1   
    14    6   31 1   
    15    7   34 1   
    16    7   37 1   
    17    9   10 1   
    18   10   11 1   
    19   10   12 1   
    20   11   43 1   
    21   11   44 1   
    22   11   45 1   
    23   12   46 1   
    24   12   61 1   
    25   13   14 1   
    26   13   48 1   
    27   13   62 1   
    28   14   47 1   
    29   14   70 1   
    30   15   16 1   
    31   15   21 1   
    32   15   70 1   
    33   16   17 1   
    34   16   49 1   
    35   17   18 1   
    36   17   50 1   
    37   19   20 1   
    38   20   21 1   
    39   20   51 1   
    40   21   22 1   
    41   22   23 1   
    42   22   24 1   
    43   22   63 1   
    44   23   65 1   
    45   24   25 1   
    46   24   52 1   
    47   24   66 1   
    48   25   26 1   
    49   25   54 1   
    50   25   64 1   
    51   26   53 1   
    52   26   55 1   
    53   26   56 1   
    54   27   69 1   
    55   28   29 1   
    56   28   30 1   
    57   31   42 1   
    58   31   59 1   
    59   31   67 1   
    60   33   60 1   
    61   34   35 1   
    62   57   69 1   
    63   58   69 1   
@<TRIPOS>SUBSTRUCTURE
     1 J21         1 TEMP              0 ****  ****    0 ROOT
