@<TRIPOS>MOLECULE
J21
   70    66     1     0     0
SMALL
bcc


@<TRIPOS>ATOM
      1 C1          0.1020   -3.1440   -0.8670 c3        1 J21      0.016000
      2 C2          0.7660   -3.2280    0.5160 c3        1 J21     -0.164000
      3 C3          1.7360   -2.1110    0.7240 cx        1 J21     -0.048000
      4 C4          1.9850   -1.5650    2.0510 cu        1 J21      0.298000
      5 C5         -0.8740   -1.4470   -2.3530 c2        1 J21      0.270000
      6 C6         -2.6240    2.7800   -3.2070 cu        1 J21     -0.023000
      7 O1         -1.2720   -4.7220   -2.2490 oh        1 J21     -0.360000
      8 O2          1.1490   -0.8430    1.2320 os        1 J21     -0.272000
      9 O9         -2.6460   -9.0910   -1.4560 o         1 J21     -0.213000
     10 C21        -2.6910   -8.0920   -0.7480 c2        1 J21      0.279000
     11 C22        -2.4360   -7.9950    0.7160 c3        1 J21     -0.258000
     12 N3         -3.0500   -6.8160   -1.4420 n4        1 J21     -0.143000
     13 C20        -5.6710   -8.5910   -4.7510 c2        1 J21     -0.231000
     14 C19        -5.2690   -8.6270   -3.4810 c2        1 J21     -0.080000
     15 C18        -7.1480   -7.5700   -2.4660 c2        1 J21      0.140000
     16 C17        -8.0010   -8.6410   -2.9630 c2        1 J21     -0.164000
     17 C16        -9.1930   -8.4470   -3.5410 c2        1 J21     -0.208000
     18 BR        -10.2930   -9.8060   -4.1440 br        1 J21      0.100000
     19 C15        -9.6120   -4.9620   -1.9250 c1        1 J21      0.252000
     20 C14        -8.9700   -6.1010   -1.7380 c2        1 J21     -0.461000
     21 C13        -7.5620   -6.3890   -1.9210 c2        1 J21     -0.143000
     22 C12        -6.6460   -5.3390   -1.4530 c2        1 J21      0.281000
     23 O7         -5.4260   -5.4910   -1.3000 o         1 J21     -0.399000
     24 N2         -8.1110   -3.0310   -3.3150 n3        1 J21     -0.372000
     25 C11        -7.2170   -1.9410   -3.0010 c3        1 J21     -0.088000
     26 C10        -7.5840   -0.5740   -3.5550 c3        1 J21     -0.257000
     27 C8         -1.9710    3.7950   -3.6340 c1        1 J21     -0.104000
     28 C7         -3.6340    1.8360   -2.9330 cu        1 J21      0.377000
     29 O6         -4.6620    1.2140   -2.8680 o         1 J21     -0.212000
     30 O5         -2.3590    1.6120   -2.4040 os        1 J21     -0.274000
     31 N1         -1.3770    0.5500    0.3790 n3        1 J21     -0.430000
     32 O4         -0.6910   -2.1620   -3.3600 o         1 J21     -0.418000
     33 N          -0.5930   -1.9060   -1.0890 n         1 J21     -0.396000
     34 C          -0.8210   -4.3540   -1.0200 c2        1 J21      0.317000
     35 O          -1.2220   -5.1190   -0.1330 o         1 J21     -0.393000
     36 O3          2.3880   -1.4110    3.1740 o         1 J21     -0.188000
     37 H1         -0.9790   -4.1010   -2.9450 ho        1 J21      0.300000
     38 H2         -0.0250   -3.2260    1.3150 hc        1 J21      0.130500
     39 H3          0.8980   -3.2640   -1.6700 h1        1 J21      0.129000
     40 H4          1.3160   -4.2050    0.5850 hc        1 J21      0.130500
     41 H5          2.4720   -1.9530   -0.0920 h1        1 J21      0.163000
     42 H6         -0.5670    0.7720    0.9210 hn        1 J21      0.148667
     43 H7         -3.3930   -7.7730    1.2550 hc        1 J21      0.153000
     44 H8         -1.6980   -7.1790    0.9400 hc        1 J21      0.153000
     45 H9         -2.0310   -8.9730    1.0800 hc        1 J21      0.153000
     46 H10        -2.3700   -6.6010   -2.1810 hn        1 J21      0.281333
     47 H11        -4.4430   -9.2350   -3.0710 h4        1 J21      0.171000
     48 H12        -5.1770   -9.2010   -5.5190 ha        1 J21      0.146500
     49 H13        -7.5800   -9.6560   -2.8250 ha        1 J21      0.164000
     50 H14        -9.6080   -7.4430   -3.7190 h4        1 J21      0.168000
     51 H15        -9.5920   -6.9540   -1.3750 ha        1 J21      0.206000
     52 H16        -9.0340   -2.8440   -2.9660 hn        1 J21      0.150500
     53 H17        -8.5650   -0.2280   -3.1510 hc        1 J21      0.085000
     54 H18        -7.1520   -1.8680   -1.8770 h1        1 J21      0.083000
     55 H19        -6.7990    0.1680   -3.2650 hc        1 J21      0.085000
     56 H20        -7.6500   -0.5980   -4.6700 hc        1 J21      0.085000
     57 H21        -0.8180    4.8290   -5.0540 ha        1 J21      0.159000
     58 H22        -1.2880    5.7800   -3.5160 ha        1 J21      0.159000
     59 H24        -2.1840    0.5890    0.9650 hn        1 J21      0.148667
     60 H25        -0.7530   -1.3050   -0.2960 hn        1 J21      0.296000
     61 H28        -3.0500   -6.0250   -0.7790 hn        1 J21      0.281333
     62 H29        -6.5130   -7.9770   -5.0970 ha        1 J21      0.146500
     63 H30        -7.1290   -4.3580   -1.2260 h4        1 J21      0.138000
     64 H31        -6.1930   -2.2200   -3.3810 h1        1 J21      0.083000
     65 H32        -3.9960   -6.8850   -1.8620 hn        1 J21      0.281333
     66 H221       -8.1710   -3.1620   -4.3060 hn        1 J21      0.150500
     67 H121       -1.4750    1.2180   -0.3580 hn        1 J21      0.148667
     68 HN3        -1.2890   -0.4110   -2.3910 h5        1 J21      0.185000
     69 C9         -1.3380    4.8350   -4.0820 c2        1 J21     -0.079000
     70 O8         -5.7800   -7.8340   -2.4520 os        1 J21     -0.216000
@<TRIPOS>BOND
     1    1    2 1   
     2    1   33 1   
     3    1   34 1   
     4    1   39 1   
     5    2    3 1   
     6    2   38 1   
     7    2   40 1   
     8    3    4 1   
     9    3    8 1   
    10    3   41 1   
    11    4    8 1   
    12    4   36 1   
    13    5   32 1   
    14    5   33 1   
    15    5   68 1   
    16    6   27 1   
    17    6   28 1   
    18    6   30 1   
    19    7   34 1   
    20    7   37 1   
    21    9   10 1   
    22   10   11 1   
    23   10   12 1   
    24   11   43 1   
    25   11   44 1   
    26   11   45 1   
    27   12   46 1   
    28   12   61 1   
    29   12   65 1   
    30   13   14 1   
    31   13   48 1   
    32   13   62 1   
    33   14   47 1   
    34   14   70 1   
    35   15   16 1   
    36   15   21 1   
    37   15   70 1   
    38   16   17 1   
    39   16   49 1   
    40   17   18 1   
    41   17   50 1   
    42   19   20 1   
    43   20   21 1   
    44   20   51 1   
    45   21   22 1   
    46   22   23 1   
    47   22   63 1   
    48   24   25 1   
    49   24   52 1   
    50   24   66 1   
    51   25   26 1   
    52   25   54 1   
    53   25   64 1   
    54   26   53 1   
    55   26   55 1   
    56   26   56 1   
    57   27   69 1   
    58   28   29 1   
    59   28   30 1   
    60   31   42 1   
    61   31   59 1   
    62   31   67 1   
    63   33   60 1   
    64   34   35 1   
    65   57   69 1   
    66   58   69 1   
@<TRIPOS>SUBSTRUCTURE
     1 J21         1 TEMP              0 ****  ****    0 ROOT
