@<TRIPOS>MOLECULE
J21
   70    64     1     0     0
SMALL
bcc


@<TRIPOS>ATOM
      1 C1         -0.0490   -2.0510    1.5840 c3        1 J21     -0.133000
      2 C2          0.5080   -2.1860    2.9950 c3        1 J21     -0.238000
      3 C3          0.2710    1.6900    2.8140 c1        1 J21      0.148500
      4 C4          2.3160    0.7300    3.9740 c1        1 J21      0.148500
      5 C5         -1.2980   -0.4670   -0.0450 c1        1 J21     -0.016000
      6 C6         -4.1640   -0.3120   -2.5920 cu        1 J21     -0.447000
      7 O1         -0.7910   -3.8310    0.0030 oh        1 J21     -0.289000
      8 O2          3.2990    0.5410    4.5740 o         1 J21     -0.140500
      9 O9         -4.5780   -6.0120   -1.6860 o         1 J21     -0.484000
     10 C21        -3.4860   -5.9210   -1.0670 c2        1 J21      0.327000
     11 C22        -2.1850   -6.3250   -1.7100 c3        1 J21     -0.246000
     12 N3         -3.4670   -5.4480    0.2120 nt        1 J21     -0.412000
     13 C20        -3.8470   -7.8210   -4.7280 c3        1 J21     -0.279000
     14 C19        -8.7690   -5.0950   -5.9820 c1        1 J21      0.224000
     15 C18        -9.1670   -6.5130   -4.1050 c2        1 J21      0.065000
     16 C17       -10.2330   -7.3280   -3.5530 c2        1 J21     -0.105000
     17 C16       -10.4530   -7.4750   -2.2400 c2        1 J21     -0.222000
     18 Br        -11.7670   -8.5660   -1.5280 br        1 J21      0.109000
     19 C15        -7.9670   -7.7030   -1.5600 c1        1 J21      0.235000
     20 C14        -7.3330   -7.1310   -2.5710 c2        1 J21     -0.458000
     21 C13        -7.8740   -6.4240   -3.6980 c2        1 J21     -0.153000
     22 C12        -6.9030   -5.5900   -4.4870 c3        1 J21      0.037000
     23 O7         -7.4980   -5.0010   -5.6610 os        1 J21     -0.222000
     24 N2         -6.3230   -4.4620   -3.6630 ny        1 J21      0.038000
     25 C11        -5.3200   -3.6470   -4.3400 c2        1 J21     -0.531000
     26 C10        -3.9730   -4.2720   -4.4880 c3        1 J21     -0.178000
     27 C8         -4.9560   -1.2940   -3.0230 cu        1 J21     -0.047000
     28 C7         -0.1610    1.0930   -5.2370 c1        1 J21      0.444000
     29 O6         -0.9280    0.9280   -4.3330 o         1 J21     -0.221500
     30 O5          0.6010    1.2550   -6.1270 o         1 J21     -0.221500
     31 N1         -2.8920    0.2360   -2.3850 nz        1 J21      0.080000
     32 O4         -0.8590   -1.1820   -0.9370 o         1 J21     -0.411000
     33 N          -0.8790   -0.8310    1.3880 ny        1 J21     -0.134000
     34 C          -0.8600   -3.2970    1.2480 c2        1 J21      0.297000
     35 O          -1.6060   -3.9010    2.0190 o         1 J21     -0.298000
     36 O3          0.4670    2.7650    3.2260 o         1 J21     -0.140500
     37 H1         -0.2960   -3.2490   -0.5990 ho        1 J21      0.264000
     38 H2         -0.3140   -2.3720    3.7300 hc        1 J21      0.112000
     39 H3          0.8120   -1.9720    0.8520 hx        1 J21      0.144000
     40 H4          1.2100   -3.0550    3.0290 hc        1 J21      0.112000
     41 H5          1.0660   -1.2620    3.2900 hc        1 J21      0.112000
     42 H6         -2.1600   -0.4570   -2.6100 hn        1 J21      0.254667
     43 H7         -1.4110   -5.5290   -1.5770 hc        1 J21      0.113000
     44 H8         -2.3560   -6.5000   -2.8020 hc        1 J21      0.113000
     45 H9         -1.8150   -7.2720   -1.2460 hc        1 J21      0.113000
     46 H10        -2.7930   -7.5230   -4.9230 hc        1 J21      0.070500
     47 H11        -4.2370   -7.2480   -3.8550 hc        1 J21      0.070500
     48 H12        -3.8890   -8.9100   -4.5080 hc        1 J21      0.070500
     49 H13       -10.8640   -7.8210   -4.3180 ha        1 J21      0.181000
     50 H14        -9.9150   -6.9090   -1.4590 h4        1 J21      0.168000
     51 H15        -6.2160   -7.2280   -2.5360 ha        1 J21      0.230000
     52 H16        -5.9030   -4.8880   -2.8240 hn        1 J21      0.240000
     53 H17        -3.9760   -5.1680   -5.1630 hc        1 J21      0.065333
     54 H18        -5.7270   -3.2820   -5.3100 hx        1 J21      0.113000
     55 H19        -3.5590   -4.5970   -3.4990 hc        1 J21      0.065333
     56 H20        -3.2870   -3.5090   -4.9290 hc        1 J21      0.065333
     57 H21        -6.1280    0.6610   -3.0870 hc        1 J21      0.105000
     58 H22        -6.0710   -0.1080   -1.4260 hc        1 J21      0.105000
     59 H24        -2.7610    1.0600   -2.9840 hn        1 J21      0.254667
     60 H25        -0.3610   -0.0190    1.7620 hn        1 J21      0.241000
     61 H28        -2.6140   -5.3420    0.7070 hn        1 J21      0.239500
     62 H29        -4.4610   -7.6020   -5.6290 hc        1 J21      0.070500
     63 H30        -6.0320   -6.2090   -4.8710 hx        1 J21      0.180000
     64 H31        -5.1180   -2.3740   -3.5650 ha        1 J21      0.334000
     65 H32        -4.3140   -5.2230    0.6730 hn        1 J21      0.239500
     66 H221       -7.0810   -3.8400   -3.3820 hn        1 J21      0.240000
     67 H121       -2.7780    0.5090   -1.3940 hn        1 J21      0.254667
     68 HN3        -1.7400   -0.9190    1.9300 hn        1 J21      0.241000
     69 C9         -5.6120   -0.0670   -2.4320 cx        1 J21     -0.144000
     70 O8         -9.5940   -5.8200   -5.2460 os        1 J21     -0.166000
@<TRIPOS>BOND
     1    1    2 1   
     2    1   33 1   
     3    1   34 1   
     4    1   39 1   
     5    2   38 1   
     6    2   40 1   
     7    2   41 1   
     8    3   36 1   
     9    4    8 1   
    10    5   32 1   
    11    5   33 1   
    12    6   27 1   
    13    6   31 1   
    14    6   69 1   
    15    7   34 1   
    16    7   37 1   
    17    9   10 1   
    18   10   11 1   
    19   10   12 1   
    20   11   43 1   
    21   11   44 1   
    22   11   45 1   
    23   12   61 1   
    24   12   65 1   
    25   13   46 1   
    26   13   47 1   
    27   13   48 1   
    28   13   62 1   
    29   14   23 1   
    30   14   70 1   
    31   15   16 1   
    32   15   21 1   
    33   15   70 1   
    34   16   17 1   
    35   16   49 1   
    36   17   18 1   
    37   17   50 1   
    38   19   20 1   
    39   20   21 1   
    40   20   51 1   
    41   21   22 1   
    42   22   23 1   
    43   22   24 1   
    44   22   63 1   
    45   24   25 1   
    46   24   52 1   
    47   24   66 1   
    48   25   26 1   
    49   25   54 1   
    50   26   53 1   
    51   26   55 1   
    52   26   56 1   
    53   27   64 1   
    54   27   69 1   
    55   28   29 1   
    56   28   30 1   
    57   31   42 1   
    58   31   59 1   
    59   31   67 1   
    60   33   60 1   
    61   33   68 1   
    62   34   35 1   
    63   57   69 1   
    64   58   69 1   
@<TRIPOS>SUBSTRUCTURE
     1 J21         1 TEMP              0 ****  ****    0 ROOT
