@<TRIPOS>MOLECULE
J25
   50    52     1     0     0
SMALL
bcc


@<TRIPOS>ATOM
      1 C1         -0.1230   -0.3220    0.6750 cc        1 J25     -0.009300
      2 C2          1.2740   -0.1670    0.9400 cc        1 J25     -0.243600
      3 C3          1.4900    0.3310    2.2460 cd        1 J25      0.101500
      4 S4          0.0200    0.5890    3.0440 ss        1 J25      0.167200
      5 C5         -0.8960    0.0650    1.7570 cd        1 J25     -0.242400
      6 C6         -2.3830   -0.0050    1.7410 c3        1 J25      0.160300
      7 N7         -2.9450   -0.1480    0.4060 n         1 J25     -0.392800
      8 C8         -2.2180   -1.0690   -0.4530 c3        1 J25      0.069000
      9 C9         -0.7150   -0.7990   -0.5910 c3        1 J25     -0.052100
     10 N10         2.7340    0.5750    2.7880 ns        1 J25     -0.433100
     11 C11         2.9510    1.0960    4.0580 c         1 J25      0.658100
     12 C12         4.3950    1.3380    4.4680 c3        1 J25     -0.064100
     13 C13         5.2510    0.1550    4.3150 cc        1 J25     -0.150400
     14 C14         5.8300   -0.2930    3.1400 cd        1 J25     -0.144000
     15 C15         6.6290   -1.4580    3.3560 cd        1 J25     -0.152000
     16 C16         6.6240   -1.8370    4.6810 cc        1 J25     -0.167100
     17 S17         5.6870   -0.8230    5.6110 ss        1 J25      0.047200
     18 O18         1.9990    1.3820    4.8090 o         1 J25     -0.590100
     19 C19         2.3540   -0.4580    0.0160 c         1 J25      0.685700
     20 O20         1.9590   -0.9110   -1.2140 os        1 J25     -0.431900
     21 C21         2.9860   -1.2070   -2.1740 c3        1 J25      0.139400
     22 C22         3.5750   -2.5750   -1.9320 c3        1 J25     -0.126100
     23 O23         3.5740   -0.3320    0.2130 o         1 J25     -0.596000
     24 C24        -3.5080    0.9710   -0.2230 c         1 J25      0.721100
     25 O25        -3.8700    1.9990    0.6220 os        1 J25     -0.443900
     26 C26        -4.6140    3.0660   -0.0010 c3        1 J25      0.149400
     27 C27        -4.9200    4.0520    1.1000 c3        1 J25     -0.102100
     28 O28        -3.7940    1.0810   -1.4280 o         1 J25     -0.583000
     29 H6         -2.7090   -0.9230    2.3150 h1        1 J25      0.075700
     30 H6A        -2.8220    0.9000    2.2490 h1        1 J25      0.075700
     31 H8         -2.3640   -2.0910    0.0010 h1        1 J25      0.073700
     32 H8A        -2.6870   -1.0600   -1.4770 h1        1 J25      0.073700
     33 H9         -0.2080   -1.7450   -0.9220 hc        1 J25      0.078200
     34 H9A        -0.5280   -0.0320   -1.3910 hc        1 J25      0.078200
     35 HN10        3.5290    0.3180    2.2300 hn        1 J25      0.366500
     36 H12         4.3760    1.6790    5.5410 hc        1 J25      0.088700
     37 H12A        4.7940    2.1890    3.8480 hc        1 J25      0.088700
     38 H14         5.7070    0.1660    2.1550 ha        1 J25      0.166000
     39 H15         7.1670   -1.9680    2.5540 ha        1 J25      0.159000
     40 H16         7.1580   -2.6920    5.0940 h4        1 J25      0.174000
     41 H21         2.4270   -1.1630   -3.1480 h1        1 J25      0.063200
     42 H21A        3.7770   -0.4140   -2.1440 h1        1 J25      0.063200
     43 H22         2.7730   -3.3510   -1.9130 hc        1 J25      0.049033
     44 H22A        4.2980   -2.8190   -2.7460 hc        1 J25      0.049033
     45 H22B        4.1110   -2.5930   -0.9520 hc        1 J25      0.049033
     46 H26        -5.5450    2.6380   -0.4550 h1        1 J25      0.054700
     47 H26A       -3.9830    3.5180   -0.8090 h1        1 J25      0.054700
     48 H27        -5.5260    3.5690    1.9040 hc        1 J25      0.048700
     49 H27A       -5.4950    4.9060    0.6700 hc        1 J25      0.048700
     50 H27B       -3.9770    4.4380    1.5550 hc        1 J25      0.048700
@<TRIPOS>BOND
     1    1    2 1   
     2    1    5 2   
     3    1    9 1   
     4    2    3 2   
     5    2   19 1   
     6    3    4 1   
     7    3   10 1   
     8    4    5 1   
     9    5    6 1   
    10    6    7 1   
    11    6   29 1   
    12    6   30 1   
    13    7    8 1   
    14    7   24 1   
    15    8    9 1   
    16    8   31 1   
    17    8   32 1   
    18    9   33 1   
    19    9   34 1   
    20   10   11 1   
    21   10   35 1   
    22   11   12 1   
    23   11   18 2   
    24   12   13 1   
    25   12   36 1   
    26   12   37 1   
    27   13   14 2   
    28   13   17 1   
    29   14   15 1   
    30   14   38 1   
    31   15   16 2   
    32   15   39 1   
    33   16   17 1   
    34   16   40 1   
    35   19   20 1   
    36   19   23 2   
    37   20   21 1   
    38   21   22 1   
    39   21   41 1   
    40   21   42 1   
    41   22   43 1   
    42   22   44 1   
    43   22   45 1   
    44   24   25 1   
    45   24   28 2   
    46   25   26 1   
    47   26   27 1   
    48   26   46 1   
    49   26   47 1   
    50   27   48 1   
    51   27   49 1   
    52   27   50 1   
@<TRIPOS>SUBSTRUCTURE
     1 J25         1 TEMP              0 ****  ****    0 ROOT
