@<TRIPOS>MOLECULE
J25
   51    53     1     0     0
SMALL
bcc


@<TRIPOS>ATOM
      1 C1         -0.1310   -0.3850    0.4030 cc        1 J25     -0.022300
      2 C2          1.2170   -0.3140    0.8340 cc        1 J25     -0.112600
      3 C3          1.2930   -0.2480    2.2470 cd        1 J25     -0.143500
      4 S4         -0.2330   -0.2760    2.9350 ss        1 J25      0.297200
      5 C5         -1.0100   -0.3700    1.4950 cd        1 J25     -0.165400
      6 C6         -2.4920   -0.4550    1.3020 c3        1 J25      0.144300
      7 N7         -2.9140   -0.1220   -0.0420 n         1 J25     -0.397800
      8 C8         -2.1060   -0.7170   -1.0910 c3        1 J25      0.067000
      9 C9         -0.6010   -0.4310   -0.9960 c3        1 J25     -0.063100
     10 N10         2.5290   -0.1680    2.9740 n4        1 J25     -0.504200
     11 C11         3.0960   -1.5270    3.3940 c         1 J25      0.563100
     12 C12         4.5790   -1.6680    3.1680 c3        1 J25     -0.052100
     13 C13         5.3350   -0.5690    3.7800 cc        1 J25     -0.253400
     14 C14         5.3240   -0.2400    5.1310 cd        1 J25     -0.136000
     15 C15         6.2340    0.8140    5.4220 cd        1 J25     -0.152000
     16 C16         6.9080    1.2230    4.2850 cc        1 J25     -0.153100
     17 S17         6.4480    0.3650    2.9460 ss        1 J25      0.134200
     18 O18         2.3150   -2.3330    3.8660 o         1 J25     -0.410100
     19 C19         2.4020   -0.2980   -0.0250 c         1 J25      0.674700
     20 O20         2.1590   -0.2890   -1.3540 os        1 J25     -0.400900
     21 C21         3.2940   -0.2700   -2.2520 c3        1 J25      0.137400
     22 C22         3.8520   -1.6570   -2.4370 c3        1 J25     -0.130100
     23 O23         3.5780   -0.2820    0.3830 o         1 J25     -0.608000
     24 C24        -3.4400    1.1580   -0.3020 c         1 J25      0.719100
     25 O25        -3.8880    1.8360    0.8070 os        1 J25     -0.450900
     26 C26        -4.6580    3.0280    0.5210 c3        1 J25      0.149400
     27 C27        -5.1240    3.5450    1.8590 c3        1 J25     -0.105100
     28 O28        -3.5870    1.6720   -1.4200 o         1 J25     -0.552000
     29 H6         -2.8070   -1.5270    1.4850 h1        1 J25      0.097700
     30 H6A        -3.0260    0.2010    2.0490 h1        1 J25      0.097700
     31 H8         -2.4830   -0.3540   -2.0910 h1        1 J25      0.090700
     32 H8A        -2.2730   -1.8300   -1.0270 h1        1 J25      0.090700
     33 H9         -0.3610    0.5520   -1.4890 hc        1 J25      0.092200
     34 H9A        -0.0440   -1.2230   -1.5660 hc        1 J25      0.092200
     35 HN10        3.2410    0.2850    2.3650 hn        1 J25      0.475800
     36 H12         4.8840   -2.6590    3.6160 hc        1 J25      0.127200
     37 H12A        4.7540   -1.7180    2.0520 hc        1 J25      0.127200
     38 H14         4.7190   -0.7350    5.8960 ha        1 J25      0.160000
     39 H15         6.3810    1.2260    6.4240 ha        1 J25      0.177000
     40 H16         7.6650    2.0100    4.2590 h4        1 J25      0.196000
     41 H21         4.0670    0.4410   -1.8630 h1        1 J25      0.080200
     42 H21A        2.8320    0.1280   -3.1970 h1        1 J25      0.080200
     43 H22         3.0540   -2.3660   -2.7640 hc        1 J25      0.058700
     44 H22A        4.6520   -1.6300   -3.2160 hc        1 J25      0.058700
     45 H22B        4.2920   -2.0300   -1.4810 hc        1 J25      0.058700
     46 H26        -5.5130    2.7510   -0.1480 h1        1 J25      0.063200
     47 H26A       -3.9920    3.7570   -0.0090 h1        1 J25      0.063200
     48 H27        -5.7530    2.7830    2.3800 hc        1 J25      0.053033
     49 H27A       -5.7320    4.4680    1.6940 hc        1 J25      0.053033
     50 H27B       -4.2550    3.7930    2.5130 hc        1 J25      0.053033
     51 H102        2.4000    0.4070    3.8140 hn        1 J25      0.475800
@<TRIPOS>BOND
     1    1    2 1   
     2    1    5 2   
     3    1    9 1   
     4    2    3 2   
     5    2   19 1   
     6    3    4 1   
     7    3   10 1   
     8    4    5 1   
     9    5    6 1   
    10    6    7 1   
    11    6   29 1   
    12    6   30 1   
    13    7    8 1   
    14    7   24 1   
    15    8    9 1   
    16    8   31 1   
    17    8   32 1   
    18    9   33 1   
    19    9   34 1   
    20   10   11 1   
    21   10   35 1   
    22   10   51 1   
    23   11   12 1   
    24   11   18 2   
    25   12   13 1   
    26   12   36 1   
    27   12   37 1   
    28   13   14 2   
    29   13   17 1   
    30   14   15 1   
    31   14   38 1   
    32   15   16 2   
    33   15   39 1   
    34   16   17 1   
    35   16   40 1   
    36   19   20 1   
    37   19   23 2   
    38   20   21 1   
    39   21   22 1   
    40   21   41 1   
    41   21   42 1   
    42   22   43 1   
    43   22   44 1   
    44   22   45 1   
    45   24   25 1   
    46   24   28 2   
    47   25   26 1   
    48   26   27 1   
    49   26   46 1   
    50   26   47 1   
    51   27   48 1   
    52   27   49 1   
    53   27   50 1   
@<TRIPOS>SUBSTRUCTURE
     1 J25         1 TEMP              0 ****  ****    0 ROOT
