@<TRIPOS>MOLECULE
J25
   50    52     1     0     0
SMALL
bcc


@<TRIPOS>ATOM
      1 C1          1.4980   -0.4060   -0.6980 cc        1 J25     -0.009300
      2 C2          0.1720   -0.6780   -0.2360 cc        1 J25     -0.243600
      3 C3         -0.5540    0.5190   -0.0440 cd        1 J25      0.101500
      4 S4          0.3990    1.8680   -0.4110 ss        1 J25      0.167200
      5 C5          1.7270    0.9540   -0.8250 cd        1 J25     -0.242400
      6 C6          3.0280    1.5040   -1.2950 c3        1 J25      0.160300
      7 N7          4.1190    0.5430   -1.2460 n         1 J25     -0.392800
      8 C8          3.7550   -0.7960   -1.6840 c3        1 J25      0.069000
      9 C9          2.5380   -1.4130   -0.9850 c3        1 J25     -0.052100
     10 N10        -1.8630    0.5730    0.3890 n         1 J25     -0.433100
     11 C11        -2.5700    1.7480    0.6120 c         1 J25      0.658100
     12 C12        -3.9930    1.6110    1.1310 c3        1 J25     -0.064100
     13 C13        -4.8310    0.7300    0.3080 cc        1 J25     -0.150400
     14 C14        -4.8550   -0.6540    0.3480 cd        1 J25     -0.144000
     15 C15        -5.8110   -1.1930   -0.5660 cd        1 J25     -0.152000
     16 C16        -6.4720   -0.1970   -1.2530 cc        1 J25     -0.167100
     17 S17        -5.9450    1.3180   -0.8050 ss        1 J25      0.047200
     18 O18        -2.0450    2.8630    0.4250 o         1 J25     -0.590100
     19 C19        -0.3860   -1.9920    0.0240 c         1 J25      0.685700
     20 O20         0.4680   -3.0390   -0.1940 os        1 J25     -0.431900
     21 C21        -0.0260   -4.3640    0.0560 c3        1 J25      0.139400
     22 C22        -0.8390   -4.8680   -1.1120 c3        1 J25     -0.126100
     23 O23        -1.5290   -2.2630    0.4270 o         1 J25     -0.596000
     24 C24         5.0530    0.6200   -0.2040 c         1 J25      0.721100
     25 O25         5.1170    1.8390    0.4370 os        1 J25     -0.443900
     26 C26         6.2000    1.9760    1.3780 c3        1 J25      0.149400
     27 C27         6.0910    3.3760    1.9320 c3        1 J25     -0.102100
     28 O28         5.8760   -0.2530    0.1230 o         1 J25     -0.583000
     29 H6          2.9240    1.8010   -2.3820 h1        1 J25      0.075700
     30 H6A         3.2990    2.4250   -0.7050 h1        1 J25      0.075700
     31 H8          3.5360   -0.7090   -2.7870 h1        1 J25      0.073700
     32 H8A         4.6420   -1.4780   -1.5460 h1        1 J25      0.073700
     33 H9          2.8480   -1.9000   -0.0200 hc        1 J25      0.078200
     34 H9A         2.1200   -2.2250   -1.6390 hc        1 J25      0.078200
     35 HN10       -2.3350   -0.3050    0.5090 hn        1 J25      0.366500
     36 H12        -3.9410    1.2220    2.1860 hc        1 J25      0.088700
     37 H12A       -4.4260    2.6480    1.1720 hc        1 J25      0.088700
     38 H14        -4.2290   -1.2830    0.9890 ha        1 J25      0.166000
     39 H15        -5.9810   -2.2640   -0.6880 ha        1 J25      0.159000
     40 H16        -7.2460   -0.3550   -2.0030 h4        1 J25      0.174000
     41 H21         0.9190   -4.9560    0.1880 h1        1 J25      0.063200
     42 H21A       -0.6270   -4.3750    1.0020 h1        1 J25      0.063200
     43 H22        -1.7640   -4.2530   -1.2280 hc        1 J25      0.049033
     44 H22A       -0.2490   -4.8060   -2.0580 hc        1 J25      0.049033
     45 H22B       -1.1280   -5.9310   -0.9340 hc        1 J25      0.049033
     46 H26         6.0830    1.1960    2.1760 h1        1 J25      0.054700
     47 H26A        7.1690    1.8090    0.8400 h1        1 J25      0.054700
     48 H27         6.1850    4.1300    1.1150 hc        1 J25      0.048700
     49 H27A        5.1060    3.5240    2.4350 hc        1 J25      0.048700
     50 H27B        6.9100    3.5350    2.6740 hc        1 J25      0.048700
@<TRIPOS>BOND
     1    1    2 1   
     2    1    5 2   
     3    1    9 1   
     4    2    3 2   
     5    2   19 1   
     6    3    4 1   
     7    3   10 1   
     8    4    5 1   
     9    5    6 1   
    10    6    7 1   
    11    6   29 1   
    12    6   30 1   
    13    7    8 1   
    14    7   24 1   
    15    8    9 1   
    16    8   31 1   
    17    8   32 1   
    18    9   33 1   
    19    9   34 1   
    20   10   11 1   
    21   10   35 1   
    22   11   12 1   
    23   11   18 2   
    24   12   13 1   
    25   12   36 1   
    26   12   37 1   
    27   13   14 2   
    28   13   17 1   
    29   14   15 1   
    30   14   38 1   
    31   15   16 2   
    32   15   39 1   
    33   16   17 1   
    34   16   40 1   
    35   19   20 1   
    36   19   23 2   
    37   20   21 1   
    38   21   22 1   
    39   21   41 1   
    40   21   42 1   
    41   22   43 1   
    42   22   44 1   
    43   22   45 1   
    44   24   25 1   
    45   24   28 2   
    46   25   26 1   
    47   26   27 1   
    48   26   46 1   
    49   26   47 1   
    50   27   48 1   
    51   27   49 1   
    52   27   50 1   
@<TRIPOS>SUBSTRUCTURE
     1 J25         1 TEMP              0 ****  ****    0 ROOT
