@<TRIPOS>MOLECULE
J25
   50    52     1     0     0
SMALL
bcc


@<TRIPOS>ATOM
      1 C1         -0.1000   -0.3420    0.6450 cc        1 J25     -0.009300
      2 C2          1.2860   -0.1490    0.9370 cc        1 J25     -0.243600
      3 C3          1.4650    0.3150    2.2610 cd        1 J25      0.100500
      4 S4         -0.0240    0.4980    3.0430 ss        1 J25      0.167200
      5 C5         -0.9020   -0.0150    1.7260 cd        1 J25     -0.242400
      6 C6         -2.3850   -0.1350    1.6830 c3        1 J25      0.160300
      7 N7         -2.9220   -0.2540    0.3360 n         1 J25     -0.392800
      8 C8         -2.1510   -1.1230   -0.5390 c3        1 J25      0.069000
      9 C9         -0.6560   -0.7990   -0.6440 c3        1 J25     -0.052100
     10 N10         2.6920    0.5840    2.8310 n         1 J25     -0.433100
     11 C11         2.8720    1.0720    4.1190 c         1 J25      0.658100
     12 C12         4.3000    1.3510    4.5600 c3        1 J25     -0.064100
     13 C13         5.2000    0.2040    4.3820 cc        1 J25     -0.150400
     14 C14         5.8120   -0.1850    3.2030 cd        1 J25     -0.144000
     15 C15         6.6490   -1.3270    3.3930 cd        1 J25     -0.152000
     16 C16         6.6370   -1.7500    4.7060 cc        1 J25     -0.167100
     17 S17         5.6520   -0.8000    5.6530 ss        1 J25      0.047200
     18 O18         1.9000    1.3010    4.8640 o         1 J25     -0.590100
     19 C19         2.3890   -0.3740    0.0230 c         1 J25      0.685700
     20 O20         2.0290   -0.8020   -1.2270 os        1 J25     -0.431900
     21 C21         3.0790   -1.0330   -2.1790 c3        1 J25      0.139400
     22 C22         3.7120   -2.3870   -1.9690 c3        1 J25     -0.126100
     23 O23         3.6010   -0.2130    0.2430 o         1 J25     -0.596000
     24 C24        -3.5120    0.8650   -0.2670 c         1 J25      0.721100
     25 O25        -3.9210    1.8540    0.6030 os        1 J25     -0.443900
     26 C26        -4.6910    2.9140    0.0020 c3        1 J25      0.149400
     27 C27        -5.0450    3.8550    1.1280 c3        1 J25     -0.102100
     28 O28        -3.7830    1.0040   -1.4720 o         1 J25     -0.583000
     29 H6         -2.6890   -1.0810    2.2230 h1        1 J25      0.075700
     30 H6A        -2.8630    0.7380    2.2130 h1        1 J25      0.075700
     31 H8         -2.6050   -1.0970   -1.5700 h1        1 J25      0.073700
     32 H8A        -2.2700   -2.1630   -0.1200 h1        1 J25      0.073700
     33 H9         -0.4840   -0.0010   -1.4170 hc        1 J25      0.078200
     34 H9A        -0.1130   -1.7170   -0.9960 hc        1 J25      0.078200
     35 HN10        3.5040    0.3710    2.2770 hn        1 J25      0.366500
     36 H12         4.2530    1.6550    5.6430 hc        1 J25      0.088700
     37 H12A        4.6780    2.2350    3.9740 hc        1 J25      0.088700
     38 H14         5.6870    0.3020    2.2310 ha        1 J25      0.166000
     39 H15         7.2170   -1.7910    2.5840 ha        1 J25      0.159000
     40 H16         7.1960   -2.5990    5.0990 h4        1 J25      0.174000
     41 H21         3.8430   -0.2150   -2.1120 h1        1 J25      0.063200
     42 H21A        2.5350   -0.9780   -3.1600 h1        1 J25      0.063200
     43 H22         4.2330   -2.4170   -0.9820 hc        1 J25      0.049033
     44 H22A        2.9370   -3.1900   -1.9870 hc        1 J25      0.049033
     45 H22B        4.4550   -2.5810   -2.7790 hc        1 J25      0.049033
     46 H26        -5.6000    2.4710   -0.4800 h1        1 J25      0.054700
     47 H26A       -4.0630    3.4120   -0.7820 h1        1 J25      0.054700
     48 H27        -5.6470    3.3280    1.9060 hc        1 J25      0.048700
     49 H27A       -4.1220    4.2580    1.6090 hc        1 J25      0.048700
     50 H27B       -5.6430    4.7030    0.7150 hc        1 J25      0.048700
@<TRIPOS>BOND
     1    1    2 1   
     2    1    5 2   
     3    1    9 1   
     4    2    3 2   
     5    2   19 1   
     6    3    4 1   
     7    3   10 1   
     8    4    5 1   
     9    5    6 1   
    10    6    7 1   
    11    6   29 1   
    12    6   30 1   
    13    7    8 1   
    14    7   24 1   
    15    8    9 1   
    16    8   31 1   
    17    8   32 1   
    18    9   33 1   
    19    9   34 1   
    20   10   11 1   
    21   10   35 1   
    22   11   12 1   
    23   11   18 2   
    24   12   13 1   
    25   12   36 1   
    26   12   37 1   
    27   13   14 2   
    28   13   17 1   
    29   14   15 1   
    30   14   38 1   
    31   15   16 2   
    32   15   39 1   
    33   16   17 1   
    34   16   40 1   
    35   19   20 1   
    36   19   23 2   
    37   20   21 1   
    38   21   22 1   
    39   21   41 1   
    40   21   42 1   
    41   22   43 1   
    42   22   44 1   
    43   22   45 1   
    44   24   25 1   
    45   24   28 2   
    46   25   26 1   
    47   26   27 1   
    48   26   46 1   
    49   26   47 1   
    50   27   48 1   
    51   27   49 1   
    52   27   50 1   
@<TRIPOS>SUBSTRUCTURE
     1 J25         1 TEMP              0 ****  ****    0 ROOT
