@<TRIPOS>MOLECULE
J28
   40    41     1     0     0
SMALL
bcc


@<TRIPOS>ATOM
      1 S           0.3410    0.0240   -0.6150 s6        1 J28      1.483100
      2 NB         -0.8440   -3.5680   -4.7280 ne        1 J28     -0.162400
      3 CG          0.5160   -4.0050   -4.4800 ca        1 J28      0.054400
      4 CH         -1.4630   -2.9670   -2.5260 ca        1 J28     -0.037600
      5 CK         -0.8750   -2.4470    0.1710 ca        1 J28      0.054700
      6 CN         -0.5470   -2.2210    1.5970 c3        1 J28     -0.081800
      7 OT          1.2290   -0.1600   -1.7550 o         1 J28     -0.734533
      8 CZ          3.1450   -4.9910   -4.2890 ca        1 J28      0.143100
      9 OC1         1.0070   -0.0580    0.6070 o         1 J28     -0.734533
     10 OC2        -0.5350    1.0900   -0.8110 o         1 J28     -0.734533
     11 CD1         1.5910   -3.1380   -4.1850 ca        1 J28      0.005600
     12 CD2         0.7970   -5.3770   -4.6730 ca        1 J28     -0.078000
     13 CE1         2.9060   -3.6310   -4.0950 ca        1 J28     -0.199000
     14 CE2         2.0860   -5.8840   -4.5820 ca        1 J28     -0.051300
     15 CI1        -1.0190   -1.7030   -2.1080 ca        1 J28     -0.079000
     16 CI2        -1.7140   -3.9620   -1.5580 ca        1 J28     -0.021300
     17 CJ1        -0.6200   -1.4680   -0.7950 ca        1 J28     -0.274500
     18 CJ2        -1.4480   -3.6680   -0.2190 ca        1 J28     -0.153000
     19 HOH         5.0250   -4.8430   -3.9500 ho        1 J28      0.432000
     20 HD2        -0.0340   -6.0680   -4.9030 ha        1 J28      0.167000
     21 HE1         3.7470   -2.9590   -3.8560 ha        1 J28      0.157000
     22 HI1        -0.9750   -0.8590   -2.8220 ha        1 J28      0.141000
     23 HJ2        -1.6740   -4.4260    0.5480 ha        1 J28      0.139000
     24 HNL         1.2280   -1.5370   -2.8910 hn        1 J28      0.481133
     25 HNLA        0.5790   -1.3560   -4.4460 hn        1 J28      0.481133
     26 HM          3.0570   -7.4540   -5.6570 hc        1 J28      0.062700
     27 HMA         2.8860   -7.7370   -3.8800 hc        1 J28      0.062700
     28 HMB         1.4340   -7.9030   -4.9660 hc        1 J28      0.062700
     29 HN          0.5510   -2.0270    1.7170 hc        1 J28      0.067367
     30 HNA        -1.0840   -1.3130    1.9740 hc        1 J28      0.067367
     31 HNB        -0.8350   -3.0960    2.2280 hc        1 J28      0.067367
     32 HP         -3.2430   -5.1720   -2.4480 hc        1 J28      0.050033
     33 HPA        -2.3810   -5.9470   -1.0530 hc        1 J28      0.050033
     34 HPB        -1.5540   -5.8000   -2.6580 hc        1 J28      0.050033
     35 OH          4.4010   -5.5370   -4.2140 oh        1 J28     -0.477100
     36 NL          1.3830   -1.7200   -3.9330 n4        1 J28     -0.735000
     37 CM          2.3700   -7.3220   -4.7830 c3        1 J28     -0.056800
     38 NA         -1.6690   -3.1830   -3.9400 nf        1 J28     -0.086400
     39 HL3         2.2120   -1.1810   -4.1960 hn        1 J28      0.481133
     40 CP         -2.2490   -5.2870   -1.9460 c3        1 J28     -0.062800
@<TRIPOS>BOND
     1    1    7 1   
     2    1    9 1   
     3    1   10 1   
     4    1   17 1   
     5    2    3 1   
     6    2   38 2   
     7    3   11 ar  
     8    3   12 ar  
     9    4   15 ar  
    10    4   16 ar  
    11    4   38 1   
    12    5    6 1   
    13    5   17 ar  
    14    5   18 ar  
    15    6   29 1   
    16    6   30 1   
    17    6   31 1   
    18    8   13 ar  
    19    8   14 ar  
    20    8   35 1   
    21   11   13 ar  
    22   11   36 1   
    23   12   14 ar  
    24   12   20 1   
    25   13   21 1   
    26   14   37 1   
    27   15   17 ar  
    28   15   22 1   
    29   16   18 ar  
    30   16   40 1   
    31   18   23 1   
    32   19   35 1   
    33   24   36 1   
    34   25   36 1   
    35   26   37 1   
    36   27   37 1   
    37   28   37 1   
    38   32   40 1   
    39   33   40 1   
    40   34   40 1   
    41   36   39 1   
@<TRIPOS>SUBSTRUCTURE
     1 J28         1 TEMP              0 ****  ****    0 ROOT
