@<TRIPOS>MOLECULE
J28
   39    34     1     0     0
SMALL
bcc


@<TRIPOS>ATOM
      1 S           0.6890    1.8910    3.3660 ss        1 J28      2.877000
      2 NA         -2.5700   -0.1240   -0.0950 n1        1 J28     -0.003500
      3 NB         -2.3370    0.2340   -1.2830 n1        1 J28     -0.003500
      4 CG         -0.9900    0.4170   -1.7240 c1        1 J28     -0.214000
      5 CH         -1.4880   -0.3450    0.8100 c1        1 J28     -0.145000
      6 OH          2.1810    1.5630   -3.9470 oh        1 J28     -0.264000
      7 CK          0.3460   -0.7780    2.8470 c1        1 J28      0.037000
      8 NL         -1.0920    2.7310   -1.0100 n3        1 J28     -0.322000
      9 CM          1.2570   -1.2580   -4.1820 c3        1 J28     -0.148000
     10 CN          1.2930   -1.0130    4.0130 c2        1 J28     -0.194000
     11 CP         -1.9030   -2.8070    0.5870 c3        1 J28     -0.177000
     12 OT          2.1990    1.8700    3.2970 os        1 J28     -1.061000
     13 CZ          1.4600    0.8890   -2.9400 c2        1 J28      0.118000
     14 OC1         0.2040    1.9060    4.7990 o         1 J28     -1.072500
     15 OC2         0.1350    3.1980    2.8560 o         1 J28     -1.072500
     16 CD1        -0.4000    1.6710   -1.6330 c2        1 J28      0.152000
     17 CD2        -0.3520   -0.5980   -2.4230 c2        1 J28     -0.040000
     18 CE1         0.8240    1.9070   -2.2410 c2        1 J28     -0.280000
     19 CE2         0.8740   -0.3590   -3.0310 c2        1 J28     -0.166000
     20 CI1        -0.9010    0.7330    1.4560 c1        1 J28     -0.046000
     21 CI2        -1.1580   -1.6400    1.1840 c2        1 J28     -0.036000
     22 CJ1         0.0160    0.5160    2.4740 c1        1 J28     -0.702000
     23 CJ2        -0.2400   -1.8540    2.2040 c2        1 J28     -0.165000
     24 HOH         3.0460    1.5730   -3.7360 ho        1 J28      0.214000
     25 HD2        -0.7780   -1.4670   -2.5130 ha        1 J28      0.130000
     26 HE1         1.2290    2.7900   -2.1900 ha        1 J28      0.141000
     27 HI1        -1.1790    1.6440    1.2360 ha        1 J28      0.146000
     28 HJ2        -0.0460   -2.7230    2.5960 ha        1 J28      0.117000
     29 HNL        -0.6270    3.4020   -0.6050 hn        1 J28      0.224500
     30 HNLA       -2.0070    2.7600   -1.0390 hn        1 J28      0.224500
     31 HM          2.2330   -1.2770   -4.2710 hc        1 J28      0.072667
     32 HMA         0.8600   -0.9150   -5.0120 hc        1 J28      0.072667
     33 HMB         0.9270   -2.1650   -4.0120 hc        1 J28      0.072667
     34 HN          0.9220   -0.6010    4.8220 ha        1 J28      0.093000
     35 HNA         2.1630   -0.6130    3.8110 ha        1 J28      0.093000
     36 HNB         1.4010   -1.9770    4.1570 ha        1 J28      0.093000
     37 HP         -2.4620   -3.2250    1.2760 hc        1 J28      0.078000
     38 HPA        -1.2620   -3.4630    0.2450 hc        1 J28      0.078000
     39 HPB        -2.4680   -2.4920   -0.1460 hc        1 J28      0.078000
@<TRIPOS>BOND
     1    1   14 1   
     2    1   15 1   
     3    2    3 1   
     4    4   16 1   
     5    4   17 1   
     6    5   20 1   
     7    5   21 1   
     8    6   13 1   
     9    6   24 1   
    10    7   22 1   
    11    7   23 1   
    12    8   16 1   
    13    8   29 1   
    14    8   30 1   
    15    9   19 1   
    16    9   31 1   
    17    9   32 1   
    18    9   33 1   
    19   10   34 1   
    20   10   35 1   
    21   10   36 1   
    22   11   21 1   
    23   11   37 1   
    24   11   38 1   
    25   11   39 1   
    26   13   18 1   
    27   13   19 1   
    28   16   18 1   
    29   17   19 1   
    30   17   25 1   
    31   18   26 1   
    32   20   27 1   
    33   21   23 1   
    34   23   28 1   
@<TRIPOS>SUBSTRUCTURE
     1 J28         1 TEMP              0 ****  ****    0 ROOT
