@<TRIPOS>MOLECULE
J28
   39    40     1     0     0
SMALL
bcc


@<TRIPOS>ATOM
      1 S           3.9960   -1.3340   -0.4490 s6        1 J28      1.459100
      2 NB         -1.2310   -0.1360    0.1010 ne        1 J28     -0.227400
      3 CG         -2.6590   -0.2460    0.1290 ca        1 J28      0.009400
      4 CH          0.7380    1.0600    0.0750 ca        1 J28      0.035400
      5 CK          3.5310    1.3920   -0.0410 ca        1 J28      0.051700
      6 CN          5.0000    1.5840   -0.1010 c3        1 J28     -0.092800
      7 OT          4.8420   -1.3930    0.6810 o         1 J28     -0.743867
      8 CZ         -5.4370   -0.6460    0.0490 ca        1 J28      0.172100
      9 OC1         4.6890   -1.0770   -1.6540 o         1 J28     -0.743867
     10 OC2         3.0740   -2.4040   -0.5340 o         1 J28     -0.743867
     11 CD1        -3.1930   -1.5730    0.2950 ca        1 J28      0.244600
     12 CD2        -3.5450    0.8280   -0.0390 ca        1 J28     -0.039000
     13 CE1        -4.5960   -1.7440    0.2300 ca        1 J28     -0.260000
     14 CE2        -4.9280    0.6590   -0.0820 ca        1 J28     -0.229300
     15 CI1         1.6010   -0.0370   -0.1270 ca        1 J28     -0.017000
     16 CI2         1.3050    2.3530    0.2230 ca        1 J28     -0.016300
     17 CJ1         2.9820    0.1130   -0.1880 ca        1 J28     -0.272500
     18 CJ2         2.6910    2.4930    0.1620 ca        1 J28     -0.188000
     19 HOH        -7.2660   -0.1050   -0.1220 ho        1 J28      0.416000
     20 HD2        -3.1420    1.8500   -0.1530 ha        1 J28      0.147000
     21 HE1        -5.0460   -2.7420    0.3310 ha        1 J28      0.144000
     22 HI1         1.1930   -1.0600   -0.2470 ha        1 J28      0.170000
     23 HJ2         3.1320    3.4940    0.2770 ha        1 J28      0.115000
     24 HNL        -1.4120   -2.5730    0.4460 hn        1 J28      0.422300
     25 HNLA       -2.7750   -3.5550    0.3790 hn        1 J28      0.422300
     26 HM         -6.5270    1.9200    0.6010 hc        1 J28      0.033700
     27 HMA        -5.2380    2.7700   -0.3430 hc        1 J28      0.033700
     28 HMB        -6.4310    1.7110   -1.1990 hc        1 J28      0.033700
     29 HN          5.3860    1.2160   -1.0890 hc        1 J28      0.062367
     30 HNA         5.2820    2.6560    0.0280 hc        1 J28      0.062367
     31 HNB         5.4910    0.9730    0.7010 hc        1 J28      0.062367
     32 HP         -0.1380    3.4400    1.3820 hc        1 J28      0.035700
     33 HPA         1.0850    4.4740    0.5330 hc        1 J28      0.035700
     34 HPB        -0.2510    3.6900   -0.4080 hc        1 J28      0.035700
     35 CP          0.4600    3.5510    0.4440 c3        1 J28     -0.042800
     36 OH         -6.7850   -0.9340    0.0060 oh        1 J28     -0.509100
     37 NL         -2.3940   -2.6630    0.5870 nh        1 J28     -0.829200
     38 CM         -5.8240    1.8220   -0.2650 c3        1 J28     -0.036800
     39 NA         -0.6910    0.9710    0.1290 nf        1 J28     -0.213400
@<TRIPOS>BOND
     1    1    7 1   
     2    1    9 1   
     3    1   10 1   
     4    1   17 1   
     5    2    3 1   
     6    2   39 2   
     7    3   11 ar  
     8    3   12 ar  
     9    4   15 ar  
    10    4   16 ar  
    11    4   39 1   
    12    5    6 1   
    13    5   17 ar  
    14    5   18 ar  
    15    6   29 1   
    16    6   30 1   
    17    6   31 1   
    18    8   13 ar  
    19    8   14 ar  
    20    8   36 1   
    21   11   13 ar  
    22   11   37 1   
    23   12   14 ar  
    24   12   20 1   
    25   13   21 1   
    26   14   38 1   
    27   15   17 ar  
    28   15   22 1   
    29   16   18 ar  
    30   16   35 1   
    31   18   23 1   
    32   19   36 1   
    33   24   37 1   
    34   25   37 1   
    35   26   38 1   
    36   27   38 1   
    37   28   38 1   
    38   32   35 1   
    39   33   35 1   
    40   34   35 1   
@<TRIPOS>SUBSTRUCTURE
     1 J28         1 TEMP              0 ****  ****    0 ROOT
