@<TRIPOS>MOLECULE
J28
   39    40     1     0     0
SMALL
bcc


@<TRIPOS>ATOM
      1 S           0.4000   -0.0450   -0.4490 s6        1 J28      1.464100
      2 NB         -1.0600   -3.4090   -4.7420 ne        1 J28     -0.142400
      3 CG          0.3270   -3.8040   -4.6100 ca        1 J28     -0.074600
      4 CH         -1.4830   -2.9370   -2.4580 ca        1 J28     -0.005600
      5 CK         -0.6970   -2.6010    0.2200 ca        1 J28      0.029700
      6 CN         -0.2590   -2.4730    1.6300 c3        1 J28     -0.068800
      7 OT          1.2060   -0.2460    0.6900 o         1 J28     -0.745867
      8 CZ          2.9550   -4.7420   -4.4090 ca        1 J28      0.163100
      9 OC1        -0.5520    0.9830   -0.3150 o         1 J28     -0.745867
     10 OC2         1.1410    0.0230   -1.6660 o         1 J28     -0.745867
     11 CD1         1.3740   -2.8840   -4.2770 ca        1 J28      0.233600
     12 CD2         0.6400   -5.1430   -4.8890 ca        1 J28     -0.040000
     13 CE1         2.6890   -3.4010   -4.1500 ca        1 J28     -0.280000
     14 CE2         1.9390   -5.6360   -4.8020 ca        1 J28     -0.173300
     15 CI1        -1.0150   -1.7020   -1.9830 ca        1 J28     -0.046000
     16 CI2        -1.6370   -4.0030   -1.5460 ca        1 J28     -0.044300
     17 CJ1        -0.5320   -1.5490   -0.6860 ca        1 J28     -0.257500
     18 CJ2        -1.2750   -3.8030   -0.2130 ca        1 J28     -0.165000
     19 HOH         4.8010   -4.5560   -3.9530 ho        1 J28      0.415000
     20 HD2        -0.1670   -5.8410   -5.1700 ha        1 J28      0.131000
     21 HE1         3.5060   -2.7320   -3.8390 ha        1 J28      0.141000
     22 HI1        -0.9970   -0.8160   -2.6440 ha        1 J28      0.146000
     23 HJ2        -1.4210   -4.6220    0.5070 ha        1 J28      0.117000
     24 HNL         1.7660   -1.0330   -3.5230 hn        1 J28      0.429300
     25 HNLA        0.2380   -1.2020   -4.1400 hn        1 J28      0.429300
     26 HM          2.7220   -7.1320   -6.1150 hc        1 J28      0.033367
     27 HMA         1.3270   -7.6780   -5.0910 hc        1 J28      0.033367
     28 HMB         2.9730   -7.4550   -4.3530 hc        1 J28      0.033367
     29 HN          0.8490   -2.3030    1.6710 hc        1 J28      0.053700
     30 HNA        -0.5140   -3.3840    2.2230 hc        1 J28      0.053700
     31 HNB        -0.7460   -1.5830    2.1040 hc        1 J28      0.053700
     32 HP         -3.1830   -5.1980   -2.4330 hc        1 J28      0.038700
     33 HPA        -2.2300   -6.0330   -1.1360 hc        1 J28      0.038700
     34 HPB        -1.4920   -5.7600   -2.7690 hc        1 J28      0.038700
     35 CP         -2.1620   -5.3150   -1.9900 c3        1 J28     -0.051800
     36 OH          4.2290   -5.2580   -4.2970 oh        1 J28     -0.510100
     37 NL          1.1800   -1.5180   -4.1800 nh        1 J28     -0.813200
     38 CM          2.2500   -7.0490   -5.1030 c3        1 J28     -0.022800
     39 NA         -1.8140   -3.0780   -3.8600 nf        1 J28     -0.143400
@<TRIPOS>BOND
     1    1    7 1   
     2    1    9 1   
     3    1   10 1   
     4    1   17 1   
     5    2    3 1   
     6    2   39 2   
     7    3   11 ar  
     8    3   12 ar  
     9    4   15 ar  
    10    4   16 ar  
    11    4   39 1   
    12    5    6 1   
    13    5   17 ar  
    14    5   18 ar  
    15    6   29 1   
    16    6   30 1   
    17    6   31 1   
    18    8   13 ar  
    19    8   14 ar  
    20    8   36 1   
    21   11   13 ar  
    22   11   37 1   
    23   12   14 ar  
    24   12   20 1   
    25   13   21 1   
    26   14   38 1   
    27   15   17 ar  
    28   15   22 1   
    29   16   18 ar  
    30   16   35 1   
    31   18   23 1   
    32   19   36 1   
    33   24   37 1   
    34   25   37 1   
    35   26   38 1   
    36   27   38 1   
    37   28   38 1   
    38   32   35 1   
    39   33   35 1   
    40   34   35 1   
@<TRIPOS>SUBSTRUCTURE
     1 J28         1 TEMP              0 ****  ****    0 ROOT
