@<TRIPOS>MOLECULE
J28
   39    40     1     0     0
SMALL
bcc


@<TRIPOS>ATOM
      1 S           0.4220   -0.4700    0.0710 s6        1 J28      1.464100
      2 NB         -0.5120   -3.5400   -4.5760 ne        1 J28     -0.142400
      3 CG          0.6780   -4.2130   -4.0980 ca        1 J28     -0.074600
      4 CH         -1.4180   -2.9440   -2.4670 ca        1 J28     -0.005600
      5 CK         -1.3170   -2.7270    0.3330 ca        1 J28      0.029700
      6 CN         -1.2510   -2.6640    1.8120 c3        1 J28     -0.068800
      7 OT          1.4560   -0.5830   -0.9060 o         1 J28     -0.745867
      8 CZ          2.9060   -5.6750   -3.2470 ca        1 J28      0.163100
      9 OC1         0.8390   -0.8140    1.3730 o         1 J28     -0.745867
     10 OC2        -0.2980    0.7360   -0.0120 o         1 J28     -0.745867
     11 CD1         1.7660   -3.5260   -3.4690 ca        1 J28      0.233600
     12 CD2         0.7700   -5.5930   -4.3330 ca        1 J28     -0.040000
     13 CE1         2.8650   -4.3020   -3.0190 ca        1 J28     -0.280000
     14 CE2         1.8690   -6.3440   -3.9250 ca        1 J28     -0.173300
     15 CI1        -0.8470   -1.8260   -1.8420 ca        1 J28     -0.046000
     16 CI2        -2.0250   -3.9360   -1.6680 ca        1 J28     -0.043300
     17 CJ1        -0.7040   -1.7510   -0.4580 ca        1 J28     -0.257500
     18 CJ2        -1.9960   -3.7890   -0.2800 ca        1 J28     -0.165000
     19 HOH         4.5630   -5.8690   -2.3160 ho        1 J28      0.415000
     20 HD2        -0.0600   -6.1130   -4.8410 ha        1 J28      0.130000
     21 HE1         3.6900   -3.8130   -2.4800 ha        1 J28      0.141000
     22 HI1        -0.4720   -0.9770   -2.4420 ha        1 J28      0.146000
     23 HJ2        -2.4930   -4.5450    0.3460 ha        1 J28      0.117000
     24 HNL         1.0080   -1.6400   -3.5740 hn        1 J28      0.429300
     25 HNLA        2.3180   -1.7820   -2.5710 hn        1 J28      0.429300
     26 HM          0.9460   -8.2200   -4.4350 hc        1 J28      0.033367
     27 HMA         2.3520   -8.3300   -3.2880 hc        1 J28      0.033367
     28 HMB         2.6410   -7.9970   -5.0420 hc        1 J28      0.033367
     29 HN         -0.1830   -2.7280    2.1500 hc        1 J28      0.053700
     30 HNA        -1.6520   -1.6840    2.1740 hc        1 J28      0.053700
     31 HNB        -1.8370   -3.4900    2.2840 hc        1 J28      0.053700
     32 HP         -1.9280   -5.7080   -2.8720 hc        1 J28      0.038700
     33 HPA        -3.1120   -5.7880   -1.5020 hc        1 J28      0.038700
     34 HPB        -3.4940   -4.7980   -2.9730 hc        1 J28      0.038700
     35 CP         -2.6740   -5.1180   -2.2820 c3        1 J28     -0.051800
     36 OH          3.9710   -6.4430   -2.8230 oh        1 J28     -0.510100
     37 NL          1.8400   -2.1480   -3.3770 nv        1 J28     -0.813200
     38 CM          1.9500   -7.7970   -4.1860 c3        1 J28     -0.022800
     39 NA         -1.3870   -3.0410   -3.9110 nf        1 J28     -0.143400
@<TRIPOS>BOND
     1    1    7 1   
     2    1    9 1   
     3    1   10 1   
     4    1   17 1   
     5    2    3 1   
     6    2   39 2   
     7    3   11 ar  
     8    3   12 ar  
     9    4   15 ar  
    10    4   16 ar  
    11    4   39 1   
    12    5    6 1   
    13    5   17 ar  
    14    5   18 ar  
    15    6   29 1   
    16    6   30 1   
    17    6   31 1   
    18    8   13 ar  
    19    8   14 ar  
    20    8   36 1   
    21   11   13 ar  
    22   11   37 1   
    23   12   14 ar  
    24   12   20 1   
    25   13   21 1   
    26   14   38 1   
    27   15   17 ar  
    28   15   22 1   
    29   16   18 ar  
    30   16   35 1   
    31   18   23 1   
    32   19   36 1   
    33   24   37 1   
    34   25   37 1   
    35   26   38 1   
    36   27   38 1   
    37   28   38 1   
    38   32   35 1   
    39   33   35 1   
    40   34   35 1   
@<TRIPOS>SUBSTRUCTURE
     1 J28         1 TEMP              0 ****  ****    0 ROOT
