@<TRIPOS>MOLECULE
J2I
   60    62     1     0     0
SMALL
bcc


@<TRIPOS>ATOM
      1 C1          0.8950    3.6150    2.6330 c3        1 J2I     -0.369000
      2 C2          1.9900    2.9540    1.8480 c1        1 J2I     -0.026000
      3 C3          1.6150    1.6610   13.4490 c2        1 J2I     -0.210000
      4 C4          2.1640    0.4590   13.7730 c2        1 J2I     -0.137000
      5 C5          6.5990    0.0010    1.5160 c2        1 J2I     -0.197000
      6 C6          1.2060    3.4960    4.0880 c1        1 J2I      0.248000
      7 C7          0.9690    0.0390   11.8030 c2        1 J2I     -0.251000
      8 C8          1.4900    2.8650   14.2330 c1        1 J2I      0.080000
      9 C9          0.7390    1.5020   12.1930 c3        1 J2I      0.138000
     10 C10         1.7640   -0.5410   12.7580 c2        1 J2I      0.136000
     11 C11         2.8850    2.4440    2.7730 c2        1 J2I     -0.446000
     12 C12         7.0450   -1.1850    0.8240 c2        1 J2I     -0.088000
     13 C13         5.3050    0.2530    1.0000 c2        1 J2I     -0.074000
     14 C14         3.8930    1.4540    2.5660 c2        1 J2I      0.383000
     15 C15         3.5040    0.7600    4.8680 c2        1 J2I      0.254000
     16 C16         1.1870   -0.7060    9.4160 c2        1 J2I      0.311000
     17 C17         2.8050   -0.3800    6.9110 c2        1 J2I     -0.191000
     18 C18         4.5680   -1.3870    5.5530 c3        1 J2I     -0.131000
     19 C19         2.6490    0.5690    7.8750 c2        1 J2I      0.042000
     20 C20         5.9930   -1.2310    5.6280 c1        1 J2I     -0.054000
     21 C22         3.8230    3.4760   14.2760 c3        1 J2I     -0.171000
     22 C23         0.3110   -0.5900   10.6550 c3        1 J2I     -0.119000
     23 N24         5.0400   -0.7860    0.0720 na        1 J2I     -0.138000
     24 N25         4.3110    0.7120    3.6650 na        1 J2I     -0.318000
     25 N26         2.6420    1.7840    5.1360 n2        1 J2I     -0.233000
     26 N27         6.0730   -1.6030   -0.0490 n2        1 J2I     -0.023000
     27 N28         2.5370    2.8110    4.2010 n4        1 J2I      0.028000
     28 N29         3.6730   -0.2520    5.7980 nh        1 J2I     -0.215000
     29 N30         1.8570    0.4470    9.0000 n         1 J2I     -0.319000
     30 N31         4.4050    1.2810    1.3160 nh        1 J2I     -0.181000
     31 O32         1.2780   -1.7760    8.7900 o         1 J2I     -0.341000
     32 O33         2.4220    3.6530   14.6030 os        1 J2I     -0.063000
     33 F34         1.0500    2.3920   11.1850 f         1 J2I     -0.156000
     34 F35         2.1520   -1.8170   12.8300 f         1 J2I     -0.065000
     35 H1          0.7640    4.6980    2.3450 hc        1 J2I      0.213000
     36 H2         -0.0980    3.1250    2.4070 hc        1 J2I      0.213000
     37 H3         -0.3420    1.6490   12.4890 h1        1 J2I      0.154000
     38 H4          2.7740    0.1990   14.6400 ha        1 J2I      0.176000
     39 H5          7.1600    0.5850    2.2380 ha        1 J2I      0.181000
     40 H6          3.1750    3.5740    4.5120 hn        1 J2I      0.248000
     41 H17         2.9260   -3.4550    7.3850 ha        1 J2I      0.002000
     42 H17A        2.4500   -3.6090    7.8430 ha        1 J2I      0.002000
     43 H18         4.3630   -2.1790    6.3640 h1        1 J2I      0.189500
     44 H18A        4.2860   -1.9010    4.5810 h1        1 J2I      0.189500
     45 H19         2.2840   -1.3610    6.9390 h4        1 J2I      0.199000
     46 H19A        3.1560    1.5550    7.8110 h4        1 J2I      0.150000
     47 H20         1.7650    1.2630    9.5710 hn        1 J2I      0.263000
     48 H20A        6.4610   -0.3070    5.9850 ha        1 J2I      0.086000
     49 H21         8.2090   -2.9020    1.3630 hc        1 J2I      0.107667
     50 H21A        8.9230   -1.8690    0.0540 hc        1 J2I      0.107667
     51 H21B        8.9470   -1.2920    1.7780 hc        1 J2I      0.107667
     52 H22         4.0880    4.2970   13.5680 h1        1 J2I      0.103000
     53 H22A        4.0070    2.4750   13.8220 h1        1 J2I      0.103000
     54 H22B        4.3690    3.5910   15.2430 h1        1 J2I      0.103000
     55 H23        -0.6110   -0.0110   10.3710 hc        1 J2I      0.138500
     56 H23A       -0.0070   -1.6380   10.9240 hc        1 J2I      0.138500
     57 HN31        4.9830   -0.0210    3.5380 hn        1 J2I      0.278000
     58 HN24        4.2710   -0.8480   -0.5610 hn        1 J2I      0.293000
     59 H312        4.0340    1.8650    0.5820 hn        1 J2I      0.313000
     60 C21         8.3480   -1.8470    1.0150 c3        1 J2I     -0.160000
@<TRIPOS>BOND
     1    1    2 1   
     2    1    6 1   
     3    1   35 1   
     4    1   36 1   
     5    2   11 1   
     6    3    4 1   
     7    3    8 1   
     8    3    9 1   
     9    4   10 1   
    10    4   38 1   
    11    5   12 1   
    12    5   13 1   
    13    5   39 1   
    14    6   27 1   
    15    7    9 1   
    16    7   10 1   
    17    7   22 1   
    18    8   32 1   
    19    9   33 1   
    20    9   37 1   
    21   10   34 1   
    22   11   14 1   
    23   11   27 1   
    24   12   26 1   
    25   12   60 1   
    26   13   23 1   
    27   13   30 1   
    28   14   24 1   
    29   14   30 1   
    30   15   24 1   
    31   15   25 1   
    32   15   28 1   
    33   16   22 1   
    34   16   29 1   
    35   16   31 1   
    36   17   19 1   
    37   17   28 1   
    38   17   45 1   
    39   18   20 1   
    40   18   28 1   
    41   18   43 1   
    42   18   44 1   
    43   19   29 1   
    44   19   46 1   
    45   20   48 1   
    46   21   32 1   
    47   21   52 1   
    48   21   53 1   
    49   21   54 1   
    50   22   55 1   
    51   22   56 1   
    52   23   26 1   
    53   23   58 1   
    54   24   57 1   
    55   25   27 1   
    56   27   40 1   
    57   29   47 1   
    58   30   59 1   
    59   41   42 1   
    60   49   60 1   
    61   50   60 1   
    62   51   60 1   
@<TRIPOS>SUBSTRUCTURE
     1 J2I         1 TEMP              0 ****  ****    0 ROOT
