@<TRIPOS>MOLECULE
J2I
   59    63     1     0     0
SMALL
bcc


@<TRIPOS>ATOM
      1 C1          6.7640    2.8010    1.5350 cc        1 J2I     -0.190000
      2 C2          6.3940    1.4330    1.6240 cc        1 J2I     -0.144000
      3 C3         -5.5700   -1.0320    1.5100 ca        1 J2I     -0.235000
      4 C4         -6.4710   -0.1990   -0.6010 ca        1 J2I     -0.235000
      5 C5          2.5770   -2.5330    0.8040 cc        1 J2I     -0.254300
      6 C6          5.8350    3.4640    0.7020 cd        1 J2I     -0.114100
      7 C7         -4.0400   -0.4300   -0.3160 ca        1 J2I     -0.177300
      8 C8         -6.6590   -0.6670    0.7010 ca        1 J2I      0.180100
      9 C9         -4.2730   -0.9090    0.9950 ca        1 J2I      0.199400
     10 C10        -5.1600   -0.0840   -1.0980 ca        1 J2I      0.199400
     11 C11         5.2350    1.2640    0.8400 cd        1 J2I     -0.286600
     12 C12         2.4820   -3.9140    0.3800 cc        1 J2I      0.312600
     13 C13         3.9560   -2.2430    0.7890 cd        1 J2I      0.085300
     14 C14         4.3510    0.1540    0.5120 cd        1 J2I      0.754200
     15 C15         3.0810    1.6290   -0.8090 cc        1 J2I      0.833900
     16 C16        -2.0490    1.0620   -0.5920 c         1 J2I      0.663100
     17 C17         1.0950    2.8950   -1.4850 c3        1 J2I      0.170300
     18 C18         1.3220    0.6300   -2.2310 c3        1 J2I      0.170300
     19 C19        -0.0720    2.5000   -0.5550 c3        1 J2I      0.061000
     20 C20         0.1460    0.1730   -1.3380 c3        1 J2I      0.061000
     21 C22        -9.0200   -0.4040    0.5320 c3        1 J2I      0.110700
     22 C23        -2.6600   -0.3080   -0.8500 c3        1 J2I     -0.091100
     23 N24         4.5980   -3.4230    0.3110 na        1 J2I     -0.033600
     24 N25         3.2950    0.3240   -0.2970 nc        1 J2I     -0.790000
     25 N26         3.8470    2.7280   -0.5340 nd        1 J2I     -0.566800
     26 N27         3.7290   -4.4140    0.1340 nd        1 J2I     -0.507800
     27 N28         4.8930    2.5340    0.2720 na        1 J2I      0.231200
     28 N29         2.0300    1.8130   -1.7700 nh        1 J2I     -0.691300
     29 N30        -0.7130    1.2590   -0.9310 n         1 J2I     -0.479800
     30 N31         4.6230   -1.0660    1.1360 nh        1 J2I     -0.707300
     31 O32        -2.7120    2.0070   -0.1240 o         1 J2I     -0.594100
     32 O33        -7.8930   -0.8230    1.2960 os        1 J2I     -0.318900
     33 F34        -3.2260   -1.2700    1.7730 f         1 J2I     -0.132400
     34 F35        -4.9870    0.3580   -2.3660 f         1 J2I     -0.132400
     35 H1          7.6140    3.2730    2.0200 ha        1 J2I      0.162000
     36 H2          6.9010    0.6620    2.1950 ha        1 J2I      0.151000
     37 H3         -5.7370   -1.4020    2.5310 ha        1 J2I      0.164500
     38 H4         -7.3140    0.0870   -1.2440 ha        1 J2I      0.164500
     39 H5          1.7630   -1.8660    1.0640 ha        1 J2I      0.177000
     40 H6          5.7870    4.5100    0.3950 h4        1 J2I      0.188000
     41 H17         0.6830    3.2160   -2.4840 h1        1 J2I      0.077450
     42 H17A        1.6170    3.7780   -1.0270 h1        1 J2I      0.077450
     43 H18         2.0220   -0.2390   -2.3610 h1        1 J2I      0.077450
     44 H18A        0.9200    0.9060   -3.2490 h1        1 J2I      0.077450
     45 H19         0.3130    2.4150    0.5030 h1        1 J2I      0.058700
     46 H19A       -0.8380    3.3280   -0.5800 h1        1 J2I      0.058700
     47 H20        -0.4440   -0.5770   -1.9360 h1        1 J2I      0.058700
     48 H20A        0.5580   -0.3510   -0.4260 h1        1 J2I      0.058700
     49 H21         0.9630   -4.7800   -0.8480 hc        1 J2I      0.051033
     50 H21A        1.3100   -5.6910    0.6810 hc        1 J2I      0.051033
     51 H21B        0.3960   -4.1220    0.7490 hc        1 J2I      0.051033
     52 H22        -9.8820   -0.5900    1.2220 h1        1 J2I      0.050033
     53 H22A       -8.9430    0.6810    0.2770 h1        1 J2I      0.050033
     54 H22B       -9.1160   -1.0200   -0.3950 h1        1 J2I      0.050033
     55 H23        -2.0110   -1.0950   -0.3770 hc        1 J2I      0.080200
     56 H23A       -2.6760   -0.4820   -1.9620 hc        1 J2I      0.080200
     57 HN31        5.5350   -1.1510    1.5300 hn        1 J2I      0.446800
     58 HN24        5.5680   -3.6320    0.3730 hn        1 J2I      0.311700
     59 C21         1.2240   -4.6690    0.2350 c3        1 J2I     -0.122400
@<TRIPOS>BOND
     1    1    2 1   
     2    1    6 2   
     3    1   35 1   
     4    2   11 2   
     5    2   36 1   
     6    3    8 ar  
     7    3    9 ar  
     8    3   37 1   
     9    4    8 ar  
    10    4   10 ar  
    11    4   38 1   
    12    5   12 1   
    13    5   13 2   
    14    5   39 1   
    15    6   27 1   
    16    6   40 1   
    17    7    9 ar  
    18    7   10 ar  
    19    7   22 1   
    20    8   32 1   
    21    9   33 1   
    22   10   34 1   
    23   11   14 1   
    24   11   27 1   
    25   12   26 2   
    26   12   59 1   
    27   13   23 1   
    28   13   30 1   
    29   14   24 2   
    30   14   30 1   
    31   15   24 1   
    32   15   25 2   
    33   15   28 1   
    34   16   22 1   
    35   16   29 1   
    36   16   31 2   
    37   17   19 1   
    38   17   28 1   
    39   17   41 1   
    40   17   42 1   
    41   18   20 1   
    42   18   28 1   
    43   18   43 1   
    44   18   44 1   
    45   19   29 1   
    46   19   45 1   
    47   19   46 1   
    48   20   29 1   
    49   20   47 1   
    50   20   48 1   
    51   21   32 1   
    52   21   52 1   
    53   21   53 1   
    54   21   54 1   
    55   22   55 1   
    56   22   56 1   
    57   23   26 1   
    58   23   58 1   
    59   25   27 1   
    60   30   57 1   
    61   49   59 1   
    62   50   59 1   
    63   51   59 1   
@<TRIPOS>SUBSTRUCTURE
     1 J2I         1 TEMP              0 ****  ****    0 ROOT
