@<TRIPOS>MOLECULE
J2I
   59    58     1     0     0
SMALL
bcc


@<TRIPOS>ATOM
      1 C1          0.7030    1.2320   -1.0690 c3        1 J2I     -0.324000
      2 C2          2.1350    1.2910   -0.6080 c1        1 J2I     -0.119000
      3 C3          5.5470    1.7140   15.0930 c1        1 J2I     -0.263000
      4 C4          3.5660    2.2670   14.1910 c1        1 J2I     -0.081000
      5 C5          5.7020    1.0230    3.6850 c2        1 J2I     -0.277000
      6 C6         -0.1640    1.0740    0.1330 c1        1 J2I      0.172000
      7 C7          5.4780    1.8190   12.6940 c2        1 J2I     -0.322000
      8 C8          4.9600    1.5890   16.1400 c1        1 J2I      0.094000
      9 C9          6.3800    1.7330   13.8960 c3        1 J2I      0.248000
     10 C10         4.1720    2.1440   12.8720 c2        1 J2I      0.058000
     11 C11         2.1590    1.1440    0.7330 c2        1 J2I     -0.353000
     12 C12         7.1280    0.9150    3.8750 c2        1 J2I     -0.113000
     13 C13         5.5240    1.1940    2.2880 c2        1 J2I      0.003000
     14 C14         3.2460    0.8990    1.6790 c2        1 J2I      0.250000
     15 C15         1.6000   -0.5170    2.8460 c2        1 J2I      0.236000
     16 C16         0.8070    0.4450    8.8290 c1        1 J2I      0.272000
     17 C17         0.1240   -2.1180    4.0100 c3        1 J2I     -0.033000
     18 C18         4.2700   -1.7400    6.0350 c1        1 J2I     -0.224000
     19 C19        -0.6190   -1.2740    5.0270 c2        1 J2I     -0.081000
     20 C20         3.6030   -0.7480    5.9840 c1        1 J2I     -0.224000
     21 C22         3.2210    0.6140   17.3230 c3        1 J2I     -0.086000
     22 C23         2.0910    0.5240    9.0540 c2        1 J2I     -0.423000
     23 N24         6.8300    1.1590    1.7400 na        1 J2I     -0.141000
     24 N25         2.8930    0.0480    2.7770 na        1 J2I     -0.346000
     25 N26         0.5150   -0.0140    2.2080 n2        1 J2I     -0.258000
     26 N27         7.7660    1.0090    2.6670 n2        1 J2I     -0.080000
     27 N28         0.7320    1.0380    1.3240 n4        1 J2I      0.001000
     28 N29         1.4510   -1.6940    3.6320 nh        1 J2I     -0.253000
     29 N30        -0.0600   -0.3460    5.7020 n2        1 J2I     -0.261000
     30 N31         4.4150    1.4480    1.4800 n2        1 J2I     -0.164000
     31 O32        -0.3660    0.3710    8.6170 o         1 J2I     -0.220000
     32 O33         4.2860    1.6000   17.2690 os        1 J2I     -0.099000
     33 F34         7.2340    0.6410   13.8200 f         1 J2I     -0.152000
     34 F35         3.3290    2.2750   11.8140 f         1 J2I     -0.097000
     35 H1          0.4100    2.1530   -1.6410 hc        1 J2I      0.175000
     36 H2          0.5560    0.3580   -1.7620 hc        1 J2I      0.175000
     37 H3          7.0310    2.6650   13.9330 h1        1 J2I      0.115000
     38 H4          3.4860    3.2750   14.6170 ha        1 J2I      0.086000
     39 H5          4.9490    1.0180    4.4650 ha        1 J2I      0.158000
     40 H6          0.5200    1.9160    1.8320 hn        1 J2I      0.232000
     41 H17        -0.5220   -2.1970    3.0890 h1        1 J2I      0.126000
     42 H17A        0.2370   -3.1540    4.4490 h1        1 J2I      0.126000
     43 H18         2.1000   -1.7380    4.4000 hn        1 J2I      0.219000
     44 H18A        4.8730   -2.6140    6.0800 ha        1 J2I      0.228000
     45 H19         2.8170    0.0750    8.3650 ha        1 J2I      0.185500
     46 H19A       -1.6890   -1.5720    5.1020 h4        1 J2I      0.106000
     47 H20        -0.6460    0.1440    6.3470 hn        1 J2I      0.163000
     48 H20A        3.0040    0.1310    5.9530 ha        1 J2I      0.228000
     49 H21         7.0470    0.7120    5.9930 hc        1 J2I      0.086667
     50 H21A        8.5200    1.5710    5.3660 hc        1 J2I      0.086667
     51 H21B        8.3790   -0.2280    5.1880 hc        1 J2I      0.086667
     52 H22         2.5450    0.7400   16.4440 h1        1 J2I      0.111000
     53 H22A        3.6660   -0.4080   17.3520 h1        1 J2I      0.111000
     54 H22B        2.7090    0.8680   18.2840 h1        1 J2I      0.111000
     55 H23         5.9230    1.6040   11.7180 ha        1 J2I      0.164000
     56 H23A        2.4900    1.0380    9.9380 ha        1 J2I      0.185500
     57 HN31        3.6350   -0.3780    3.2950 hn        1 J2I      0.251000
     58 HN24        7.0720    1.3160    0.7880 hn        1 J2I      0.283000
     59 C21         7.8050    0.7330    5.1720 c3        1 J2I     -0.142000
@<TRIPOS>BOND
     1    1    2 1   
     2    1    6 1   
     3    1   35 1   
     4    1   36 1   
     5    2   11 1   
     6    3    8 1   
     7    3    9 1   
     8    4   10 1   
     9    4   38 1   
    10    5   12 1   
    11    5   13 1   
    12    5   39 1   
    13    6   27 1   
    14    7    9 1   
    15    7   10 1   
    16    7   55 1   
    17    8   32 1   
    18    9   33 1   
    19    9   37 1   
    20   10   34 1   
    21   11   14 1   
    22   11   27 1   
    23   12   26 1   
    24   12   59 1   
    25   13   23 1   
    26   13   30 1   
    27   14   24 1   
    28   14   30 1   
    29   15   24 1   
    30   15   25 1   
    31   15   28 1   
    32   16   22 1   
    33   16   31 1   
    34   17   19 1   
    35   17   28 1   
    36   17   41 1   
    37   17   42 1   
    38   18   20 1   
    39   18   44 1   
    40   19   29 1   
    41   19   46 1   
    42   20   48 1   
    43   21   32 1   
    44   21   52 1   
    45   21   53 1   
    46   21   54 1   
    47   22   45 1   
    48   22   56 1   
    49   23   26 1   
    50   23   58 1   
    51   24   57 1   
    52   25   27 1   
    53   27   40 1   
    54   28   43 1   
    55   29   47 1   
    56   49   59 1   
    57   50   59 1   
    58   51   59 1   
@<TRIPOS>SUBSTRUCTURE
     1 J2I         1 TEMP              0 ****  ****    0 ROOT
