@<TRIPOS>MOLECULE
J2T
   31    34     1     0     0
SMALL
bcc


@<TRIPOS>ATOM
      1 NAA        -0.0490   -0.2420    0.2840 nc        1 J2T     -0.081000
      2 CAB         1.3180   -0.1390    0.2330 cd        1 J2T     -0.126300
      3 CAC         2.3880   -0.1200    1.1810 cd        1 J2T     -0.029000
      4 CAD         3.6560    0.0110    0.7040 cc        1 J2T     -0.235300
      5 CAE         5.0420    1.2110   -3.4440 ca        1 J2T     -0.104000
      6 CAF         5.4910    1.2310   -4.7690 ca        1 J2T     -0.104000
      7 CAG         6.5050    0.3730   -5.1580 ca        1 J2T     -0.085300
      8 CAH         7.1370    0.2200   -6.5000 c3        1 J2T     -0.036100
      9 CAI         8.1960   -0.8790   -6.3280 c3        1 J2T     -0.079400
     10 NAJ        -0.4670   -0.1910   -0.9710 nc        1 J2T     -0.042000
     11 NAK         0.4580   -0.0660   -1.8530 nd        1 J2T     -0.165400
     12 NAL         1.6450   -0.0230   -1.1760 na        1 J2T      0.316500
     13 NAM         2.8860    0.0890   -1.6590 nd        1 J2T     -0.487800
     14 CAN         3.8880    0.1270   -0.7430 cc        1 J2T      0.602200
     15 NAO         5.2130    0.3510   -1.1470 nu        1 J2T     -0.700300
     16 CAP         5.6060    0.3220   -2.5110 ca        1 J2T      0.102600
     17 CAQ         6.6430   -0.5590   -2.9140 ca        1 J2T     -0.148000
     18 CAR         7.0810   -0.5190   -4.2240 ca        1 J2T     -0.070300
     19 CAS         8.1480   -1.3430   -4.8650 c3        1 J2T     -0.037100
     20 HAC         2.1490   -0.2090    2.2520 ha        1 J2T      0.178000
     21 HAD         4.5180    0.0430    1.3870 ha        1 J2T      0.161000
     22 HAF         5.0340    1.9280   -5.4870 ha        1 J2T      0.142000
     23 HAH         6.3760   -0.0720   -7.2670 hc        1 J2T      0.057700
     24 HAHA        7.6040    1.1810   -6.8330 hc        1 J2T      0.057700
     25 HAI         9.2110   -0.4840   -6.5770 hc        1 J2T      0.047200
     26 HAIA        7.9850   -1.7340   -7.0140 hc        1 J2T      0.047200
     27 HNAO        5.8810   -0.0670   -0.5290 hn        1 J2T      0.424800
     28 HAQ         7.0990   -1.2620   -2.2020 ha        1 J2T      0.132000
     29 HAS         9.1330   -1.1810   -4.3590 hc        1 J2T      0.055700
     30 HASA        7.9030   -2.4330   -4.7970 hc        1 J2T      0.055700
     31 HAE         4.2380    1.9010   -3.1450 ha        1 J2T      0.152000
@<TRIPOS>BOND
     1    1    2 2   
     2    1   10 1   
     3    2    3 1   
     4    2   12 1   
     5    3    4 2   
     6    3   20 1   
     7    4   14 1   
     8    4   21 1   
     9    5    6 ar  
    10    5   16 ar  
    11    5   31 1   
    12    6    7 ar  
    13    6   22 1   
    14    7    8 1   
    15    7   18 ar  
    16    8    9 1   
    17    8   23 1   
    18    8   24 1   
    19    9   19 1   
    20    9   25 1   
    21    9   26 1   
    22   10   11 2   
    23   11   12 1   
    24   12   13 1   
    25   13   14 2   
    26   14   15 1   
    27   15   16 1   
    28   15   27 1   
    29   16   17 ar  
    30   17   18 ar  
    31   17   28 1   
    32   18   19 1   
    33   19   29 1   
    34   19   30 1   
@<TRIPOS>SUBSTRUCTURE
     1 J2T         1 TEMP              0 ****  ****    0 ROOT
