@<TRIPOS>MOLECULE
J2T
   32    35     1     0     0
SMALL
bcc


@<TRIPOS>ATOM
      1 NAA         0.1410   -0.9000   -0.0840 nc        1 J2T     -0.022000
      2 CAB         1.4780   -0.6970   -0.1880 cd        1 J2T     -0.070300
      3 CAC         2.6760   -1.4030    0.1560 cd        1 J2T     -0.002000
      4 CAD         3.8740   -0.8150   -0.1340 cc        1 J2T     -0.208300
      5 CAE         5.0610    1.5300   -3.5330 ca        1 J2T     -0.081000
      6 CAF         5.4970    1.2720   -4.8380 ca        1 J2T     -0.103000
      7 CAG         6.4690    0.3070   -5.0520 ca        1 J2T     -0.013300
      8 CAH         7.0780   -0.1310   -6.3400 c3        1 J2T     -0.055100
      9 CAI         8.0900   -1.2220   -5.9650 c3        1 J2T     -0.082400
     10 NAJ        -0.4500    0.1830   -0.6130 nc        1 J2T      0.022000
     11 NAK         0.3290    1.0810   -1.0550 nd        1 J2T     -0.100400
     12 NAL         1.6200    0.6220   -0.8340 na        1 J2T      0.259500
     13 NAM         2.7750    1.1870   -1.1170 nd        1 J2T     -0.365800
     14 CAN         3.8770    0.4900   -0.7710 cc        1 J2T      0.420200
     15 NAO         5.1830    1.1110   -1.0910 n4        1 J2T     -0.599100
     16 CAP         5.6200    0.8140   -2.4640 ca        1 J2T     -0.078400
     17 CAQ         6.6070   -0.1780   -2.6660 ca        1 J2T     -0.103000
     18 CAR         7.0220   -0.4160   -3.9630 ca        1 J2T     -0.057300
     19 CAS         8.0450   -1.3930   -4.4390 c3        1 J2T     -0.047100
     20 HAC         2.5880   -2.3920    0.6400 ha        1 J2T      0.213000
     21 HAD         4.8250   -1.3180    0.1020 ha        1 J2T      0.180000
     22 HAH         6.2930   -0.5270   -7.0340 hc        1 J2T      0.084200
     23 HAHA        7.5800    0.7300   -6.8530 hc        1 J2T      0.084200
     24 HAI         7.8320   -2.1840   -6.4720 hc        1 J2T      0.068700
     25 HAIA        9.1180   -0.9300   -6.2930 hc        1 J2T      0.068700
     26 HNAO        5.8740    0.7420   -0.4240 hn        1 J2T      0.473800
     27 HAQ         7.0430   -0.7450   -1.8300 ha        1 J2T      0.151000
     28 HAS         9.0430   -1.1790   -3.9790 hc        1 J2T      0.075200
     29 HASA        7.7570   -2.4390   -4.1590 hc        1 J2T      0.075200
     30 HAE         4.2830    2.2950   -3.3690 ha        1 J2T      0.166000
     31 HAO2        5.1240    2.1360   -0.9810 hn        1 J2T      0.473800
     32 HAF         5.0620    1.8370   -5.6790 ha        1 J2T      0.175000
@<TRIPOS>BOND
     1    1    2 2   
     2    1   10 1   
     3    2    3 1   
     4    2   12 1   
     5    3    4 2   
     6    3   20 1   
     7    4   14 1   
     8    4   21 1   
     9    5    6 ar  
    10    5   16 ar  
    11    5   30 1   
    12    6    7 ar  
    13    6   32 1   
    14    7    8 1   
    15    7   18 ar  
    16    8    9 1   
    17    8   22 1   
    18    8   23 1   
    19    9   19 1   
    20    9   24 1   
    21    9   25 1   
    22   10   11 2   
    23   11   12 1   
    24   12   13 1   
    25   13   14 2   
    26   14   15 1   
    27   15   16 1   
    28   15   26 1   
    29   15   31 1   
    30   16   17 ar  
    31   17   18 ar  
    32   17   27 1   
    33   18   19 1   
    34   19   28 1   
    35   19   29 1   
@<TRIPOS>SUBSTRUCTURE
     1 J2T         1 TEMP              0 ****  ****    0 ROOT
