@<TRIPOS>MOLECULE
J2T
   31    34     1     0     0
SMALL
bcc


@<TRIPOS>ATOM
      1 NAA        -5.0570   -0.4540    0.4770 nc        1 J2T     -0.081000
      2 CAB        -3.9540    0.3240    0.2390 cd        1 J2T     -0.126300
      3 CAC        -3.6940    1.7180    0.0500 cd        1 J2T     -0.029000
      4 CAD        -2.4080    2.0980   -0.1780 cc        1 J2T     -0.235300
      5 CAE         1.1850   -0.4550   -1.2440 ca        1 J2T     -0.104000
      6 CAF         2.3520   -1.2270   -1.2240 ca        1 J2T     -0.104000
      7 CAG         3.4250   -0.8200   -0.4500 ca        1 J2T     -0.085300
      8 CAH         4.7550   -1.4730   -0.2760 c3        1 J2T     -0.036100
      9 CAI         5.5280   -0.5690    0.6960 c3        1 J2T     -0.079400
     10 NAJ        -4.6180   -1.7010    0.5490 nc        1 J2T     -0.042000
     11 NAK        -3.3510   -1.8460    0.3870 nd        1 J2T     -0.165400
     12 NAL        -2.8340   -0.5980    0.1810 na        1 J2T      0.316500
     13 NAM        -1.5650   -0.2360   -0.0250 nd        1 J2T     -0.487800
     14 CAN        -1.3400    1.0890   -0.2240 cc        1 J2T      0.602200
     15 NAO        -0.0570    1.5510   -0.5540 nh        1 J2T     -0.700300
     16 CAP         1.0920    0.7210   -0.4780 ca        1 J2T      0.102600
     17 CAQ         2.1930    1.1340    0.3170 ca        1 J2T     -0.148000
     18 CAR         3.3410    0.3660    0.3170 ca        1 J2T     -0.070300
     19 CAS         4.6090    0.6040    1.0680 c3        1 J2T     -0.037100
     20 HAC        -4.5380    2.4240    0.0940 ha        1 J2T      0.178000
     21 HAD        -2.1500    3.1550   -0.3420 ha        1 J2T      0.161000
     22 HAF         2.4060   -2.1470   -1.8230 ha        1 J2T      0.142000
     23 HAH         4.6380   -2.5050    0.1410 hc        1 J2T      0.057700
     24 HAHA        5.2880   -1.5590   -1.2560 hc        1 J2T      0.057700
     25 HAI         5.8180   -1.1410    1.6110 hc        1 J2T      0.047200
     26 HAIA        6.4640   -0.1930    0.2170 hc        1 J2T      0.047200
     27 HNAO        0.1060    2.4900   -0.2470 hn        1 J2T      0.424800
     28 HAQ         2.1420    2.0500    0.9220 ha        1 J2T      0.132000
     29 HAS         4.4190    0.6320    2.1700 hc        1 J2T      0.055700
     30 HASA        5.0670    1.5820    0.7740 hc        1 J2T      0.055700
     31 HAE         0.3400   -0.7870   -1.8660 ha        1 J2T      0.152000
@<TRIPOS>BOND
     1    1    2 2   
     2    1   10 1   
     3    2    3 1   
     4    2   12 1   
     5    3    4 2   
     6    3   20 1   
     7    4   14 1   
     8    4   21 1   
     9    5    6 ar  
    10    5   16 ar  
    11    5   31 1   
    12    6    7 ar  
    13    6   22 1   
    14    7    8 1   
    15    7   18 ar  
    16    8    9 1   
    17    8   23 1   
    18    8   24 1   
    19    9   19 1   
    20    9   25 1   
    21    9   26 1   
    22   10   11 2   
    23   11   12 1   
    24   12   13 1   
    25   13   14 2   
    26   14   15 1   
    27   15   16 1   
    28   15   27 1   
    29   16   17 ar  
    30   17   18 ar  
    31   17   28 1   
    32   18   19 1   
    33   19   29 1   
    34   19   30 1   
@<TRIPOS>SUBSTRUCTURE
     1 J2T         1 TEMP              0 ****  ****    0 ROOT
