@<TRIPOS>MOLECULE
J2T
   31    34     1     0     0
SMALL
bcc


@<TRIPOS>ATOM
      1 NAA        -0.0520   -0.2310    0.2790 nc        1 J2T     -0.081000
      2 CAB         1.3150   -0.1320    0.2290 cd        1 J2T     -0.126300
      3 CAC         2.3850   -0.1180    1.1790 cd        1 J2T     -0.029000
      4 CAD         3.6530    0.0090    0.7030 cc        1 J2T     -0.235300
      5 CAE         5.0480    1.2120   -3.4410 ca        1 J2T     -0.104000
      6 CAF         5.4970    1.2340   -4.7650 ca        1 J2T     -0.104000
      7 CAG         6.5080    0.3730   -5.1560 ca        1 J2T     -0.085300
      8 CAH         7.1410    0.2210   -6.4980 c3        1 J2T     -0.036100
      9 CAI         8.1960   -0.8820   -6.3270 c3        1 J2T     -0.079400
     10 NAJ        -0.4690   -0.1770   -0.9760 nc        1 J2T     -0.042000
     11 NAK         0.4580   -0.0530   -1.8570 nd        1 J2T     -0.165400
     12 NAL         1.6440   -0.0160   -1.1790 na        1 J2T      0.316500
     13 NAM         2.8850    0.0930   -1.6610 nd        1 J2T     -0.487800
     14 CAN         3.8870    0.1260   -0.7440 cc        1 J2T      0.602200
     15 NAO         5.2140    0.3460   -1.1460 nh        1 J2T     -0.700300
     16 CAP         5.6070    0.3190   -2.5100 ca        1 J2T      0.102600
     17 CAQ         6.6420   -0.5650   -2.9140 ca        1 J2T     -0.148000
     18 CAR         7.0800   -0.5230   -4.2240 ca        1 J2T     -0.070300
     19 CAS         8.1450   -1.3490   -4.8650 c3        1 J2T     -0.037100
     20 HAC         2.1430   -0.2080    2.2490 ha        1 J2T      0.178000
     21 HAD         4.5150    0.0370    1.3870 ha        1 J2T      0.161000
     22 HAF         5.0430    1.9340   -5.4820 ha        1 J2T      0.142000
     23 HAH         6.3790   -0.0670   -7.2660 hc        1 J2T      0.057700
     24 HAHA        7.6120    1.1810   -6.8280 hc        1 J2T      0.057700
     25 HAI         7.9820   -1.7350   -7.0160 hc        1 J2T      0.047200
     26 HAIA        9.2130   -0.4900   -6.5750 hc        1 J2T      0.047200
     27 HNAO        5.8790   -0.0760   -0.5280 hn        1 J2T      0.424800
     28 HAQ         7.0940   -1.2710   -2.2030 ha        1 J2T      0.132000
     29 HAS         9.1300   -1.1920   -4.3580 hc        1 J2T      0.055700
     30 HASA        7.8970   -2.4380   -4.8000 hc        1 J2T      0.055700
     31 HAE         4.2450    1.9040   -3.1410 ha        1 J2T      0.152000
@<TRIPOS>BOND
     1    1    2 2   
     2    1   10 1   
     3    2    3 1   
     4    2   12 1   
     5    3    4 2   
     6    3   20 1   
     7    4   14 1   
     8    4   21 1   
     9    5    6 ar  
    10    5   16 ar  
    11    5   31 1   
    12    6    7 ar  
    13    6   22 1   
    14    7    8 1   
    15    7   18 ar  
    16    8    9 1   
    17    8   23 1   
    18    8   24 1   
    19    9   19 1   
    20    9   25 1   
    21    9   26 1   
    22   10   11 2   
    23   11   12 1   
    24   12   13 1   
    25   13   14 2   
    26   14   15 1   
    27   15   16 1   
    28   15   27 1   
    29   16   17 ar  
    30   17   18 ar  
    31   17   28 1   
    32   18   19 1   
    33   19   29 1   
    34   19   30 1   
@<TRIPOS>SUBSTRUCTURE
     1 J2T         1 TEMP              0 ****  ****    0 ROOT
