@<TRIPOS>MOLECULE
J2Z
   43    46     1     0     0
SMALL
bcc


@<TRIPOS>ATOM
      1 O1          0.0380    0.1750    0.1360 o         1 J2Z     -0.513100
      2 C7          1.2530    0.0290    0.0590 c         1 J2Z      0.547100
      3 C8          2.1930   -0.0700    1.2690 c3        1 J2Z      0.041100
      4 O2          1.9320    0.9320    2.2300 oh        1 J2Z     -0.584800
      5 C9          3.6180    0.1390    0.7180 c3        1 J2Z     -0.070400
      6 C10         3.4090    0.6280   -0.7110 c3        1 J2Z     -0.063700
      7 C5          2.1140   -0.0730   -1.1900 c3        1 J2Z     -0.147000
      8 C6          2.2810   -1.5600   -1.4770 c3        1 J2Z     -0.085100
      9 C12         4.5070    0.4570   -1.7350 c3        1 J2Z     -0.047700
     10 C2          4.0610    1.1710   -3.0240 c3        1 J2Z     -0.009400
     11 C3          2.6990    0.6800   -3.5060 c3        1 J2Z     -0.072400
     12 C4          1.6260    0.6580   -2.4270 c3        1 J2Z     -0.057400
     13 C14         5.8230    1.0540   -1.2710 c3        1 J2Z     -0.074400
     14 C15         6.9120    0.7620   -2.2790 c3        1 J2Z     -0.038100
     15 C16         6.4780    0.9080   -3.6970 ca        1 J2Z     -0.037300
     16 C21         5.1280    1.0620   -4.0690 ca        1 J2Z     -0.102300
     17 C17         7.4760    0.8620   -4.6750 ca        1 J2Z     -0.162000
     18 C18         7.1310    0.9680   -6.0290 ca        1 J2Z      0.125100
     19 O3          8.1650    0.9130   -6.9360 oh        1 J2Z     -0.498100
     20 C19         5.7920    1.1220   -6.4110 ca        1 J2Z     -0.215000
     21 C20         4.8090    1.1690   -5.4280 ca        1 J2Z     -0.090000
     22 H8          2.0810   -1.0840    1.7420 h1        1 J2Z      0.059700
     23 HO2         0.9770    0.9270    2.3870 ho        1 J2Z      0.417000
     24 H19         4.1840   -0.8230    0.7440 hc        1 J2Z      0.064200
     25 H29         4.1680    0.8930    1.3310 hc        1 J2Z      0.064200
     26 H10         3.1860    1.7340   -0.6400 hc        1 J2Z      0.060700
     27 H16         1.2790   -2.0210   -1.6560 hc        1 J2Z      0.045700
     28 H26         2.7660   -2.0720   -0.6110 hc        1 J2Z      0.045700
     29 H36         2.9100   -1.7250   -2.3830 hc        1 J2Z      0.045700
     30 H12         4.6650   -0.6350   -1.9490 hc        1 J2Z      0.061700
     31 H2          3.9540    2.2710   -2.7810 hc        1 J2Z      0.057700
     32 H13         2.3350    1.3590   -4.3230 hc        1 J2Z      0.045200
     33 H23         2.8120   -0.3440   -3.9480 hc        1 J2Z      0.045200
     34 H14         0.7070    0.1560   -2.8270 hc        1 J2Z      0.053200
     35 H24         1.3440    1.7070   -2.1500 hc        1 J2Z      0.053200
     36 H114        5.7100    2.1610   -1.1340 hc        1 J2Z      0.046700
     37 H214        6.1040    0.6210   -0.2750 hc        1 J2Z      0.046700
     38 H115        7.7870    1.4410   -2.0860 hc        1 J2Z      0.054200
     39 H215        7.2770   -0.2930   -2.1360 hc        1 J2Z      0.054200
     40 H17         8.5320    0.7430   -4.3940 ha        1 J2Z      0.149000
     41 HO3         7.7870    1.0050   -7.8220 ho        1 J2Z      0.418000
     42 H19A        5.5220    1.2070   -7.4730 ha        1 J2Z      0.133000
     43 H20         3.7620    1.2970   -5.7430 ha        1 J2Z      0.134000
@<TRIPOS>BOND
     1    1    2 2   
     2    2    3 1   
     3    2    7 1   
     4    3    4 1   
     5    3    5 1   
     6    3   22 1   
     7    4   23 1   
     8    5    6 1   
     9    5   24 1   
    10    5   25 1   
    11    6    7 1   
    12    6    9 1   
    13    6   26 1   
    14    7    8 1   
    15    7   12 1   
    16    8   27 1   
    17    8   28 1   
    18    8   29 1   
    19    9   10 1   
    20    9   13 1   
    21    9   30 1   
    22   10   11 1   
    23   10   16 1   
    24   10   31 1   
    25   11   12 1   
    26   11   32 1   
    27   11   33 1   
    28   12   34 1   
    29   12   35 1   
    30   13   14 1   
    31   13   36 1   
    32   13   37 1   
    33   14   15 1   
    34   14   38 1   
    35   14   39 1   
    36   15   16 ar  
    37   15   17 ar  
    38   16   21 ar  
    39   17   18 ar  
    40   17   40 1   
    41   18   19 1   
    42   18   20 ar  
    43   19   41 1   
    44   20   21 ar  
    45   20   42 1   
    46   21   43 1   
@<TRIPOS>SUBSTRUCTURE
     1 J2Z         1 TEMP              0 ****  ****    0 ROOT
