@<TRIPOS>MOLECULE
J2Z
   43    46     1     0     0
SMALL
bcc


@<TRIPOS>ATOM
      1 O1          0.0660    0.1500    0.1890 o         1 J2Z     -0.513100
      2 C7          1.2800    0.0090    0.0890 c         1 J2Z      0.546100
      3 C8          2.2440   -0.0880    1.2800 c3        1 J2Z      0.041100
      4 O2          1.9970    0.9100    2.2490 oh        1 J2Z     -0.584800
      5 C9          3.6570    0.1290    0.7020 c3        1 J2Z     -0.070400
      6 C10         3.4180    0.6210   -0.7210 c3        1 J2Z     -0.063700
      7 C5          2.1170   -0.0850   -1.1770 c3        1 J2Z     -0.147000
      8 C6          2.2860   -1.5700   -1.4710 c3        1 J2Z     -0.085100
      9 C12         4.4970    0.4580   -1.7670 c3        1 J2Z     -0.047700
     10 C2          4.0230    1.1730   -3.0450 c3        1 J2Z     -0.009400
     11 C3          2.6540    0.6760   -3.5020 c3        1 J2Z     -0.072400
     12 C4          1.6030    0.6460   -2.4020 c3        1 J2Z     -0.057400
     13 C14         5.8190    1.0600   -1.3260 c3        1 J2Z     -0.073400
     14 C15         6.8900    0.7770   -2.3570 c3        1 J2Z     -0.037100
     15 C16         6.4250    0.9240   -3.7650 ca        1 J2Z     -0.032300
     16 C21         5.0710    1.0710   -4.1110 ca        1 J2Z     -0.102300
     17 C17         7.4030    0.8840   -4.7670 ca        1 J2Z     -0.217000
     18 C18         7.0330    0.9920   -6.1110 ca        1 J2Z      0.125100
     19 O3          7.9450    0.9590   -7.1410 oh        1 J2Z     -0.498100
     20 C19         5.6840    1.1410   -6.4690 ca        1 J2Z     -0.158000
     21 C20         4.7240    1.1810   -5.4650 ca        1 J2Z     -0.096000
     22 H8          2.1460   -1.1040    1.7520 h1        1 J2Z      0.059700
     23 HO2         1.0450    0.9010    2.4220 ho        1 J2Z      0.417000
     24 H19         4.2280   -0.8300    0.7140 hc        1 J2Z      0.064200
     25 H29         4.2150    0.8850    1.3070 hc        1 J2Z      0.064200
     26 H10         3.1910    1.7260   -0.6430 hc        1 J2Z      0.060700
     27 H16         2.8980   -1.7300   -2.3900 hc        1 J2Z      0.045700
     28 H26         1.2830   -2.0350   -1.6320 hc        1 J2Z      0.045700
     29 H36         2.7900   -2.0830   -0.6160 hc        1 J2Z      0.045700
     30 H12         4.6560   -0.6330   -1.9860 hc        1 J2Z      0.060700
     31 H2          3.9150    2.2720   -2.7970 hc        1 J2Z      0.057700
     32 H13         2.7630   -0.3460   -3.9490 hc        1 J2Z      0.045700
     33 H23         2.2710    1.3560   -4.3100 hc        1 J2Z      0.045700
     34 H14         0.6780    0.1410   -2.7860 hc        1 J2Z      0.053200
     35 H24         1.3210    1.6940   -2.1180 hc        1 J2Z      0.053200
     36 H114        6.1220    0.6250   -0.3380 hc        1 J2Z      0.047200
     37 H214        5.7030    2.1660   -1.1840 hc        1 J2Z      0.047200
     38 H115        7.7630    1.4610   -2.1800 hc        1 J2Z      0.052200
     39 H215        7.2640   -0.2760   -2.2230 hc        1 J2Z      0.052200
     40 H17         8.4620    0.7680   -4.4930 ha        1 J2Z      0.132000
     41 HO3         8.8270    0.8590   -6.7540 ho        1 J2Z      0.418000
     42 H19A        5.4070    1.2250   -7.5290 ha        1 J2Z      0.150000
     43 H20         3.6700    1.3040   -5.7570 ha        1 J2Z      0.135000
@<TRIPOS>BOND
     1    1    2 2   
     2    2    3 1   
     3    2    7 1   
     4    3    4 1   
     5    3    5 1   
     6    3   22 1   
     7    4   23 1   
     8    5    6 1   
     9    5   24 1   
    10    5   25 1   
    11    6    7 1   
    12    6    9 1   
    13    6   26 1   
    14    7    8 1   
    15    7   12 1   
    16    8   27 1   
    17    8   28 1   
    18    8   29 1   
    19    9   10 1   
    20    9   13 1   
    21    9   30 1   
    22   10   11 1   
    23   10   16 1   
    24   10   31 1   
    25   11   12 1   
    26   11   32 1   
    27   11   33 1   
    28   12   34 1   
    29   12   35 1   
    30   13   14 1   
    31   13   36 1   
    32   13   37 1   
    33   14   15 1   
    34   14   38 1   
    35   14   39 1   
    36   15   16 ar  
    37   15   17 ar  
    38   16   21 ar  
    39   17   18 ar  
    40   17   40 1   
    41   18   19 1   
    42   18   20 ar  
    43   19   41 1   
    44   20   21 ar  
    45   20   42 1   
    46   21   43 1   
@<TRIPOS>SUBSTRUCTURE
     1 J2Z         1 TEMP              0 ****  ****    0 ROOT
