@<TRIPOS>MOLECULE
J2Z
   43    43     1     0     0
SMALL
bcc


@<TRIPOS>ATOM
      1 O1         -4.2590    0.5970    1.0540 o         1 J2Z     -0.278000
      2 C7         -3.0440    0.5970    1.0540 c1        1 J2Z      0.203000
      3 C8         -2.1520    0.5970    2.2810 c2        1 J2Z     -0.019000
      4 O2         -1.3390    1.8860    2.3170 oh        1 J2Z     -0.310000
      5 C9         -1.4570   -0.4530    2.1020 c3        1 J2Z     -0.156000
      6 C10        -1.4290   -0.6400    0.8830 c3        1 J2Z     -0.093000
      7 C5         -2.3820    0.2380    0.2150 c3        1 J2Z     -0.089000
      8 C6         -3.1590   -0.4580   -0.8810 c3        1 J2Z     -0.200000
      9 C12        -0.4260   -0.8170    0.3280 c3        1 J2Z     -0.089000
     10 C2          0.2870    0.5480   -0.1180 c3        1 J2Z     -0.056000
     11 C3         -0.6500    1.4420   -0.8970 c3        1 J2Z     -0.148000
     12 C4         -1.6850    1.6310   -0.2830 c3        1 J2Z     -0.144000
     13 C14         0.4290   -1.7660    1.1450 c3        1 J2Z     -0.153000
     14 C15         1.7590   -2.1240    0.5410 c3        1 J2Z     -0.123000
     15 C16         2.4570   -0.9180   -0.6230 c2        1 J2Z     -0.030000
     16 C21         1.6350    0.3890   -0.8900 c2        1 J2Z     -0.093000
     17 C17         3.6450   -1.1040   -1.2420 c1        1 J2Z     -0.161000
     18 C18         4.1500   -0.1060   -2.1390 c1        1 J2Z      0.079000
     19 O3          5.3890   -0.2990   -2.7780 oh        1 J2Z     -0.252000
     20 C19         3.3760    1.1250   -2.3910 c1        1 J2Z     -0.214000
     21 C20         2.1190    1.3290   -1.7410 c1        1 J2Z     -0.090000
     22 H8         -2.5730    0.6050    3.1620 h4        1 J2Z      0.100000
     23 HO2        -1.5000    2.3170    3.0760 ho        1 J2Z      0.215000
     24 H19        -1.8760   -1.2130    2.5490 hc        1 J2Z      0.105000
     25 H29        -0.5530   -0.3190    2.4430 hc        1 J2Z      0.105000
     26 H10        -1.8550   -1.5140    0.8020 hc        1 J2Z      0.090000
     27 H16        -3.6310   -1.2270   -0.5070 hc        1 J2Z      0.084667
     28 H26        -2.5430   -0.7610   -1.5750 hc        1 J2Z      0.084667
     29 H36        -3.8040    0.1640   -1.2670 hc        1 J2Z      0.084667
     30 H12        -0.6470   -1.2890   -0.4970 hc        1 J2Z      0.096000
     31 H2          0.5000    1.0250    0.7070 hc        1 J2Z      0.101000
     32 H13        -0.8580    1.0210   -1.7520 hc        1 J2Z      0.087000
     33 H23        -0.2130    2.3000   -1.0590 hc        1 J2Z      0.087000
     34 H14        -2.3110    2.1080   -0.8600 hc        1 J2Z      0.092500
     35 H24        -1.4910    2.1840    0.4980 hc        1 J2Z      0.092500
     36 H114        0.6000   -1.3430    2.0070 hc        1 J2Z      0.086000
     37 H214       -0.0760   -2.5940    1.2590 hc        1 J2Z      0.086000
     38 H115        1.6470   -2.9660    0.0600 hc        1 J2Z      0.093500
     39 H215        2.3960   -2.2280    1.2740 hc        1 J2Z      0.093500
     40 H17         4.1550   -1.9210   -1.0840 ha        1 J2Z      0.149000
     41 HO3         6.0390    0.0150   -2.2620 ho        1 J2Z      0.217000
     42 H19A        3.7230    1.8020   -3.0030 ha        1 J2Z      0.133000
     43 H20         1.6100    2.1440   -1.9090 ha        1 J2Z      0.133000
@<TRIPOS>BOND
     1    1    2 1   
     2    2    7 1   
     3    3    4 1   
     4    3    5 1   
     5    3   22 1   
     6    4   23 1   
     7    5    6 1   
     8    5   24 1   
     9    5   25 1   
    10    6    7 1   
    11    6    9 1   
    12    6   26 1   
    13    7    8 1   
    14    7   12 1   
    15    8   27 1   
    16    8   28 1   
    17    8   29 1   
    18    9   10 1   
    19    9   13 1   
    20    9   30 1   
    21   10   11 1   
    22   10   16 1   
    23   10   31 1   
    24   11   12 1   
    25   11   32 1   
    26   11   33 1   
    27   12   34 1   
    28   12   35 1   
    29   13   14 1   
    30   13   36 1   
    31   13   37 1   
    32   14   15 1   
    33   14   38 1   
    34   14   39 1   
    35   15   16 1   
    36   15   17 1   
    37   16   21 1   
    38   17   40 1   
    39   18   19 1   
    40   18   20 1   
    41   19   41 1   
    42   20   42 1   
    43   21   43 1   
@<TRIPOS>SUBSTRUCTURE
     1 J2Z         1 TEMP              0 ****  ****    0 ROOT
