@<TRIPOS>MOLECULE
J2Z
   43    46     1     0     0
SMALL
bcc


@<TRIPOS>ATOM
      1 O1         -4.5440   -1.4830   -0.2090 o         1 J2Z     -0.513100
      2 C7         -3.7250   -0.6180    0.0840 c         1 J2Z      0.547100
      3 C8         -4.0530    0.8740    0.2330 c3        1 J2Z      0.041100
      4 O2         -4.8360    1.3570   -0.8410 oh        1 J2Z     -0.584800
      5 C9         -2.6990    1.6100    0.2220 c3        1 J2Z     -0.070400
      6 C10        -1.6920    0.5530   -0.2150 c3        1 J2Z     -0.063700
      7 C5         -2.2370   -0.7810    0.3500 c3        1 J2Z     -0.147000
      8 C6         -2.0830   -0.9250    1.8590 c3        1 J2Z     -0.085100
      9 C12        -0.2300    0.7130    0.1350 c3        1 J2Z     -0.047700
     10 C2          0.5460   -0.4200   -0.5600 c3        1 J2Z     -0.009400
     11 C3         -0.0170   -1.7940   -0.2100 c3        1 J2Z     -0.072400
     12 C4         -1.5250   -1.9100   -0.3700 c3        1 J2Z     -0.057400
     13 C14         0.3280    2.0470   -0.3240 c3        1 J2Z     -0.074400
     14 C15         1.7580    2.2040    0.1460 c3        1 J2Z     -0.038100
     15 C16         2.5740    0.9630    0.0210 ca        1 J2Z     -0.037300
     16 C21         2.0110   -0.2940   -0.2720 ca        1 J2Z     -0.102300
     17 C17         3.9500    1.0840    0.2350 ca        1 J2Z     -0.162000
     18 C18         4.7700   -0.0500    0.1570 ca        1 J2Z      0.125100
     19 O3          6.1140    0.1450    0.3800 oh        1 J2Z     -0.498100
     20 C19         4.2210   -1.3050   -0.1350 ca        1 J2Z     -0.215000
     21 C20         2.8510   -1.4110   -0.3480 ca        1 J2Z     -0.090000
     22 H8         -4.6010    1.0370    1.2010 h1        1 J2Z      0.059700
     23 HO2        -5.5660    0.7330   -0.9570 ho        1 J2Z      0.417000
     24 H19        -2.7260    2.4700   -0.4920 hc        1 J2Z      0.064200
     25 H29        -2.4670    2.0010    1.2420 hc        1 J2Z      0.064200
     26 H10        -1.7610    0.4940   -1.3430 hc        1 J2Z      0.060700
     27 H16        -2.6410   -1.8290    2.2060 hc        1 J2Z      0.045700
     28 H26        -1.0110   -1.0450    2.1430 hc        1 J2Z      0.045700
     29 H36        -2.4900   -0.0260    2.3810 hc        1 J2Z      0.045700
     30 H12        -0.0920    0.6320    1.2480 hc        1 J2Z      0.061700
     31 H2          0.4200   -0.2800   -1.6760 hc        1 J2Z      0.057700
     32 H13         0.4490   -2.5610   -0.8860 hc        1 J2Z      0.045200
     33 H23         0.2740   -2.0550    0.8410 hc        1 J2Z      0.045200
     34 H14        -1.8670   -2.8970    0.0390 hc        1 J2Z      0.053200
     35 H24        -1.7950   -1.8850   -1.4580 hc        1 J2Z      0.053200
     36 H114        0.2800    2.1140   -1.4420 hc        1 J2Z      0.046700
     37 H214       -0.2980    2.8820    0.0890 hc        1 J2Z      0.046700
     38 H115        2.2490    3.0320   -0.4340 hc        1 J2Z      0.054200
     39 H215        1.7610    2.5130    1.2280 hc        1 J2Z      0.054200
     40 H17         4.3990    2.0610    0.4640 ha        1 J2Z      0.149000
     41 HO3         6.5560   -0.7120    0.2890 ho        1 J2Z      0.418000
     42 H19A        4.8650   -2.1930   -0.1970 ha        1 J2Z      0.133000
     43 H20         2.4350   -2.4030   -0.5830 ha        1 J2Z      0.134000
@<TRIPOS>BOND
     1    1    2 2   
     2    2    3 1   
     3    2    7 1   
     4    3    4 1   
     5    3    5 1   
     6    3   22 1   
     7    4   23 1   
     8    5    6 1   
     9    5   24 1   
    10    5   25 1   
    11    6    7 1   
    12    6    9 1   
    13    6   26 1   
    14    7    8 1   
    15    7   12 1   
    16    8   27 1   
    17    8   28 1   
    18    8   29 1   
    19    9   10 1   
    20    9   13 1   
    21    9   30 1   
    22   10   11 1   
    23   10   16 1   
    24   10   31 1   
    25   11   12 1   
    26   11   32 1   
    27   11   33 1   
    28   12   34 1   
    29   12   35 1   
    30   13   14 1   
    31   13   36 1   
    32   13   37 1   
    33   14   15 1   
    34   14   38 1   
    35   14   39 1   
    36   15   16 ar  
    37   15   17 ar  
    38   16   21 ar  
    39   17   18 ar  
    40   17   40 1   
    41   18   19 1   
    42   18   20 ar  
    43   19   41 1   
    44   20   21 ar  
    45   20   42 1   
    46   21   43 1   
@<TRIPOS>SUBSTRUCTURE
     1 J2Z         1 TEMP              0 ****  ****    0 ROOT
