@<TRIPOS>MOLECULE
J30
   47    47     1     0     0
SMALL
bcc


@<TRIPOS>ATOM
      1 SD         -1.5020    0.5450    0.1090 sh        1 J30     -0.102000
      2 CE          2.0320    0.2650    0.0340 c2        1 J30     -0.217000
      3 CH          4.2170   -0.4850    0.9330 c3        1 J30     -0.146000
      4 CZ          2.7330   -0.4760    0.8880 c2        1 J30     -0.171000
      5 C12         4.7140   -0.6090    2.3610 c2        1 J30      0.309000
      6 O13         4.1010   -1.2960    3.2010 o         1 J30     -0.360000
      7 N14         5.8590    0.0920    2.7610 n         1 J30     -0.301000
      8 C15         6.2080    0.1140    4.1680 c3        1 J30     -0.026000
      9 C16         7.1830   -0.9930    4.6190 c3        1 J30     -0.098000
     10 N17         8.5120   -0.8490    4.0610 n3        1 J30     -0.313000
     11 C18         7.1280    0.2130    0.6530 c2        1 J30     -0.286000
     12 C19         6.7870    0.6550    1.8730 c2        1 J30     -0.026000
     13 C40        10.6690   -1.9650    3.6670 c2        1 J30     -0.079000
     14 C41        11.5950   -0.8190    3.6130 c2        1 J30      0.014000
     15 C42        12.2770   -0.6180    2.4280 c2        1 J30     -0.160000
     16 C43        12.2990   -1.6380    1.3120 c3        1 J30     -0.083000
     17 C44        11.9920   -2.9980    1.8770 c2        1 J30     -0.102000
     18 C45        11.0920   -2.9250    2.8450 c1        1 J30     -0.139000
     19 C46        11.6630    0.1550    4.7230 c3        1 J30     -0.147000
     20 C47        12.5530    1.3090    4.4640 c2        1 J30     -0.091000
     21 C48        13.1570    1.4930    3.2670 c2        1 J30     -0.202000
     22 C49        12.9300    0.6210    2.1580 c1        1 J30     -0.071000
     23 HSD        -2.5090   -0.1570   -0.3850 hs        1 J30      0.052000
     24 HE         -1.9170    0.5040    1.3650 hs        1 J30      0.052000
     25 HEA         0.9290    0.2390    0.0040 ha        1 J30      0.123000
     26 HH          2.4990    0.9430   -0.6920 ha        1 J30      0.123000
     27 HHA         4.5950   -1.3860    0.3730 hc        1 J30      0.114500
     28 HZ          4.6320    0.4300    0.4320 hc        1 J30      0.114500
     29 HZA         2.2430   -1.1460    1.6160 ha        1 J30      0.146000
     30 H15         5.2620   -0.0190    4.7690 h1        1 J30      0.109500
     31 H15A        6.6470    1.1230    4.4100 h1        1 J30      0.109500
     32 H16         6.7200   -1.9980    4.3860 h1        1 J30      0.083500
     33 H16A        7.2740   -0.9160    5.7400 h1        1 J30      0.083500
     34 H17         9.6400   -1.8080    5.5310 h1        1 J30      0.083500
     35 H17A        8.8950   -2.9510    4.3250 h1        1 J30      0.083500
     36 H18         8.4730   -0.7560    3.0620 hn        1 J30      0.165000
     37 H18A        6.7150   -0.6840    0.1790 ha        1 J30      0.127000
     38 H19         7.8640    0.7640    0.0540 ha        1 J30      0.127000
     39 H19A        7.2850    1.5540    2.2970 h4        1 J30      0.141000
     40 H43        11.5930   -1.3100    0.5040 hc        1 J30      0.125500
     41 H44        13.3290   -1.6720    0.8660 hc        1 J30      0.125500
     42 H45        12.5670   -3.8740    1.5690 ha        1 J30      0.157000
     43 H46        10.6240    0.5360    4.9540 hc        1 J30      0.147000
     44 H47        12.0190   -0.3860    5.6490 hc        1 J30      0.147000
     45 H48        12.6630    2.0220    5.2960 ha        1 J30      0.129000
     46 H49        13.8170    2.3580    3.0900 ha        1 J30      0.147000
     47 C17         9.3950   -1.9420    4.4360 c3        1 J30     -0.022000
@<TRIPOS>BOND
     1    1   23 1   
     2    1   24 1   
     3    2    4 1   
     4    2   25 1   
     5    2   26 1   
     6    3    4 1   
     7    3    5 1   
     8    3   27 1   
     9    3   28 1   
    10    4   29 1   
    11    5    6 1   
    12    5    7 1   
    13    7    8 1   
    14    7   12 1   
    15    8    9 1   
    16    8   30 1   
    17    8   31 1   
    18    9   10 1   
    19    9   32 1   
    20    9   33 1   
    21   10   36 1   
    22   10   47 1   
    23   11   12 1   
    24   11   37 1   
    25   11   38 1   
    26   12   39 1   
    27   13   14 1   
    28   13   18 1   
    29   13   47 1   
    30   14   15 1   
    31   14   19 1   
    32   15   16 1   
    33   15   22 1   
    34   16   17 1   
    35   16   40 1   
    36   16   41 1   
    37   17   18 1   
    38   17   42 1   
    39   19   20 1   
    40   19   43 1   
    41   19   44 1   
    42   20   21 1   
    43   20   45 1   
    44   21   22 1   
    45   21   46 1   
    46   34   47 1   
    47   35   47 1   
@<TRIPOS>SUBSTRUCTURE
     1 J30         1 TEMP              0 ****  ****    0 ROOT
