@<TRIPOS>MOLECULE
J30
   47    49     1     0     0
SMALL
bcc


@<TRIPOS>ATOM
      1 SD          7.6920    1.2640   -0.0920 sh        1 J30     -0.363900
      2 CE          5.9910    1.3990   -0.5630 c3        1 J30      0.005700
      3 CH          3.8100    0.2240   -0.3820 c3        1 J30     -0.144400
      4 CZ          5.2850    0.1760   -0.0350 c3        1 J30     -0.068400
      5 C12         3.0910   -1.0020    0.1510 c         1 J30      0.653100
      6 O13         3.6850   -1.8340    0.8660 o         1 J30     -0.602100
      7 N14         1.7700   -1.2290   -0.2300 n         1 J30     -0.463800
      8 C15         1.0320   -2.3310    0.3500 c3        1 J30      0.083000
      9 C16        -0.1100   -1.8870    1.2890 c3        1 J30      0.141300
     10 N17        -0.9660   -0.8660    0.6970 n3        1 J30     -0.727600
     11 C18        -0.2080    0.2510    0.1540 c3        1 J30      0.141300
     12 C19         0.9250   -0.2030   -0.7940 c3        1 J30      0.083000
     13 C40        -3.0010    0.5270    1.0400 ca        1 J30     -0.072300
     14 C41        -3.9670    0.1110    0.0740 ca        1 J30     -0.019000
     15 C42        -4.9120    1.0600   -0.4010 ca        1 J30     -0.040000
     16 C43        -4.8770    2.3940    0.0870 ca        1 J30     -0.114000
     17 C44        -3.9370    2.7690    1.0140 ca        1 J30     -0.132000
     18 C45        -2.9940    1.8300    1.4910 ca        1 J30     -0.128000
     19 C46        -4.0280   -1.2180   -0.4310 ca        1 J30     -0.108000
     20 C47        -4.9770   -1.5770   -1.3560 ca        1 J30     -0.132000
     21 C48        -5.9170   -0.6290   -1.8270 ca        1 J30     -0.125000
     22 C49        -5.8840    0.6610   -1.3590 ca        1 J30     -0.122000
     23 HSD         8.1450    2.3770   -0.6400 hs        1 J30      0.195800
     24 HE          5.5420    2.3270   -0.1350 h1        1 J30      0.056200
     25 HEA         5.8990    1.4560   -1.6750 h1        1 J30      0.056200
     26 HH          3.3450    1.1410    0.0690 hc        1 J30      0.063200
     27 HHA         3.6860    0.2790   -1.4960 hc        1 J30      0.063200
     28 HZ          5.7400   -0.7550   -0.4690 hc        1 J30      0.077700
     29 HZA         5.4040    0.1060    1.0790 hc        1 J30      0.077700
     30 H15         0.5940   -2.9280   -0.5010 h1        1 J30      0.065200
     31 H15A        1.7280   -2.9950    0.9350 h1        1 J30      0.065200
     32 H16        -0.7490   -2.7890    1.5000 h1        1 J30      0.042200
     33 H16A        0.3370   -1.5440    2.2680 h1        1 J30      0.042200
     34 H17        -2.5750   -1.3810    1.9290 h1        1 J30      0.041700
     35 H17A       -1.5760    0.0010    2.5610 h1        1 J30      0.041700
     36 H18        -0.9200    0.8910   -0.4390 h1        1 J30      0.042200
     37 H18A        0.2360    0.8930    0.9700 h1        1 J30      0.042200
     38 H19         1.5200    0.7070   -1.0760 h1        1 J30      0.065200
     39 H19A        0.4630   -0.6250   -1.7330 h1        1 J30      0.065200
     40 H43        -5.6170    3.1150   -0.2910 ha        1 J30      0.133000
     41 H44        -3.9040    3.8000    1.3970 ha        1 J30      0.133000
     42 H45        -2.2530    2.1580    2.2360 ha        1 J30      0.131000
     43 H46        -3.2960   -1.9600   -0.0780 ha        1 J30      0.146000
     44 H47        -5.0170   -2.6060   -1.7440 ha        1 J30      0.132000
     45 H48        -6.6670   -0.9400   -2.5680 ha        1 J30      0.132000
     46 H49        -6.6080    1.4090   -1.7160 ha        1 J30      0.132000
     47 C17        -2.0160   -0.4500    1.6200 c3        1 J30      0.212100
@<TRIPOS>BOND
     1    1    2 1   
     2    1   23 1   
     3    2    4 1   
     4    2   24 1   
     5    2   25 1   
     6    3    4 1   
     7    3    5 1   
     8    3   26 1   
     9    3   27 1   
    10    4   28 1   
    11    4   29 1   
    12    5    6 2   
    13    5    7 1   
    14    7    8 1   
    15    7   12 1   
    16    8    9 1   
    17    8   30 1   
    18    8   31 1   
    19    9   10 1   
    20    9   32 1   
    21    9   33 1   
    22   10   11 1   
    23   10   47 1   
    24   11   12 1   
    25   11   36 1   
    26   11   37 1   
    27   12   38 1   
    28   12   39 1   
    29   13   14 ar  
    30   13   18 ar  
    31   13   47 1   
    32   14   15 ar  
    33   14   19 ar  
    34   15   16 ar  
    35   15   22 ar  
    36   16   17 ar  
    37   16   40 1   
    38   17   18 ar  
    39   17   41 1   
    40   18   42 1   
    41   19   20 ar  
    42   19   43 1   
    43   20   21 ar  
    44   20   44 1   
    45   21   22 ar  
    46   21   45 1   
    47   22   46 1   
    48   34   47 1   
    49   35   47 1   
@<TRIPOS>SUBSTRUCTURE
     1 J30         1 TEMP              0 ****  ****    0 ROOT
