@<TRIPOS>MOLECULE
J30
   47    47     1     0     0
SMALL
bcc


@<TRIPOS>ATOM
      1 SD         -1.3430    0.1260    0.9400 sh        1 J30     -0.103000
      2 CE          2.1280   -0.4880    0.4190 c2        1 J30     -0.223000
      3 CH          4.5170   -0.0150    0.8650 c3        1 J30     -0.147000
      4 CZ          3.0680    0.2920    0.9470 c2        1 J30     -0.169000
      5 C12         5.3010    0.6310    1.9890 c2        1 J30      0.296000
      6 O13         4.7990    1.4630    2.7720 o         1 J30     -0.368000
      7 N14         6.6500    0.3400    2.1300 ns        1 J30     -0.379000
      8 C15         7.8540   -1.4170    5.8200 c2        1 J30     -0.350000
      9 C16         7.3640   -1.5740    4.5770 c2        1 J30     -0.011000
     10 N17         7.9860   -2.1430    3.4710 n3        1 J30     -0.293000
     11 C18         7.3110   -2.0920    2.2000 c3        1 J30     -0.050000
     12 C19         7.3270   -0.7290    1.4640 c3        1 J30     -0.063000
     13 C40        10.2800   -1.5550    2.6540 c2        1 J30     -0.100000
     14 C41        10.8890   -0.3160    3.1710 c2        1 J30     -0.010000
     15 C42        12.2070   -0.0800    2.8260 c2        1 J30     -0.146000
     16 C43        12.9270   -0.8660    1.7540 c3        1 J30     -0.087000
     17 C44        11.9160   -1.4790    0.8230 c2        1 J30     -0.102000
     18 C45        10.8320   -1.8640    1.4780 c1        1 J30     -0.148000
     19 C46        10.1720    0.5630    4.1200 c3        1 J30     -0.148000
     20 C47        10.9910    1.6660    4.6700 c2        1 J30     -0.084000
     21 C48        12.3020    1.8100    4.3630 c2        1 J30     -0.203000
     22 C49        12.9960    0.8630    3.5500 c1        1 J30     -0.065000
     23 HSD        -1.3550    0.5580    2.1910 hs        1 J30      0.053000
     24 HE         -2.1100    1.0920    0.4600 hs        1 J30      0.053000
     25 HEA         1.0550   -0.2340    0.4770 ha        1 J30      0.123000
     26 HH          2.3540   -1.4260   -0.1050 ha        1 J30      0.123000
     27 HHA         4.6810   -1.1270    0.8840 hc        1 J30      0.108500
     28 HZ          4.9210    0.3750   -0.1110 hc        1 J30      0.108500
     29 HZA         2.8160    1.2260    1.4790 ha        1 J30      0.150000
     30 H15         7.0970    0.7100    2.9410 hn        1 J30      0.224000
     31 H15A        7.2120   -1.0070    6.6080 ha        1 J30      0.120500
     32 H16         8.8610   -1.6960    6.1440 ha        1 J30      0.120500
     33 H16A        6.3090   -1.2830    4.3770 h4        1 J30      0.138000
     34 H17         9.5050   -3.4960    3.0510 h1        1 J30      0.106000
     35 H17A        9.7800   -2.4560    4.5240 h1        1 J30      0.106000
     36 H18         6.2400   -2.4120    2.3540 h1        1 J30      0.099000
     37 H18A        7.8040   -2.8370    1.5130 h1        1 J30      0.099000
     38 H19         6.8720   -0.8920    0.4470 h1        1 J30      0.101500
     39 H19A        8.4020   -0.4160    1.3150 h1        1 J30      0.101500
     40 H43        13.5690   -0.1640    1.1560 hc        1 J30      0.129000
     41 H44        13.6070   -1.6120    2.2430 hc        1 J30      0.129000
     42 H45        12.0720   -1.4660   -0.2580 ha        1 J30      0.158000
     43 H46         9.2870    1.0100    3.5760 hc        1 J30      0.143500
     44 H47         9.7450   -0.0510    4.9680 hc        1 J30      0.143500
     45 H48        10.4700    2.3460    5.3630 ha        1 J30      0.134000
     46 H49        12.8960    2.6410    4.7760 ha        1 J30      0.150000
     47 C17         9.3960   -2.4470    3.4630 c3        1 J30      0.028000
@<TRIPOS>BOND
     1    1   23 1   
     2    1   24 1   
     3    2    4 1   
     4    2   25 1   
     5    2   26 1   
     6    3    4 1   
     7    3    5 1   
     8    3   27 1   
     9    3   28 1   
    10    4   29 1   
    11    5    6 1   
    12    5    7 1   
    13    7   12 1   
    14    7   30 1   
    15    8    9 1   
    16    8   31 1   
    17    8   32 1   
    18    9   10 1   
    19    9   33 1   
    20   10   11 1   
    21   10   47 1   
    22   11   12 1   
    23   11   36 1   
    24   11   37 1   
    25   12   38 1   
    26   12   39 1   
    27   13   14 1   
    28   13   18 1   
    29   13   47 1   
    30   14   15 1   
    31   14   19 1   
    32   15   16 1   
    33   15   22 1   
    34   16   17 1   
    35   16   40 1   
    36   16   41 1   
    37   17   18 1   
    38   17   42 1   
    39   19   20 1   
    40   19   43 1   
    41   19   44 1   
    42   20   21 1   
    43   20   45 1   
    44   21   22 1   
    45   21   46 1   
    46   34   47 1   
    47   35   47 1   
@<TRIPOS>SUBSTRUCTURE
     1 J30         1 TEMP              0 ****  ****    0 ROOT
