@<TRIPOS>MOLECULE
J30
   47    47     1     0     0
SMALL
bcc


@<TRIPOS>ATOM
      1 SD         -1.9650    0.1850    0.7740 sh        1 J30     -0.103000
      2 CE          1.5640    0.3130    0.4070 c2        1 J30     -0.217000
      3 CH          3.8890   -0.3300    0.9790 c3        1 J30     -0.146000
      4 CZ          2.4130   -0.4700    1.0670 c2        1 J30     -0.171000
      5 C12         4.5400   -0.6150    2.3190 c2        1 J30      0.309000
      6 O13         4.0830   -1.4820    3.0890 o         1 J30     -0.357000
      7 N14         5.6510    0.1360    2.7260 n         1 J30     -0.301000
      8 C15         6.1410   -0.0220    4.0810 c3        1 J30     -0.026000
      9 C16         7.2310   -1.0980    4.2620 c3        1 J30     -0.101000
     10 N17         8.4850   -0.7630    3.6170 n3        1 J30     -0.311000
     11 C18         6.6810    0.7050    0.5620 c2        1 J30     -0.287000
     12 C19         6.4280    0.9200    1.8610 c2        1 J30     -0.024000
     13 C40        10.6670   -1.6010    2.8730 c2        1 J30     -0.075000
     14 C41        11.7180   -0.6440    3.2650 c2        1 J30      0.007000
     15 C42        13.0250   -0.9940    2.9820 c2        1 J30     -0.158000
     16 C43        13.3840   -2.1630    2.0920 c3        1 J30     -0.085000
     17 C44        12.2220   -2.4740    1.1900 c2        1 J30     -0.102000
     18 C45        11.0650   -2.2990    1.8090 c1        1 J30     -0.140000
     19 C46        11.3910    0.5500    4.0710 c3        1 J30     -0.141000
     20 C47        12.5700    1.3350    4.5000 c2        1 J30     -0.092000
     21 C48        13.8350    0.9280    4.2400 c2        1 J30     -0.202000
     22 C49        14.1170   -0.3190    3.6010 c1        1 J30     -0.071000
     23 HSD        -2.2910   -0.0470    2.0350 hs        1 J30      0.052500
     24 HE         -2.8850   -0.6100    0.2520 hs        1 J30      0.052500
     25 HEA         0.4710    0.1760    0.4710 ha        1 J30      0.123500
     26 HH          1.8910    1.1380   -0.2400 ha        1 J30      0.123500
     27 HHA         4.2860   -1.0920    0.2510 hc        1 J30      0.114000
     28 HZ          4.1650    0.6890    0.5970 hc        1 J30      0.114000
     29 HZA         2.0630   -1.2890    1.7200 ha        1 J30      0.146000
     30 H15         5.2730   -0.3230    4.7370 h1        1 J30      0.109500
     31 H15A        6.5310    0.9730    4.4370 h1        1 J30      0.109500
     32 H16         7.4310   -1.1830    5.3680 h1        1 J30      0.085000
     33 H16A        6.8160   -2.0910    3.9170 h1        1 J30      0.085000
     34 H17         9.7700   -1.9180    4.7900 h1        1 J30      0.086000
     35 H17A        9.0150   -2.8400    3.4130 h1        1 J30      0.086000
     36 H18         8.3350   -0.5080    2.6570 hn        1 J30      0.161000
     37 H18A        6.3060   -0.1500   -0.0120 ha        1 J30      0.126500
     38 H19         7.2960    1.4150   -0.0050 ha        1 J30      0.126500
     39 H19A        6.8820    1.7930    2.3780 h4        1 J30      0.138000
     40 H43        14.2590   -1.8800    1.4480 hc        1 J30      0.126500
     41 H44        13.7050   -3.0240    2.7360 hc        1 J30      0.126500
     42 H45        12.3810   -2.6880    0.1300 ha        1 J30      0.157000
     43 H46        10.7050    1.2100    3.4620 hc        1 J30      0.146500
     44 H47        10.7960    0.2400    4.9800 hc        1 J30      0.146500
     45 H48        12.3510    2.2540    5.0660 ha        1 J30      0.129000
     46 H49        14.7020    1.5280    4.5620 ha        1 J30      0.147000
     47 C17         9.4580   -1.8410    3.7070 c3        1 J30     -0.024000
@<TRIPOS>BOND
     1    1   23 1   
     2    1   24 1   
     3    2    4 1   
     4    2   25 1   
     5    2   26 1   
     6    3    4 1   
     7    3    5 1   
     8    3   27 1   
     9    3   28 1   
    10    4   29 1   
    11    5    6 1   
    12    5    7 1   
    13    7    8 1   
    14    7   12 1   
    15    8    9 1   
    16    8   30 1   
    17    8   31 1   
    18    9   10 1   
    19    9   32 1   
    20    9   33 1   
    21   10   36 1   
    22   10   47 1   
    23   11   12 1   
    24   11   37 1   
    25   11   38 1   
    26   12   39 1   
    27   13   14 1   
    28   13   18 1   
    29   13   47 1   
    30   14   15 1   
    31   14   19 1   
    32   15   16 1   
    33   15   22 1   
    34   16   17 1   
    35   16   40 1   
    36   16   41 1   
    37   17   18 1   
    38   17   42 1   
    39   19   20 1   
    40   19   43 1   
    41   19   44 1   
    42   20   21 1   
    43   20   45 1   
    44   21   22 1   
    45   21   46 1   
    46   34   47 1   
    47   35   47 1   
@<TRIPOS>SUBSTRUCTURE
     1 J30         1 TEMP              0 ****  ****    0 ROOT
