@<TRIPOS>MOLECULE
J35
   53    54     1     0     0
SMALL
bcc


@<TRIPOS>ATOM
      1 O2          7.0800    0.8760    1.0000 o         1 J35     -0.844300
      2 C19         6.1750    0.0880    1.3940 c         1 J35      0.910600
      3 O3          5.7580    0.0440    2.5890 o         1 J35     -0.844300
      4 C20         5.5470   -0.8680    0.3450 c3        1 J35     -0.183700
      5 C21         6.4080   -2.1150    0.2230 c3        1 J35     -0.048400
      6 C18         7.7200   -1.8140   -0.4720 c3        1 J35     -0.094400
      7 C22         8.6640   -2.9860   -0.4130 c3        1 J35     -0.083100
      8 C17         4.1250   -1.2580    0.7240 c3        1 J35     -0.028100
      9 C15         3.1320   -0.1860    0.4350 ca        1 J35     -0.066300
     10 C14         3.1520    0.9990    1.1860 ca        1 J35     -0.074000
     11 C13         2.2230    2.0040    0.9440 ca        1 J35     -0.196000
     12 C11         1.2610    1.8300   -0.0600 ca        1 J35      0.089100
     13 O4          0.2730    2.7720   -0.3320 os        1 J35     -0.363900
     14 C8          0.5920    4.1090    0.0370 c3        1 J35      0.120700
     15 C12         2.1650   -0.3490   -0.5600 ca        1 J35     -0.104000
     16 C10         1.2260    0.6520   -0.8270 ca        1 J35     -0.162300
     17 C9          0.2290    0.4760   -1.9330 c3        1 J35      0.145300
     18 N1         -1.1470    0.5070   -1.4950 n         1 J35     -0.535900
     19 C4         -1.9660   -0.5970   -1.5540 c         1 J35      0.654700
     20 O1         -1.6880   -1.6080   -2.2340 o         1 J35     -0.609100
     21 C1         -3.2800   -0.5060   -0.8390 ca        1 J35     -0.100600
     22 C3         -3.3700    0.0010    0.4600 ca        1 J35     -0.099000
     23 C5         -4.6080    0.0520    1.1020 ca        1 J35     -0.093500
     24 C2         -4.4260   -0.9760   -1.4920 ca        1 J35     -0.099000
     25 C7         -5.6630   -0.9210   -0.8540 ca        1 J35     -0.093500
     26 C6         -5.7500   -0.4030    0.4400 ca        1 J35     -0.160300
     27 C16        -7.1050   -0.3230    1.1290 c3        1 J35      0.686200
     28 F1         -7.7900    0.8470    0.8930 f         1 J35     -0.240300
     29 F3         -7.9960   -1.3040    0.7620 f         1 J35     -0.240300
     30 F2         -7.0620   -0.4080    2.5000 f         1 J35     -0.240300
     31 H2          5.5390   -0.3310   -0.6410 hc        1 J35      0.042700
     32 H3          6.6070   -2.5210    1.2500 hc        1 J35      0.019700
     33 H4          5.8610   -2.9100   -0.3510 hc        1 J35      0.019700
     34 H5          7.5220   -1.5450   -1.5420 hc        1 J35      0.059700
     35 H6          8.1830   -0.9100    0.0150 hc        1 J35      0.059700
     36 H7          8.9120   -3.2370    0.6470 hc        1 J35      0.016033
     37 H8          8.2090   -3.8890   -0.8870 hc        1 J35      0.016033
     38 H9          9.6150   -2.7490   -0.9490 hc        1 J35      0.016033
     39 H10         3.8280   -2.1960    0.1820 hc        1 J35      0.046700
     40 H11         4.1120   -1.4740    1.8290 hc        1 J35      0.046700
     41 H12         3.9360    1.1170    1.9640 ha        1 J35      0.208000
     42 H13         2.2540    2.9290    1.5360 ha        1 J35      0.131000
     43 H14         0.5010    4.2320    1.1440 h1        1 J35      0.038033
     44 H15         1.6200    4.3880   -0.3000 h1        1 J35      0.038033
     45 H16        -0.1790    4.7240   -0.4900 h1        1 J35      0.038033
     46 H17         2.1420   -1.2770   -1.1520 ha        1 J35      0.131000
     47 H18         0.3590    1.3290   -2.6640 h1        1 J35      0.066200
     48 H19         0.4190   -0.4940   -2.4770 h1        1 J35      0.066200
     49 H20        -1.3740    1.2340   -0.8530 hn        1 J35      0.319500
     50 H21        -2.4700    0.3490    0.9920 ha        1 J35      0.159500
     51 H22        -4.6850    0.4440    2.1280 ha        1 J35      0.150500
     52 H23        -4.3340   -1.4000   -2.5050 ha        1 J35      0.159500
     53 H24        -6.5680   -1.2910   -1.3610 ha        1 J35      0.150500
@<TRIPOS>BOND
     1    1    2 1   
     2    2    3 1   
     3    2    4 1   
     4    4    5 1   
     5    4    8 1   
     6    4   31 1   
     7    5    6 1   
     8    5   32 1   
     9    5   33 1   
    10    6    7 1   
    11    6   34 1   
    12    6   35 1   
    13    7   36 1   
    14    7   37 1   
    15    7   38 1   
    16    8    9 1   
    17    8   39 1   
    18    8   40 1   
    19    9   10 ar  
    20    9   15 ar  
    21   10   11 ar  
    22   10   41 1   
    23   11   12 ar  
    24   11   42 1   
    25   12   13 1   
    26   12   16 ar  
    27   13   14 1   
    28   14   43 1   
    29   14   44 1   
    30   14   45 1   
    31   15   16 ar  
    32   15   46 1   
    33   16   17 1   
    34   17   18 1   
    35   17   47 1   
    36   17   48 1   
    37   18   19 1   
    38   18   49 1   
    39   19   20 2   
    40   19   21 1   
    41   21   22 ar  
    42   21   24 ar  
    43   22   23 ar  
    44   22   50 1   
    45   23   26 ar  
    46   23   51 1   
    47   24   25 ar  
    48   24   52 1   
    49   25   26 ar  
    50   25   53 1   
    51   26   27 1   
    52   27   28 1   
    53   27   29 1   
    54   27   30 1   
@<TRIPOS>SUBSTRUCTURE
     1 J35         1 TEMP              0 ****  ****    0 ROOT
