@<TRIPOS>MOLECULE
J35
   53    50     1     0     0
SMALL
bcc


@<TRIPOS>ATOM
      1 O2          0.1150   -2.8710   -4.8590 o         1 J35     -0.579000
      2 C19         1.1700   -2.2660   -4.5480 c2        1 J35      0.330000
      3 O3          1.8690   -1.7210   -5.4440 o         1 J35     -0.579000
      4 C20         1.6490   -2.2960   -3.1590 c3        1 J35     -0.173000
      5 C21         3.0030   -2.9930   -3.1010 c3        1 J35     -0.127000
      6 C18         2.7990   -4.5320   -3.1050 c3        1 J35     -0.173000
      7 C22         4.1450   -5.2170   -3.1380 c3        1 J35     -0.201000
      8 C17         1.8000   -0.8460   -2.6320 c3        1 J35     -0.114000
      9 C15         0.4230   -0.2750   -2.3040 c2        1 J35     -0.059000
     10 C14        -0.2370    0.5070   -3.2350 c1        1 J35     -0.074000
     11 C13        -1.4460    1.1110   -2.9080 c1        1 J35     -0.196000
     12 C11        -1.9930    0.9290   -1.6420 c1        1 J35      0.045000
     13 O4         -3.2640    1.4890   -1.3300 os        1 J35     -0.247000
     14 C8         -4.2940    1.0970   -2.2050 c3        1 J35     -0.069000
     15 C12        -0.1210   -0.4580   -1.0400 c2        1 J35     -0.104000
     16 C10        -1.3330    0.1450   -0.7080 c1        1 J35     -0.155000
     17 C9         -1.9400   -0.0810    0.6630 c3        1 J35      0.022000
     18 N1         -1.4710    0.9500    1.5800 n         1 J35     -0.345000
     19 C4         -2.0380    1.0440    2.9270 c2        1 J35      0.328000
     20 O1         -3.1000    0.4870    3.1850 o         1 J35     -0.370000
     21 C1         -1.3600    1.9600    3.9930 c2        1 J35     -0.080000
     22 C3         -1.8990    3.2020    4.2790 c2        1 J35     -0.090000
     23 C5         -1.3520    3.9780    5.2830 c1        1 J35     -0.095000
     24 C2         -0.2770    1.4970    4.7090 c1        1 J35     -0.108000
     25 C7          0.2710    2.2740    5.7140 c1        1 J35     -0.090000
     26 C6         -0.2690    3.5170    6.0000 c1        1 J35     -0.153000
     27 C16         0.4300    4.4460    7.0300 c3        1 J35      0.465000
     28 F1         -0.1090    4.2610    8.2300 f         1 J35     -0.169000
     29 F3          1.7320    4.1580    7.0770 f         1 J35     -0.169000
     30 F2          0.2680    5.7220    6.6620 f         1 J35     -0.169000
     31 H2          0.9990   -2.7890   -2.5960 hc        1 J35      0.082000
     32 H3          3.4750   -2.7250   -2.2760 hc        1 J35      0.059000
     33 H4          3.5430   -2.7300   -3.8890 hc        1 J35      0.059000
     34 H5          2.3210   -4.7980   -2.3030 hc        1 J35      0.099000
     35 H6          2.2710   -4.7970   -3.9090 hc        1 J35      0.099000
     36 H7          4.6230   -5.0400   -2.2960 hc        1 J35      0.055333
     37 H8          4.0170   -6.1830   -3.2450 hc        1 J35      0.055333
     38 H9          4.6680   -4.8740   -3.8860 hc        1 J35      0.055333
     39 H10         2.2400   -0.2750   -3.3390 hc        1 J35      0.086000
     40 H11         2.3590   -0.8480   -1.8180 hc        1 J35      0.086000
     41 H12         0.1750    0.6700   -4.1270 ha        1 J35      0.208000
     42 H13        -1.9010    1.6520   -3.5540 ha        1 J35      0.131000
     43 H14        -4.2280    0.1290   -2.3770 h1        1 J35      0.077333
     44 H15        -4.2080    1.5840   -3.0450 h1        1 J35      0.077333
     45 H16        -5.1710    1.3000   -1.7940 h1        1 J35      0.077333
     46 H17         0.3270   -1.0270   -0.3990 ha        1 J35      0.131000
     47 H18        -2.9200   -0.0420    0.5990 h1        1 J35      0.105500
     48 H19        -1.6730   -0.9520    0.9940 h1        1 J35      0.105500
     49 H20        -0.8380    1.5760    1.2940 hn        1 J35      0.233000
     50 H21        -2.6860    3.5380    3.7590 ha        1 J35      0.162000
     51 H22        -1.7440    4.8820    5.4910 ha        1 J35      0.149000
     52 H23         0.1130    0.5970    4.5010 ha        1 J35      0.157000
     53 H24         1.0700    1.9330    6.2430 ha        1 J35      0.152000
@<TRIPOS>BOND
     1    1    2 1   
     2    2    3 1   
     3    2    4 1   
     4    4    5 1   
     5    4    8 1   
     6    4   31 1   
     7    5    6 1   
     8    5   32 1   
     9    5   33 1   
    10    6    7 1   
    11    6   34 1   
    12    6   35 1   
    13    7   36 1   
    14    7   37 1   
    15    7   38 1   
    16    8    9 1   
    17    8   39 1   
    18    8   40 1   
    19    9   10 1   
    20    9   15 1   
    21   10   41 1   
    22   11   12 1   
    23   11   42 1   
    24   12   13 1   
    25   13   14 1   
    26   14   43 1   
    27   14   44 1   
    28   14   45 1   
    29   15   16 1   
    30   15   46 1   
    31   16   17 1   
    32   17   18 1   
    33   17   47 1   
    34   17   48 1   
    35   18   19 1   
    36   18   49 1   
    37   19   20 1   
    38   19   21 1   
    39   21   22 1   
    40   21   24 1   
    41   22   23 1   
    42   22   50 1   
    43   23   51 1   
    44   24   52 1   
    45   25   26 1   
    46   25   53 1   
    47   26   27 1   
    48   27   28 1   
    49   27   29 1   
    50   27   30 1   
@<TRIPOS>SUBSTRUCTURE
     1 J35         1 TEMP              0 ****  ****    0 ROOT
