@<TRIPOS>MOLECULE
J35
   54    55     1     0     0
SMALL
bcc


@<TRIPOS>ATOM
      1 O2          1.0460   -0.6870   -0.8240 o         1 J35     -0.834300
      2 C19         1.5160    0.2850   -0.1750 c         1 J35      0.908600
      3 O3          1.4810    1.4890   -0.5700 o         1 J35     -0.834300
      4 C20         2.1500   -0.0140    1.2100 c3        1 J35     -0.189700
      5 C21         3.6540   -0.1530    1.0610 c3        1 J35     -0.052400
      6 C18         4.0130   -1.4370    0.3430 c3        1 J35     -0.088400
      7 C22         5.4790   -1.4920    0.0010 c3        1 J35     -0.087100
      8 C17         1.8280    1.1030    2.1940 c3        1 J35     -0.033100
      9 C15         0.3770    1.1520    2.5240 ca        1 J35     -0.047300
     10 C14        -0.5310    1.6890    1.5900 ca        1 J35     -0.028000
     11 C13        -1.8940    1.7350    1.8680 ca        1 J35     -0.187000
     12 C11        -2.3640    1.2330    3.0860 ca        1 J35      0.112100
     13 O4         -3.6960    1.2890    3.4790 os        1 J35     -0.410900
     14 C8         -4.6460    1.3510    2.4150 c3        1 J35      0.122700
     15 C12        -0.1010    0.6560    3.7350 ca        1 J35     -0.090000
     16 C10        -1.4730    0.6790    4.0250 ca        1 J35     -0.240300
     17 C9         -1.9860    0.0820    5.2790 c3        1 J35      0.214100
     18 N1         -2.6010    1.1680    6.1340 ny        1 J35     -0.676800
     19 C4         -3.0400    0.7070    7.4870 c         1 J35      0.553700
     20 O1         -3.1980   -0.4970    7.6520 o         1 J35     -0.420100
     21 C1         -3.2190    1.7540    8.5090 ca        1 J35     -0.172600
     22 C3         -3.5210    3.0840    8.1850 ca        1 J35     -0.077500
     23 C5         -3.6930    4.0200    9.2020 ca        1 J35     -0.080500
     24 C2         -3.0990    1.3630    9.8510 ca        1 J35     -0.077500
     25 C7         -3.2680    2.3050   10.8660 ca        1 J35     -0.080500
     26 C6         -3.5630    3.6280   10.5380 ca        1 J35     -0.112300
     27 C16        -3.7680    4.6600   11.6500 c3        1 J35      0.685200
     28 F1         -5.0740    4.7720   12.0570 f         1 J35     -0.220967
     29 F3         -3.0660    4.3930   12.7980 f         1 J35     -0.220967
     30 F2         -3.4010    5.9360   11.3030 f         1 J35     -0.220967
     31 H2          1.7230   -0.9810    1.5880 hc        1 J35      0.040700
     32 H3          4.1470   -0.1390    2.0700 hc        1 J35      0.025700
     33 H4          4.0440    0.7260    0.4830 hc        1 J35      0.025700
     34 H5          3.3900   -1.5120   -0.5920 hc        1 J35      0.056200
     35 H6          3.7430   -2.3150    0.9880 hc        1 J35      0.056200
     36 H7          6.1060   -1.4130    0.9220 hc        1 J35      0.022367
     37 H8          5.7540   -0.6530   -0.6820 hc        1 J35      0.022367
     38 H9          5.7230   -2.4550   -0.5090 hc        1 J35      0.022367
     39 H10         2.1290    2.0760    1.7140 hc        1 J35      0.051700
     40 H11         2.4260    0.9720    3.1350 hc        1 J35      0.051700
     41 H12        -0.1330    2.0400    0.6070 ha        1 J35      0.239000
     42 H13        -2.5900    2.1460    1.1230 ha        1 J35      0.152000
     43 H14        -4.4120    0.5940    1.6270 h1        1 J35      0.055033
     44 H15        -5.6210    1.1210    2.9140 h1        1 J35      0.055033
     45 H16        -4.6570    2.3800    1.9810 h1        1 J35      0.055033
     46 H17         0.6000    0.2140    4.4600 ha        1 J35      0.134000
     47 H18        -1.1720   -0.4110    5.8800 hx        1 J35      0.105200
     48 H19        -2.8040   -0.6680    5.0710 hx        1 J35      0.105200
     49 H20        -1.9230    1.9320    6.2350 hn        1 J35      0.467800
     50 H21        -3.6490    3.4140    7.1430 ha        1 J35      0.160000
     51 H22        -3.9290    5.0700    8.9570 ha        1 J35      0.178500
     52 H23        -2.8770    0.3110   10.1020 ha        1 J35      0.160000
     53 H24        -3.1670    2.0040   11.9240 ha        1 J35      0.178500
     54 H121       -3.4180    1.5380    5.6210 hn        1 J35      0.467800
@<TRIPOS>BOND
     1    1    2 1   
     2    2    3 1   
     3    2    4 1   
     4    4    5 1   
     5    4    8 1   
     6    4   31 1   
     7    5    6 1   
     8    5   32 1   
     9    5   33 1   
    10    6    7 1   
    11    6   34 1   
    12    6   35 1   
    13    7   36 1   
    14    7   37 1   
    15    7   38 1   
    16    8    9 1   
    17    8   39 1   
    18    8   40 1   
    19    9   10 ar  
    20    9   15 ar  
    21   10   11 ar  
    22   10   41 1   
    23   11   12 ar  
    24   11   42 1   
    25   12   13 1   
    26   12   16 ar  
    27   13   14 1   
    28   14   43 1   
    29   14   44 1   
    30   14   45 1   
    31   15   16 ar  
    32   15   46 1   
    33   16   17 1   
    34   17   18 1   
    35   17   47 1   
    36   17   48 1   
    37   18   19 1   
    38   18   49 1   
    39   18   54 1   
    40   19   20 2   
    41   19   21 1   
    42   21   22 ar  
    43   21   24 ar  
    44   22   23 ar  
    45   22   50 1   
    46   23   26 ar  
    47   23   51 1   
    48   24   25 ar  
    49   24   52 1   
    50   25   26 ar  
    51   25   53 1   
    52   26   27 1   
    53   27   28 1   
    54   27   29 1   
    55   27   30 1   
@<TRIPOS>SUBSTRUCTURE
     1 J35         1 TEMP              0 ****  ****    0 ROOT
