@<TRIPOS>MOLECULE
J35
   54    55     1     0     0
SMALL
bcc


@<TRIPOS>ATOM
      1 O2          1.0670   -0.6940   -0.8140 o         1 J35     -0.834300
      2 C19         1.5350    0.2770   -0.1630 c         1 J35      0.908600
      3 O3          1.5040    1.4810   -0.5590 o         1 J35     -0.834300
      4 C20         2.1600   -0.0220    1.2270 c3        1 J35     -0.189700
      5 C21         3.6650   -0.1640    1.0870 c3        1 J35     -0.052400
      6 C18         4.0260   -1.4500    0.3710 c3        1 J35     -0.088400
      7 C22         5.4940   -1.5080    0.0400 c3        1 J35     -0.087100
      8 C17         1.8340    1.0970    2.2080 c3        1 J35     -0.033100
      9 C15         0.3810    1.1480    2.5290 ca        1 J35     -0.047300
     10 C14        -0.5210    1.6850    1.5890 ca        1 J35     -0.028000
     11 C13        -1.8850    1.7340    1.8590 ca        1 J35     -0.187000
     12 C11        -2.3630    1.2350    3.0740 ca        1 J35      0.112100
     13 O4         -3.6970    1.2930    3.4600 os        1 J35     -0.410900
     14 C8         -4.6410    1.3550    2.3900 c3        1 J35      0.122700
     15 C12        -0.1050    0.6540    3.7370 ca        1 J35     -0.090000
     16 C10        -1.4790    0.6800    4.0200 ca        1 J35     -0.240300
     17 C9         -2.0000    0.0850    5.2710 c3        1 J35      0.214100
     18 N1         -2.6180    1.1730    6.1210 n4        1 J35     -0.677800
     19 C4         -3.0630    0.7150    7.4730 c         1 J35      0.553700
     20 O1         -3.2310   -0.4880    7.6360 o         1 J35     -0.420100
     21 C1         -3.2370    1.7620    8.4950 ca        1 J35     -0.172600
     22 C3         -3.5320    3.0940    8.1710 ca        1 J35     -0.077500
     23 C5         -3.6990    4.0310    9.1880 ca        1 J35     -0.080500
     24 C2         -3.1200    1.3710    9.8370 ca        1 J35     -0.077500
     25 C7         -3.2830    2.3130   10.8520 ca        1 J35     -0.080500
     26 C6         -3.5710    3.6380   10.5240 ca        1 J35     -0.112300
     27 C16        -3.7700    4.6710   11.6360 c3        1 J35      0.685200
     28 F1         -5.0750    4.7890   12.0450 f         1 J35     -0.220967
     29 F3         -3.0680    4.4020   12.7830 f         1 J35     -0.220967
     30 F2         -3.3980    5.9450   11.2880 f         1 J35     -0.220967
     31 H2          1.7290   -0.9880    1.6020 hc        1 J35      0.040700
     32 H3          4.0600    0.7140    0.5110 hc        1 J35      0.025700
     33 H4          4.1520   -0.1510    2.0990 hc        1 J35      0.025700
     34 H5          3.7490   -2.3260    1.0150 hc        1 J35      0.056200
     35 H6          3.4090   -1.5230   -0.5670 hc        1 J35      0.056200
     36 H7          5.7760   -0.6690   -0.6420 hc        1 J35      0.022367
     37 H8          6.1140   -1.4300    0.9650 hc        1 J35      0.022367
     38 H9          5.7390   -2.4710   -0.4690 hc        1 J35      0.022367
     39 H10         2.1400    2.0690    1.7290 hc        1 J35      0.051700
     40 H11         2.4260    0.9660    3.1530 hc        1 J35      0.051700
     41 H12        -0.1160    2.0350    0.6080 ha        1 J35      0.239000
     42 H13        -2.5760    2.1460    1.1090 ha        1 J35      0.152000
     43 H14        -4.4040    0.5980    1.6050 h1        1 J35      0.055033
     44 H15        -4.6470    2.3850    1.9550 h1        1 J35      0.055033
     45 H16        -5.6190    1.1280    2.8840 h1        1 J35      0.055033
     46 H17         0.5910    0.2120    4.4670 ha        1 J35      0.134000
     47 H18        -2.8180   -0.6630    5.0590 hx        1 J35      0.105200
     48 H19        -1.1910   -0.4080    5.8770 hx        1 J35      0.105200
     49 H20        -3.4320    1.5430    5.6040 hn        1 J35      0.467800
     50 H21        -3.6580    3.4250    7.1290 ha        1 J35      0.160000
     51 H22        -3.9290    5.0830    8.9430 ha        1 J35      0.178500
     52 H23        -2.9030    0.3180   10.0880 ha        1 J35      0.160000
     53 H24        -3.1840    2.0120   11.9100 ha        1 J35      0.178500
     54 H121       -1.9400    1.9370    6.2240 hn        1 J35      0.467800
@<TRIPOS>BOND
     1    1    2 1   
     2    2    3 1   
     3    2    4 1   
     4    4    5 1   
     5    4    8 1   
     6    4   31 1   
     7    5    6 1   
     8    5   32 1   
     9    5   33 1   
    10    6    7 1   
    11    6   34 1   
    12    6   35 1   
    13    7   36 1   
    14    7   37 1   
    15    7   38 1   
    16    8    9 1   
    17    8   39 1   
    18    8   40 1   
    19    9   10 ar  
    20    9   15 ar  
    21   10   11 ar  
    22   10   41 1   
    23   11   12 ar  
    24   11   42 1   
    25   12   13 1   
    26   12   16 ar  
    27   13   14 1   
    28   14   43 1   
    29   14   44 1   
    30   14   45 1   
    31   15   16 ar  
    32   15   46 1   
    33   16   17 1   
    34   17   18 1   
    35   17   47 1   
    36   17   48 1   
    37   18   19 1   
    38   18   49 1   
    39   18   54 1   
    40   19   20 2   
    41   19   21 1   
    42   21   22 ar  
    43   21   24 ar  
    44   22   23 ar  
    45   22   50 1   
    46   23   26 ar  
    47   23   51 1   
    48   24   25 ar  
    49   24   52 1   
    50   25   26 ar  
    51   25   53 1   
    52   26   27 1   
    53   27   28 1   
    54   27   29 1   
    55   27   30 1   
@<TRIPOS>SUBSTRUCTURE
     1 J35         1 TEMP              0 ****  ****    0 ROOT
