@<TRIPOS>MOLECULE
J35
   54    55     1     0     0
SMALL
bcc


@<TRIPOS>ATOM
      1 O2          1.0540   -0.6890   -0.8200 o         1 J35     -0.834300
      2 C19         1.5240    0.2820   -0.1710 c         1 J35      0.908600
      3 O3          1.4920    1.4870   -0.5650 o         1 J35     -0.834300
      4 C20         2.1540   -0.0180    1.2170 c3        1 J35     -0.189700
      5 C21         3.6590   -0.1610    1.0710 c3        1 J35     -0.052400
      6 C18         4.0170   -1.4450    0.3530 c3        1 J35     -0.088400
      7 C22         5.4830   -1.5030    0.0150 c3        1 J35     -0.087100
      8 C17         1.8320    1.0990    2.2000 c3        1 J35     -0.033100
      9 C15         0.3800    1.1510    2.5260 ca        1 J35     -0.047300
     10 C14        -0.5240    1.6900    1.5900 ca        1 J35     -0.028000
     11 C13        -1.8870    1.7380    1.8650 ca        1 J35     -0.187000
     12 C11        -2.3610    1.2370    3.0820 ca        1 J35      0.112100
     13 O4         -3.6940    1.2950    3.4720 os        1 J35     -0.410900
     14 C8         -4.6420    1.3590    2.4050 c3        1 J35      0.122700
     15 C12        -0.1020    0.6550    3.7360 ca        1 J35     -0.090000
     16 C10        -1.4740    0.6810    4.0230 ca        1 J35     -0.240300
     17 C9         -1.9910    0.0840    5.2750 c3        1 J35      0.214100
     18 N1         -2.6060    1.1710    6.1290 n4        1 J35     -0.676800
     19 C4         -3.0490    0.7110    7.4810 c         1 J35      0.553700
     20 O1         -3.2100   -0.4930    7.6450 o         1 J35     -0.420100
     21 C1         -3.2270    1.7570    8.5030 ca        1 J35     -0.172600
     22 C3         -3.5250    3.0880    8.1800 ca        1 J35     -0.077500
     23 C5         -3.6960    4.0240    9.1970 ca        1 J35     -0.080500
     24 C2         -3.1110    1.3650    9.8450 ca        1 J35     -0.077500
     25 C7         -3.2780    2.3070   10.8610 ca        1 J35     -0.080500
     26 C6         -3.5690    3.6310   10.5330 ca        1 J35     -0.112300
     27 C16        -3.7730    4.6630   11.6460 c3        1 J35      0.685200
     28 F1         -5.0800    4.7780   12.0510 f         1 J35     -0.220967
     29 F3         -3.0740    4.3930   12.7940 f         1 J35     -0.220967
     30 F2         -3.4020    5.9380   11.3000 f         1 J35     -0.220967
     31 H2          1.7250   -0.9840    1.5930 hc        1 J35      0.040700
     32 H3          4.1490   -0.1480    2.0810 hc        1 J35      0.025700
     33 H4          4.0510    0.7180    0.4940 hc        1 J35      0.025700
     34 H5          3.3960   -1.5180   -0.5830 hc        1 J35      0.056200
     35 H6          3.7440   -2.3220    0.9970 hc        1 J35      0.056200
     36 H7          5.7270   -2.4660   -0.4950 hc        1 J35      0.022367
     37 H8          6.1080   -1.4250    0.9370 hc        1 J35      0.022367
     38 H9          5.7620   -0.6640   -0.6680 hc        1 J35      0.022367
     39 H10         2.4270    0.9670    3.1420 hc        1 J35      0.051700
     40 H11         2.1360    2.0720    1.7210 hc        1 J35      0.051700
     41 H12        -0.1230    2.0400    0.6080 ha        1 J35      0.239000
     42 H13        -2.5810    2.1510    1.1180 ha        1 J35      0.152000
     43 H14        -4.4080    0.6020    1.6180 h1        1 J35      0.055033
     44 H15        -5.6180    1.1300    2.9020 h1        1 J35      0.055033
     45 H16        -4.6490    2.3880    1.9720 h1        1 J35      0.055033
     46 H17         0.5980    0.2120    4.4620 ha        1 J35      0.134000
     47 H18        -1.1800   -0.4100    5.8780 hx        1 J35      0.105200
     48 H19        -2.8100   -0.6640    5.0650 hx        1 J35      0.105200
     49 H20        -3.4210    1.5420    5.6150 hn        1 J35      0.467800
     50 H21        -3.6500    3.4200    7.1380 ha        1 J35      0.160000
     51 H22        -3.9290    5.0750    8.9530 ha        1 J35      0.178500
     52 H23        -2.8920    0.3130   10.0960 ha        1 J35      0.160000
     53 H24        -3.1800    2.0050   11.9180 ha        1 J35      0.178500
     54 H121       -1.9270    1.9340    6.2320 hn        1 J35      0.467800
@<TRIPOS>BOND
     1    1    2 1   
     2    2    3 1   
     3    2    4 1   
     4    4    5 1   
     5    4    8 1   
     6    4   31 1   
     7    5    6 1   
     8    5   32 1   
     9    5   33 1   
    10    6    7 1   
    11    6   34 1   
    12    6   35 1   
    13    7   36 1   
    14    7   37 1   
    15    7   38 1   
    16    8    9 1   
    17    8   39 1   
    18    8   40 1   
    19    9   10 ar  
    20    9   15 ar  
    21   10   11 ar  
    22   10   41 1   
    23   11   12 ar  
    24   11   42 1   
    25   12   13 1   
    26   12   16 ar  
    27   13   14 1   
    28   14   43 1   
    29   14   44 1   
    30   14   45 1   
    31   15   16 ar  
    32   15   46 1   
    33   16   17 1   
    34   17   18 1   
    35   17   47 1   
    36   17   48 1   
    37   18   19 1   
    38   18   49 1   
    39   18   54 1   
    40   19   20 2   
    41   19   21 1   
    42   21   22 ar  
    43   21   24 ar  
    44   22   23 ar  
    45   22   50 1   
    46   23   26 ar  
    47   23   51 1   
    48   24   25 ar  
    49   24   52 1   
    50   25   26 ar  
    51   25   53 1   
    52   26   27 1   
    53   27   28 1   
    54   27   29 1   
    55   27   30 1   
@<TRIPOS>SUBSTRUCTURE
     1 J35         1 TEMP              0 ****  ****    0 ROOT
