@<TRIPOS>MOLECULE
J38
   26    27     1     0     0
SMALL
bcc


@<TRIPOS>ATOM
      1 C01         4.7060   -0.3120   -0.0670 c3        1 J38     -0.085100
      2 C02         3.2940   -0.0690   -0.5380 c3        1 J38     -0.085600
      3 S03         2.3550   -1.4890   -0.0430 ss        1 J38     -0.132000
      4 C04         0.7630   -0.9370   -0.1190 ca        1 J38     -0.042100
      5 C05        -0.2490   -1.8950   -0.2400 ca        1 J38     -0.095000
      6 C06        -1.5890   -1.5310   -0.2520 ca        1 J38     -0.113000
      7 C07        -1.9370   -0.1780   -0.1620 ca        1 J38     -0.124600
      8 C08        -3.3520    0.2780   -0.1830 c         1 J38      0.601700
      9 O09        -3.6920    1.3740   -0.6580 o         1 J38     -0.555100
     10 N10        -4.3500   -0.6470    0.2660 n         1 J38     -0.346400
     11 O11        -5.5160   -0.0820    0.5890 oh        1 J38     -0.436100
     12 C12        -0.9470    0.8000   -0.0630 ca        1 J38     -0.113000
     13 C13         0.4160    0.4320   -0.0240 ca        1 J38      0.063600
     14 N14         1.3910    1.4240    0.1300 n         1 J38     -0.472100
     15 C15         2.7610    1.2490   -0.0240 c         1 J38      0.706500
     16 O16         3.5070    2.2120    0.2280 o         1 J38     -0.605500
     17 H01         5.1120   -1.2420   -0.5360 hc        1 J38      0.063033
     18 H01A        5.3550    0.5530   -0.3540 hc        1 J38      0.063033
     19 H01B        4.7420   -0.4200    1.0440 hc        1 J38      0.063033
     20 H02         3.2820    0.0050   -1.6620 h1        1 J38      0.103700
     21 H05         0.0310   -2.9580   -0.3280 ha        1 J38      0.151000
     22 H06        -2.3600   -2.3100   -0.3580 ha        1 J38      0.150000
     23 H12        -1.2480    1.8600   -0.0190 ha        1 J38      0.162000
     24 HN14        1.0750    2.3380    0.3790 hn        1 J38      0.339500
     25 H10        -4.0410   -1.1890    1.0660 hn        1 J38      0.299500
     26 H11        -5.9220    0.1970   -0.2560 ho        1 J38      0.437000
@<TRIPOS>BOND
     1    1    2 1   
     2    1   17 1   
     3    1   18 1   
     4    1   19 1   
     5    2    3 1   
     6    2   15 1   
     7    2   20 1   
     8    3    4 1   
     9    4    5 ar  
    10    4   13 ar  
    11    5    6 ar  
    12    5   21 1   
    13    6    7 ar  
    14    6   22 1   
    15    7    8 1   
    16    7   12 ar  
    17    8    9 2   
    18    8   10 1   
    19   10   11 1   
    20   10   25 1   
    21   11   26 1   
    22   12   13 ar  
    23   12   23 1   
    24   13   14 1   
    25   14   15 1   
    26   14   24 1   
    27   15   16 2   
@<TRIPOS>SUBSTRUCTURE
     1 J38         1 TEMP              0 ****  ****    0 ROOT
