@<TRIPOS>MOLECULE
J38
   27    28     1     0     0
SMALL
bcc


@<TRIPOS>ATOM
      1 C01         0.0220   -0.2630    0.1460 c3        1 J38     -0.095100
      2 C02         1.4880   -0.0870   -0.1740 c3        1 J38     -0.110600
      3 S03         2.2610    0.3870    1.3480 ss        1 J38      0.011000
      4 C04         3.8180   -0.1750    1.2330 ca        1 J38     -0.010100
      5 C05         4.7340    0.2960    2.1940 ca        1 J38     -0.102000
      6 C06         6.0530   -0.1150    2.2060 ca        1 J38     -0.096000
      7 C07         6.5070   -1.0220    1.2310 ca        1 J38     -0.207600
      8 C08         7.8660   -1.5060    1.1390 c         1 J38      0.572700
      9 O09         8.4040   -2.2350    0.3170 o         1 J38     -0.439100
     10 N10         8.8290   -1.0430    2.2600 n4        1 J38     -0.464300
     11 O11        10.0560   -1.6070    2.2360 oh        1 J38     -0.363300
     12 C12         5.6130   -1.5140    0.2610 ca        1 J38     -0.070000
     13 C13         4.2630   -1.1140    0.2580 ca        1 J38      0.066600
     14 N14         3.3880   -1.6600   -0.6750 n         1 J38     -0.479100
     15 C15         2.0470   -1.3080   -0.8610 c         1 J38      0.708500
     16 O16         1.3760   -1.9980   -1.6400 o         1 J38     -0.548500
     17 H01        -0.5430   -0.4910   -0.7940 hc        1 J38      0.076033
     18 H01A       -0.3890    0.6750    0.5940 hc        1 J38      0.076033
     19 H01B       -0.1350   -1.1080    0.8600 hc        1 J38      0.076033
     20 H02         1.6050    0.7650   -0.9050 h1        1 J38      0.124700
     21 H05         4.3780    1.0160    2.9530 ha        1 J38      0.175000
     22 H06         6.7150    0.2970    2.9820 ha        1 J38      0.128000
     23 H12         5.9860   -2.2300   -0.4950 ha        1 J38      0.173000
     24 HN14        3.7290   -2.4150   -1.2370 hn        1 J38      0.349500
     25 H10         8.4160   -1.2820    3.1830 hn        1 J38      0.479300
     26 H11        10.1930   -2.0720    1.3710 ho        1 J38      0.490000
     27 H102        8.9500   -0.0150    2.2040 hn        1 J38      0.479300
@<TRIPOS>BOND
     1    1    2 1   
     2    1   17 1   
     3    1   18 1   
     4    1   19 1   
     5    2    3 1   
     6    2   15 1   
     7    2   20 1   
     8    3    4 1   
     9    4    5 ar  
    10    4   13 ar  
    11    5    6 ar  
    12    5   21 1   
    13    6    7 ar  
    14    6   22 1   
    15    7    8 1   
    16    7   12 ar  
    17    8    9 2   
    18    8   10 1   
    19   10   11 1   
    20   10   25 1   
    21   10   27 1   
    22   11   26 1   
    23   12   13 ar  
    24   12   23 1   
    25   13   14 1   
    26   14   15 1   
    27   14   24 1   
    28   15   16 2   
@<TRIPOS>SUBSTRUCTURE
     1 J38         1 TEMP              0 ****  ****    0 ROOT
