@<TRIPOS>MOLECULE
J38
   27    28     1     0     0
SMALL
bcc


@<TRIPOS>ATOM
      1 C01         0.0300   -0.2960    0.1080 c3        1 J38     -0.095100
      2 C02         1.4980   -0.1250   -0.2090 c3        1 J38     -0.110600
      3 S03         2.2610    0.3910    1.3040 ss        1 J38      0.011000
      4 C04         3.8200   -0.1690    1.2130 ca        1 J38     -0.010100
      5 C05         4.7290    0.3300    2.1660 ca        1 J38     -0.102000
      6 C06         6.0490   -0.0760    2.1960 ca        1 J38     -0.096000
      7 C07         6.5110   -1.0080    1.2480 ca        1 J38     -0.207600
      8 C08         7.8720   -1.4910    1.1760 c         1 J38      0.572700
      9 O09         8.4160   -2.2420    0.3790 o         1 J38     -0.439100
     10 N10         8.8290   -0.9920    2.2870 n4        1 J38     -0.464300
     11 O11        10.0590   -1.5490    2.2830 oh        1 J38     -0.363300
     12 C12         5.6240   -1.5290    0.2870 ca        1 J38     -0.070000
     13 C13         4.2730   -1.1330    0.2660 ca        1 J38      0.066600
     14 N14         3.4040   -1.7060   -0.6570 n         1 J38     -0.479100
     15 C15         2.0630   -1.3620   -0.8600 c         1 J38      0.708500
     16 O16         1.3990   -2.0750   -1.6230 o         1 J38     -0.548500
     17 H01        -0.3860    0.6530    0.5280 hc        1 J38      0.076033
     18 H01A       -0.5280   -0.5510   -0.8290 hc        1 J38      0.076033
     19 H01B       -0.1290   -1.1220    0.8430 hc        1 J38      0.076033
     20 H02         1.6170    0.7070   -0.9620 h1        1 J38      0.124700
     21 H05         4.3670    1.0690    2.9030 ha        1 J38      0.175000
     22 H06         6.7060    0.3580    2.9640 ha        1 J38      0.128000
     23 H12         6.0020   -2.2630   -0.4480 ha        1 J38      0.173000
     24 HN14        3.7500   -2.4750   -1.1960 hn        1 J38      0.349500
     25 H10         8.4140   -1.2060    3.2150 hn        1 J38      0.479300
     26 H11        10.1990   -2.0420    1.4340 ho        1 J38      0.490000
     27 H102        8.9450    0.0360    2.2020 hn        1 J38      0.479300
@<TRIPOS>BOND
     1    1    2 1   
     2    1   17 1   
     3    1   18 1   
     4    1   19 1   
     5    2    3 1   
     6    2   15 1   
     7    2   20 1   
     8    3    4 1   
     9    4    5 ar  
    10    4   13 ar  
    11    5    6 ar  
    12    5   21 1   
    13    6    7 ar  
    14    6   22 1   
    15    7    8 1   
    16    7   12 ar  
    17    8    9 2   
    18    8   10 1   
    19   10   11 1   
    20   10   25 1   
    21   10   27 1   
    22   11   26 1   
    23   12   13 ar  
    24   12   23 1   
    25   13   14 1   
    26   14   15 1   
    27   14   24 1   
    28   15   16 2   
@<TRIPOS>SUBSTRUCTURE
     1 J38         1 TEMP              0 ****  ****    0 ROOT
