@<TRIPOS>MOLECULE
J38
   27    28     1     0     0
SMALL
bcc


@<TRIPOS>ATOM
      1 C01         0.0380   -0.2670    0.0810 c3        1 J38     -0.095100
      2 C02         1.5080   -0.1180   -0.2350 c3        1 J38     -0.110600
      3 S03         2.2720    0.4270    1.2670 ss        1 J38      0.010000
      4 C04         3.8260   -0.1500    1.1940 ca        1 J38     -0.010100
      5 C05         4.7370    0.3620    2.1370 ca        1 J38     -0.102000
      6 C06         6.0530   -0.0560    2.1820 ca        1 J38     -0.096000
      7 C07         6.5080   -1.0150    1.2570 ca        1 J38     -0.207600
      8 C08         7.8640   -1.5120    1.2010 c         1 J38      0.572700
      9 O09         8.4050   -2.2840    0.4210 o         1 J38     -0.439100
     10 N10         8.8220   -1.0020    2.3080 ny        1 J38     -0.464300
     11 O11        10.0430   -1.5760    2.3230 oh        1 J38     -0.363300
     12 C12         5.6190   -1.5500    0.3060 ca        1 J38     -0.070000
     13 C13         4.2720   -1.1410    0.2720 ca        1 J38      0.066600
     14 N14         3.4000   -1.7280   -0.6400 ns        1 J38     -0.479100
     15 C15         2.0630   -1.3760   -0.8550 c         1 J38      0.708500
     16 O16         1.3940   -2.1000   -1.6030 o         1 J38     -0.548500
     17 H01        -0.3700    0.6960    0.4770 hc        1 J38      0.076033
     18 H01A       -0.5210   -0.5390   -0.8510 hc        1 J38      0.076033
     19 H01B       -0.1310   -1.0740    0.8350 hc        1 J38      0.076033
     20 H02         1.6370    0.6950   -1.0080 h1        1 J38      0.124700
     21 H05         4.3800    1.1230    2.8560 ha        1 J38      0.175000
     22 H06         6.7120    0.3900    2.9410 ha        1 J38      0.128000
     23 H12         5.9920   -2.3050   -0.4100 ha        1 J38      0.173000
     24 HN14        3.7400   -2.5130   -1.1600 hn        1 J38      0.349500
     25 H10         8.9520    0.0220    2.2010 hn        1 J38      0.479300
     26 H11        10.1850   -2.0830    1.4830 ho        1 J38      0.490000
     27 H102        8.3980   -1.1910    3.2370 hn        1 J38      0.479300
@<TRIPOS>BOND
     1    1    2 1   
     2    1   17 1   
     3    1   18 1   
     4    1   19 1   
     5    2    3 1   
     6    2   15 1   
     7    2   20 1   
     8    3    4 1   
     9    4    5 ar  
    10    4   13 ar  
    11    5    6 ar  
    12    5   21 1   
    13    6    7 ar  
    14    6   22 1   
    15    7    8 1   
    16    7   12 ar  
    17    8    9 2   
    18    8   10 1   
    19   10   11 1   
    20   10   25 1   
    21   10   27 1   
    22   11   26 1   
    23   12   13 ar  
    24   12   23 1   
    25   13   14 1   
    26   14   15 1   
    27   14   24 1   
    28   15   16 2   
@<TRIPOS>SUBSTRUCTURE
     1 J38         1 TEMP              0 ****  ****    0 ROOT
