@<TRIPOS>MOLECULE
J38
   26    25     1     0     0
SMALL
bcc


@<TRIPOS>ATOM
      1 C01        -4.5460    0.9120   -1.2780 c3        1 J38     -0.203000
      2 C02        -2.8570    0.9440   -1.2520 c3        1 J38     -0.257000
      3 S03        -2.3230    0.9010    0.2470 ss        1 J38      0.277000
      4 C04        -0.7300    0.3460    0.4870 c2        1 J38     -0.269000
      5 C05        -0.0890    0.4610    1.6960 c2        1 J38     -0.095000
      6 C06         1.2780    0.0580    1.8230 c1        1 J38     -0.113000
      7 C07         1.9850   -0.4710    0.6830 c1        1 J38     -0.104000
      8 C08         3.4790   -0.8790    0.8160 c2        1 J38      0.275000
      9 O09         4.0940   -1.3390   -0.1760 o         1 J38     -0.316000
     10 N10         4.1510   -0.7380    2.0770 n         1 J38     -0.187000
     11 O11         5.5250   -0.9110    2.1550 oh        1 J38     -0.241000
     12 C12         1.3260   -0.5920   -0.5690 c1        1 J38     -0.113000
     13 C13         0.0040   -0.2030   -0.6970 c1        1 J38      0.071000
     14 N14        -0.8250   -0.3600   -2.1320 n         1 J38     -0.326000
     15 C15        -2.2790   -0.1900   -2.1050 c2        1 J38      0.314000
     16 O16        -2.9730   -0.7360   -2.9470 o         1 J38     -0.330000
     17 H01        -4.8710    0.0880   -0.8140 hc        1 J38      0.102333
     18 H01A       -4.8990    1.7140   -0.8110 hc        1 J38      0.102333
     19 H01B       -4.8610    0.9090   -2.2070 hc        1 J38      0.102333
     20 H02        -2.6760    1.8320   -1.6700 h1        1 J38      0.143000
     21 H05        -0.5710    0.8220    2.4760 ha        1 J38      0.151000
     22 H06         1.7640    0.2360    2.6600 ha        1 J38      0.150000
     23 H12         1.8180   -0.9590   -1.3590 ha        1 J38      0.162000
     24 HN14       -0.4290   -0.7610   -2.8410 hn        1 J38      0.253000
     25 H10         3.6790   -0.5270    2.8200 hn        1 J38      0.213000
     26 H11         5.8270   -0.5590    2.9190 ho        1 J38      0.236000
@<TRIPOS>BOND
     1    1    2 1   
     2    1   17 1   
     3    1   18 1   
     4    1   19 1   
     5    2    3 1   
     6    2   15 1   
     7    2   20 1   
     8    3    4 1   
     9    4    5 1   
    10    4   13 1   
    11    5    6 1   
    12    5   21 1   
    13    6   22 1   
    14    7    8 1   
    15    7   12 1   
    16    8    9 1   
    17    8   10 1   
    18   10   11 1   
    19   10   25 1   
    20   11   26 1   
    21   12   23 1   
    22   13   14 1   
    23   14   15 1   
    24   14   24 1   
    25   15   16 1   
@<TRIPOS>SUBSTRUCTURE
     1 J38         1 TEMP              0 ****  ****    0 ROOT
