@<TRIPOS>MOLECULE
J3Z
   42    39     1     0     0
SMALL
bcc


@<TRIPOS>ATOM
      1 C2         -1.6790    0.1100   -1.5390 c1        1 J3Z     -0.163000
      2 C4          1.7350   -4.4950   -1.2580 c1        1 J3Z     -0.064000
      3 C5          2.2930   -3.1980   -1.1060 c2        1 J3Z     -0.304000
      4 C6          2.4380    1.2640   -3.2630 c3        1 J3Z     -0.278000
      5 C7          3.3990   -2.8570   -2.0360 c2        1 J3Z      0.286000
      6 C8          3.9200   -3.9840   -2.8650 c3        1 J3Z     -0.246000
      7 C9          2.2220   -0.8900   -0.0940 c3        1 J3Z     -0.187000
      8 C10         1.7940   -2.2930   -0.2140 c2        1 J3Z      0.056000
      9 C12         1.4250   -0.1170    0.9340 c3        1 J3Z     -0.162000
     10 C3         -1.2990    0.2470   -2.9070 c3        1 J3Z     -0.121000
     11 C14         1.9350    1.3130    1.0290 c3        1 J3Z     -0.048000
     12 C15         1.1870    2.0900    1.9690 c1        1 J3Z     -0.157000
     13 C16         0.5710    2.7530    2.7570 c1        1 J3Z     -0.122000
     14 C21        -1.9940   -0.0060   -0.3900 c1        1 J3Z     -0.233000
     15 C17        -0.1130    3.5250    3.6990 c2        1 J3Z     -0.100000
     16 C18        -1.3580    4.0240    3.5020 c2        1 J3Z      0.123000
     17 C19        -2.1310    3.8600    2.2860 c2        1 J3Z     -0.488000
     18 C20        -3.4320    3.8500    2.0920 c1        1 J3Z      0.230000
     19 H2          0.9800   -2.6110    0.4680 ha        1 J3Z      0.130000
     20 H14        -1.9240    1.0290   -3.4110 hc        1 J3Z      0.098000
     21 H24         1.0520   -4.8360   -0.4640 ha        1 J3Z      0.039000
     22 H16         1.7400    1.0420   -4.1000 hc        1 J3Z      0.070000
     23 H26         1.8550    1.5560   -2.3620 hc        1 J3Z      0.070000
     24 H36         3.1090    2.1010   -3.5540 hc        1 J3Z      0.070000
     25 HO3        -2.5580    5.3440    4.2000 ho        1 J3Z      0.222000
     26 H18         3.0480    0.3610   -3.0370 hc        1 J3Z      0.070000
     27 H28         4.7210   -3.6290   -3.5560 hc        1 J3Z      0.109000
     28 H19         3.0800   -4.4310   -3.4540 hc        1 J3Z      0.109000
     29 H29         4.3290   -4.7790   -2.1950 hc        1 J3Z      0.109000
     30 H10         2.1430   -0.3900   -1.1060 hc        1 J3Z      0.140000
     31 H12         3.3220   -0.8670    0.1580 hc        1 J3Z      0.140000
     32 H13        -1.4380   -0.7220   -3.4530 hc        1 J3Z      0.098000
     33 H23        -0.2200    0.5480   -2.9900 hc        1 J3Z      0.098000
     34 H114        1.5070   -0.6120    1.9370 hc        1 J3Z      0.093000
     35 H214        0.3390   -0.1110    0.6470 hc        1 J3Z      0.093000
     36 H115        1.8770    1.7970    0.0120 hc        1 J3Z      0.103500
     37 H215        3.0210    1.3050    1.3300 hc        1 J3Z      0.103500
     38 H17         0.4050    3.7130    4.6570 ha        1 J3Z      0.164000
     39 H19A       -1.5050    3.6710    1.3790 ha        1 J3Z      0.220000
     40 H20        -2.2850   -0.1060    0.6250 ha        1 J3Z      0.223000
     41 O1          3.8660   -1.7100   -2.1140 o         1 J3Z     -0.335000
     42 O3         -1.9320    4.7010    4.5620 oh        1 J3Z     -0.259000
@<TRIPOS>BOND
     1    1   10 1   
     2    1   14 1   
     3    2    3 1   
     4    2   21 1   
     5    3    5 1   
     6    3    8 1   
     7    4   22 1   
     8    4   23 1   
     9    4   24 1   
    10    4   26 1   
    11    5    6 1   
    12    5   41 1   
    13    6   27 1   
    14    6   28 1   
    15    6   29 1   
    16    7    8 1   
    17    7    9 1   
    18    7   30 1   
    19    7   31 1   
    20    8   19 1   
    21    9   11 1   
    22    9   34 1   
    23    9   35 1   
    24   10   20 1   
    25   10   32 1   
    26   10   33 1   
    27   11   12 1   
    28   11   36 1   
    29   11   37 1   
    30   12   13 1   
    31   13   15 1   
    32   14   40 1   
    33   15   16 1   
    34   15   38 1   
    35   16   17 1   
    36   16   42 1   
    37   17   18 1   
    38   17   39 1   
    39   25   42 1   
@<TRIPOS>SUBSTRUCTURE
     1 J3Z         1 TEMP              0 ****  ****    0 ROOT
