@<TRIPOS>MOLECULE
J3Z
   42    42     1     0     0
SMALL
bcc


@<TRIPOS>ATOM
      1 C2         -0.1490   -0.9580   -0.5410 c3        1 J3Z     -0.053000
      2 C4         -0.3420    1.0020   -1.8620 c3        1 J3Z     -0.142000
      3 C5          0.6030    1.1630   -1.8770 c3        1 J3Z     -0.096000
      4 C6          1.2250    0.6590   -3.1980 c3        1 J3Z     -0.198000
      5 O1          0.5900    3.2380   -2.7540 o         1 J3Z     -0.286000
      6 O3         -2.9650   -2.0340    4.2840 oh        1 J3Z     -0.252000
      7 C7          0.6590    2.4670   -1.8090 c1        1 J3Z      0.236000
      8 C8          0.4820    2.8130   -0.4100 c2        1 J3Z     -0.216000
      9 C9          0.9590    1.8080    0.1450 c3        1 J3Z     -0.159000
     10 C10         1.1670    0.7740   -0.9980 c3        1 J3Z     -0.089000
     11 C12         0.9100   -0.9580   -0.5410 c3        1 J3Z     -0.079000
     12 C3         -0.7490   -0.2970   -1.6730 c3        1 J3Z     -0.147000
     13 C14         1.7300   -0.9580    1.1150 c3        1 J3Z     -0.151000
     14 C15         1.3880   -1.5710    1.7470 c3        1 J3Z     -0.122000
     15 C16        -0.1180   -1.3860    1.9790 c2        1 J3Z     -0.036000
     16 C21        -0.8410   -0.7320    0.8250 c2        1 J3Z     -0.094000
     17 C17        -0.8250   -1.7770    3.1000 c1        1 J3Z     -0.207000
     18 C18        -2.2300   -1.5640    3.1660 c1        1 J3Z      0.076000
     19 C19        -2.9260   -0.9350    2.0550 c1        1 J3Z     -0.159000
     20 C20        -2.2030   -0.5290    0.8950 c1        1 J3Z     -0.093000
     21 H2         -0.3540   -1.8960   -0.7190 hc        1 J3Z      0.093000
     22 H14        -0.7120    1.3120   -2.7110 hc        1 J3Z      0.090500
     23 H24        -0.7280    1.5450   -1.1480 hc        1 J3Z      0.090500
     24 H16         1.4470   -0.2880   -3.1130 hc        1 J3Z      0.082667
     25 H26         0.5850    0.7790   -3.9250 hc        1 J3Z      0.082667
     26 H36         2.0360    1.1670   -3.3900 hc        1 J3Z      0.082667
     27 HO3        -3.2130   -2.8750    4.1430 ho        1 J3Z      0.217000
     28 H18        -0.4300    2.9620   -0.0950 ha        1 J3Z      0.115000
     29 H28         0.9180    3.6600   -0.1960 ha        1 J3Z      0.115000
     30 H19         1.8140    2.0260    0.5640 hc        1 J3Z      0.095500
     31 H29         0.3350    1.4580    0.8090 hc        1 J3Z      0.095500
     32 H10         2.1100    0.8370   -1.2430 hc        1 J3Z      0.086000
     33 H12         1.3060   -1.5810   -1.1800 hc        1 J3Z      0.084000
     34 H13        -0.5340   -0.8070   -2.4770 hc        1 J3Z      0.084500
     35 H23        -1.7180   -0.3020   -1.5540 hc        1 J3Z      0.084500
     36 H114        1.6330   -0.0630    1.4920 hc        1 J3Z      0.083000
     37 H214        2.6720   -1.1750    0.9770 hc        1 J3Z      0.083000
     38 H115        1.5370   -2.4750    1.4100 hc        1 J3Z      0.090500
     39 H215        1.8490   -1.4270    2.5950 hc        1 J3Z      0.090500
     40 H17        -0.3590   -2.1960    3.8480 ha        1 J3Z      0.134000
     41 H19A       -3.8870   -0.7760    2.1100 ha        1 J3Z      0.150000
     42 H20        -2.6720   -0.1060    0.1510 ha        1 J3Z      0.138000
@<TRIPOS>BOND
     1    1   11 1   
     2    1   12 1   
     3    1   16 1   
     4    1   21 1   
     5    2    3 1   
     6    2   12 1   
     7    2   22 1   
     8    2   23 1   
     9    3    4 1   
    10    3    7 1   
    11    3   10 1   
    12    4   24 1   
    13    4   25 1   
    14    4   26 1   
    15    5    7 1   
    16    6   18 1   
    17    6   27 1   
    18    8    9 1   
    19    8   28 1   
    20    8   29 1   
    21    9   10 1   
    22    9   30 1   
    23    9   31 1   
    24   10   11 1   
    25   10   32 1   
    26   11   13 1   
    27   11   33 1   
    28   12   34 1   
    29   12   35 1   
    30   13   14 1   
    31   13   36 1   
    32   13   37 1   
    33   14   15 1   
    34   14   38 1   
    35   14   39 1   
    36   15   16 1   
    37   15   17 1   
    38   16   20 1   
    39   17   40 1   
    40   18   19 1   
    41   19   41 1   
    42   20   42 1   
@<TRIPOS>SUBSTRUCTURE
     1 J3Z         1 TEMP              0 ****  ****    0 ROOT
