@<TRIPOS>MOLECULE
J3Z
   42    45     1     0     0
SMALL
bcc


@<TRIPOS>ATOM
      1 C2          0.2620   -0.3960   -0.5790 c3        1 J3Z     -0.008400
      2 C4         -1.8820   -1.7780   -0.3520 c3        1 J3Z     -0.056400
      3 C5         -2.5560   -0.5720    0.2740 c3        1 J3Z     -0.152000
      4 C6         -2.4400   -0.6230    1.7920 c3        1 J3Z     -0.083100
      5 C7         -4.0370   -0.3630   -0.0280 c         1 J3Z      0.577100
      6 C8         -4.2910    1.1310   -0.0920 c3        1 J3Z     -0.188400
      7 C9         -2.9190    1.8100   -0.0290 c3        1 J3Z     -0.072400
      8 C10        -1.9360    0.6930   -0.3650 c3        1 J3Z     -0.062700
      9 C12        -0.4790    0.8150    0.0180 c3        1 J3Z     -0.047700
     10 C3         -0.3730   -1.7190   -0.1590 c3        1 J3Z     -0.072400
     11 C14         0.1520    2.0890   -0.5110 c3        1 J3Z     -0.073400
     12 C15         1.5750    2.2130   -0.0130 c3        1 J3Z     -0.037100
     13 C16         2.3360    0.9310   -0.0300 ca        1 J3Z     -0.037300
     14 C21         1.7230   -0.3170   -0.2560 ca        1 J3Z     -0.101300
     15 C17         3.7100    1.0050    0.2160 ca        1 J3Z     -0.162000
     16 C18         4.4770   -0.1670    0.2390 ca        1 J3Z      0.124100
     17 C19         3.8790   -1.4140    0.0160 ca        1 J3Z     -0.215000
     18 C20         2.5110   -1.4730   -0.2300 ca        1 J3Z     -0.090000
     19 H2          0.1740   -0.3250   -1.7040 hc        1 J3Z      0.055700
     20 H14        -2.2790   -2.7180    0.1110 hc        1 J3Z      0.051700
     21 H24        -2.1240   -1.8130   -1.4460 hc        1 J3Z      0.051700
     22 H16        -2.8180    0.3250    2.2450 hc        1 J3Z      0.044367
     23 H26        -3.0470   -1.4760    2.1820 hc        1 J3Z      0.044367
     24 H36        -1.3810   -0.7690    2.1110 hc        1 J3Z      0.044367
     25 HO3         6.2270   -0.8980    0.4710 ho        1 J3Z      0.418000
     26 H18        -4.8240    1.3810   -1.0430 hc        1 J3Z      0.074700
     27 H28        -4.9420    1.4400    0.7620 hc        1 J3Z      0.074700
     28 H19        -2.8460    2.6480   -0.7630 hc        1 J3Z      0.049700
     29 H29        -2.7240    2.2250    0.9900 hc        1 J3Z      0.049700
     30 H10        -1.9750    0.5590   -1.4870 hc        1 J3Z      0.051700
     31 H12        -0.3740    0.8020    1.1370 hc        1 J3Z      0.062700
     32 H13         0.0730   -2.5470   -0.7730 hc        1 J3Z      0.044700
     33 H23        -0.1210   -1.9250    0.9140 hc        1 J3Z      0.044700
     34 H114        0.1360    2.0830   -1.6330 hc        1 J3Z      0.045200
     35 H214       -0.4450    2.9750   -0.1720 hc        1 J3Z      0.045200
     36 H115        2.1190    2.9760   -0.6320 hc        1 J3Z      0.053700
     37 H215        1.5650    2.5940    1.0460 hc        1 J3Z      0.053700
     38 H17         4.1980    1.9740    0.3920 ha        1 J3Z      0.149000
     39 H19A        4.4820   -2.3320    0.0340 ha        1 J3Z      0.133000
     40 H20         2.0560   -2.4590   -0.4090 ha        1 J3Z      0.134000
     41 O1         -4.8840   -1.2380   -0.1820 o         1 J3Z     -0.520100
     42 O3          5.8240   -0.0180    0.4870 oh        1 J3Z     -0.498100
@<TRIPOS>BOND
     1    1    9 1   
     2    1   10 1   
     3    1   14 1   
     4    1   19 1   
     5    2    3 1   
     6    2   10 1   
     7    2   20 1   
     8    2   21 1   
     9    3    4 1   
    10    3    5 1   
    11    3    8 1   
    12    4   22 1   
    13    4   23 1   
    14    4   24 1   
    15    5    6 1   
    16    5   41 2   
    17    6    7 1   
    18    6   26 1   
    19    6   27 1   
    20    7    8 1   
    21    7   28 1   
    22    7   29 1   
    23    8    9 1   
    24    8   30 1   
    25    9   11 1   
    26    9   31 1   
    27   10   32 1   
    28   10   33 1   
    29   11   12 1   
    30   11   34 1   
    31   11   35 1   
    32   12   13 1   
    33   12   36 1   
    34   12   37 1   
    35   13   14 ar  
    36   13   15 ar  
    37   14   18 ar  
    38   15   16 ar  
    39   15   38 1   
    40   16   17 ar  
    41   16   42 1   
    42   17   18 ar  
    43   17   39 1   
    44   18   40 1   
    45   25   42 1   
@<TRIPOS>SUBSTRUCTURE
     1 J3Z         1 TEMP              0 ****  ****    0 ROOT
