@<TRIPOS>MOLECULE
J3Z
   42    39     1     0     0
SMALL
bcc


@<TRIPOS>ATOM
      1 C2         -2.9340    1.0010    0.3370 c1        1 J3Z     -0.158000
      2 C4          1.4120   -0.0980   -3.5480 c1        1 J3Z      0.004000
      3 C5          2.2590   -0.9610   -2.7150 c3        1 J3Z     -0.174000
      4 C6          3.7120   -0.5080   -2.8010 c3        1 J3Z     -0.213000
      5 C7          2.1750   -2.4530   -3.0930 c2        1 J3Z      0.144000
      6 C8          3.4080   -3.1110   -2.9020 c1        1 J3Z     -0.040000
      7 C9          4.6790   -2.4920    0.3420 c3        1 J3Z     -0.283000
      8 C10         1.7300   -0.8310   -1.2710 c3        1 J3Z     -0.131000
      9 C12         1.4030    0.6050   -0.9070 c3        1 J3Z     -0.126000
     10 C3         -3.4310    0.3680   -0.6780 c2        1 J3Z     -0.149000
     11 C14         0.9360    0.6930    0.5020 c2        1 J3Z     -0.108000
     12 C15        -0.0470    1.4480    0.8960 c1        1 J3Z     -0.167000
     13 C16        -1.0470    2.1920    1.3150 c2        1 J3Z      0.049000
     14 C21        -2.4210    1.6510    1.3580 c2        1 J3Z      0.057000
     15 C17        -0.8900    3.5680    1.7530 c2        1 J3Z     -0.255000
     16 C18         0.3090    4.1680    1.8910 c2        1 J3Z      0.015000
     17 C19        -4.4330    1.6510    2.8460 c1        1 J3Z      0.207000
     18 C20        -3.1600    1.8770    2.5900 c2        1 J3Z     -0.435000
     19 H2          2.5110   -1.2420   -0.5760 hc        1 J3Z      0.109500
     20 H14        -3.3300   -0.7210   -0.7980 ha        1 J3Z      0.137500
     21 H24         0.5640   -0.6010   -4.0420 ha        1 J3Z      0.064000
     22 H16         4.1020   -0.6430   -3.8370 hc        1 J3Z      0.094333
     23 H26         3.7880    0.5750   -2.5380 hc        1 J3Z      0.094333
     24 H36         4.3440   -1.0950   -2.0840 hc        1 J3Z      0.094333
     25 HO3        -0.3800    5.8770    2.4260 ho        1 J3Z      0.215000
     26 H18         4.1980   -3.2800   -3.6270 ha        1 J3Z      0.137000
     27 H28         5.0570   -1.4590    0.1790 hc        1 J3Z      0.070500
     28 H19         4.3470   -2.9270   -0.6300 hc        1 J3Z      0.070500
     29 H29         5.4890   -3.1190    0.7720 hc        1 J3Z      0.070500
     30 H10         3.8180   -2.4650    1.0460 hc        1 J3Z      0.070500
     31 H12         2.3200    1.2440   -1.0250 hc        1 J3Z      0.106000
     32 H13         0.8110   -1.4670   -1.1680 hc        1 J3Z      0.109500
     33 H23        -3.9850    0.8830   -1.4780 ha        1 J3Z      0.137500
     34 H114        1.5670   -2.4570    1.8270 ha        1 J3Z      0.001000
     35 H214        0.6260    1.0140   -1.6090 hc        1 J3Z      0.106000
     36 H115        1.4910    0.0710    1.2300 ha        1 J3Z      0.140000
     37 H215        1.4520   -2.2150    1.2050 ha        1 J3Z      0.001000
     38 H17        -1.8240    4.1160    1.9580 ha        1 J3Z      0.138000
     39 H19A        1.2890    3.6960    1.7070 h4        1 J3Z      0.172000
     40 H20        -2.5530    2.2910    3.4270 ha        1 J3Z      0.199000
     41 O1          1.0870   -2.9830   -3.3780 o         1 J3Z     -0.319000
     42 O3          0.4850    5.4630    2.2890 oh        1 J3Z     -0.255000
@<TRIPOS>BOND
     1    1   10 1   
     2    1   14 1   
     3    2    3 1   
     4    2   21 1   
     5    3    4 1   
     6    3    5 1   
     7    3    8 1   
     8    4   22 1   
     9    4   23 1   
    10    4   24 1   
    11    5    6 1   
    12    5   41 1   
    13    6   26 1   
    14    7   27 1   
    15    7   28 1   
    16    7   29 1   
    17    7   30 1   
    18    8    9 1   
    19    8   19 1   
    20    8   32 1   
    21    9   11 1   
    22    9   31 1   
    23    9   35 1   
    24   10   20 1   
    25   10   33 1   
    26   11   12 1   
    27   11   36 1   
    28   12   13 1   
    29   13   14 1   
    30   13   15 1   
    31   14   18 1   
    32   15   16 1   
    33   15   38 1   
    34   16   39 1   
    35   16   42 1   
    36   17   18 1   
    37   18   40 1   
    38   25   42 1   
    39   34   37 1   
@<TRIPOS>SUBSTRUCTURE
     1 J3Z         1 TEMP              0 ****  ****    0 ROOT
