@<TRIPOS>MOLECULE
J43
   33    28     1     0     0
SMALL
bcc


@<TRIPOS>ATOM
      1 N1         -3.2110    0.0490   -2.3340 n1        1 J43     -0.239000
      2 C2         -2.1710    0.8980   -2.1040 c1        1 J43     -0.064000
      3 N3         -1.5140    0.8650   -0.9100 n1        1 J43     -0.237000
      4 C4         -1.8910   -0.0040    0.0390 c1        1 J43      0.248000
      5 C5         -2.9320   -0.8550   -0.1900 c1        1 J43     -0.357000
      6 C6         -3.5890   -0.8210   -1.3860 c1        1 J43      0.119000
      7 N7         -1.1980   -0.0470    1.2770 n3        1 J43     -0.256000
      8 C8          0.2200   -0.0960    1.2950 c2        1 J43      0.129000
      9 C9          0.9540    1.0790    1.2570 c2        1 J43     -0.154000
     10 C10         2.3390    1.0300    1.2640 c1        1 J43     -0.001000
     11 C11         2.9900   -0.1930    1.3080 c1        1 J43     -0.849000
     12 C12         2.2550   -1.3680    1.3470 c1        1 J43      0.000000
     13 C13         0.8700   -1.3190    1.3400 c1        1 J43     -0.193000
     14 S14         4.7610   -0.2570    1.2360 s4        1 J43      2.085800
     15 O15         5.2130   -1.4400    0.5570 o         1 J43     -0.546400
     16 O16         5.2860    0.7720    0.3830 o         1 J43     -0.546400
     17 N17         5.3960   -0.1600    2.7480 n2        1 J43     -0.953000
     18 C18        -3.4000   -1.7900    0.9040 c2        1 J43      0.247000
     19 O19        -4.3290   -2.5490    0.6990 o         1 J43     -0.326000
     20 CL20       -4.9050   -1.9240   -1.6890 cl        1 J43      0.034000
     21 S21        -1.6620    2.0370   -3.3640 ss        1 J43      0.373000
     22 C22        -2.9320    2.1640   -4.5950 c3        1 J43     -0.381000
     23 HN7        -1.6630   -0.0170    2.0610 hn        1 J43      0.279000
     24 H9          0.4960    1.9400    1.2250 ha        1 J43      0.163000
     25 H10         2.8570    1.8580    1.2370 ha        1 J43      0.156000
     26 H12         2.7130   -2.2290    1.3780 ha        1 J43      0.155000
     27 H13         0.3530   -2.1460    1.3670 ha        1 J43      0.147000
     28 HN17        5.6880    0.6450    3.0700 hn        1 J43      0.242000
     29 HN1A        5.4740   -0.9130    3.2610 hn        1 J43      0.242000
     30 H18        -2.9690   -1.7700    1.7810 h4        1 J43      0.113000
     31 H22        -3.1330    1.2720   -4.9490 h1        1 J43      0.122333
     32 H22A       -3.7400    2.5450   -4.1920 h1        1 J43      0.122333
     33 H22B       -2.6250    2.7430   -5.3230 h1        1 J43      0.122333
@<TRIPOS>BOND
     1    1    6 1   
     2    2    3 1   
     3    2   21 1   
     4    4    5 1   
     5    4    7 1   
     6    5   18 1   
     7    6   20 1   
     8    7    8 1   
     9    7   23 1   
    10    8    9 1   
    11    8   13 1   
    12    9   10 1   
    13    9   24 1   
    14   10   25 1   
    15   11   12 1   
    16   11   14 1   
    17   12   26 1   
    18   13   27 1   
    19   14   15 1   
    20   14   16 1   
    21   17   28 1   
    22   17   29 1   
    23   18   19 1   
    24   18   30 1   
    25   21   22 1   
    26   22   31 1   
    27   22   32 1   
    28   22   33 1   
@<TRIPOS>SUBSTRUCTURE
     1 J43         1 TEMP              0 ****  ****    0 ROOT
