@<TRIPOS>MOLECULE
J43
   33    34     1     0     0
SMALL
bcc


@<TRIPOS>ATOM
      1 N1          3.7320   -1.0450   -0.0100 nb        1 J43     -0.765000
      2 C2          2.4350   -1.5000    0.0500 ca        1 J43      0.789300
      3 N3          1.3190   -0.7270    0.0270 nb        1 J43     -0.763000
      4 C4          1.4900    0.6360   -0.0640 ca        1 J43      0.769200
      5 C5          2.8180    1.2160   -0.1190 ca        1 J43     -0.508200
      6 C6          3.8930    0.2880   -0.0920 ca        1 J43      0.613300
      7 N7          0.3780    1.4550   -0.1140 nh        1 J43     -0.735300
      8 C8         -0.9650    1.0430   -0.0430 ca        1 J43      0.210600
      9 C9         -1.8710    1.8360    0.7050 ca        1 J43     -0.173500
     10 C10        -3.2160    1.5010    0.7520 ca        1 J43     -0.000500
     11 C11        -3.7150    0.3870    0.0670 ca        1 J43     -0.404500
     12 C12        -2.8160   -0.3930   -0.6670 ca        1 J43     -0.000500
     13 C13        -1.4640   -0.0790   -0.7390 ca        1 J43     -0.173500
     14 S14        -5.3490   -0.0240    0.1570 sy        1 J43      1.530200
     15 O15        -5.4750   -1.4100   -0.0750 o         1 J43     -0.658800
     16 O16        -5.8720    0.4910    1.3630 o         1 J43     -0.658800
     17 N17        -5.9970    0.7730   -1.0740 n3        1 J43     -1.026700
     18 C18         3.0860    2.6480   -0.1950 c         1 J43      0.599500
     19 O19         2.2340    3.5410   -0.0980 o         1 J43     -0.565100
     20 CL20        5.5110    0.8550   -0.1570 cl        1 J43     -0.132000
     21 S21         2.1570   -3.1890    0.1670 ss        1 J43     -0.136400
     22 C22         3.7390   -3.9300    0.1820 c3        1 J43     -0.081000
     23 HN7         0.5360    2.4380    0.0230 hn        1 J43      0.483800
     24 H9         -1.5150    2.7190    1.2590 ha        1 J43      0.155000
     25 H10        -3.9060    2.1130    1.3610 ha        1 J43      0.155500
     26 H12        -3.1880   -1.2900   -1.1950 ha        1 J43      0.155500
     27 H13        -0.8010   -0.7170   -1.3420 ha        1 J43      0.155000
     28 HN17       -6.3650    1.6870   -1.0010 hn        1 J43      0.446800
     29 HN1A       -6.0930    0.3930   -1.9810 hn        1 J43      0.446800
     30 H18         4.1560    2.9220   -0.3510 h4        1 J43      0.020200
     31 H22         3.5310   -5.0250    0.2610 h1        1 J43      0.083033
     32 H22A        4.3190   -3.7350   -0.7480 h1        1 J43      0.083033
     33 H22B        4.3590   -3.6130    1.0500 h1        1 J43      0.083033
@<TRIPOS>BOND
     1    1    2 ar  
     2    1    6 ar  
     3    2    3 ar  
     4    2   21 1   
     5    3    4 ar  
     6    4    5 ar  
     7    4    7 1   
     8    5    6 ar  
     9    5   18 1   
    10    6   20 1   
    11    7    8 1   
    12    7   23 1   
    13    8    9 ar  
    14    8   13 ar  
    15    9   10 ar  
    16    9   24 1   
    17   10   11 ar  
    18   10   25 1   
    19   11   12 ar  
    20   11   14 1   
    21   12   13 ar  
    22   12   26 1   
    23   13   27 1   
    24   14   15 2   
    25   14   16 2   
    26   14   17 1   
    27   17   28 1   
    28   17   29 1   
    29   18   19 2   
    30   18   30 1   
    31   21   22 1   
    32   22   31 1   
    33   22   32 1   
    34   22   33 1   
@<TRIPOS>SUBSTRUCTURE
     1 J43         1 TEMP              0 ****  ****    0 ROOT
