@<TRIPOS>MOLECULE
J43
   34    35     1     0     0
SMALL
bcc


@<TRIPOS>ATOM
      1 N1         -0.3060   -0.2420   -0.0570 nb        1 J43     -0.732000
      2 C2          1.0560   -0.1770   -0.2030 ca        1 J43      0.780300
      3 N3          1.9540   -0.0600    0.8260 nb        1 J43     -0.766000
      4 C4          1.4560   -0.0010    2.0910 ca        1 J43      0.741200
      5 C5          0.0390   -0.0730    2.3540 ca        1 J43     -0.480200
      6 C6         -0.7890   -0.1910    1.1990 ca        1 J43      0.608300
      7 N7          2.3430    0.1580    3.1740 nh        1 J43     -0.710300
      8 C8          3.7080    0.0560    3.2020 ca        1 J43      0.327600
      9 C9          4.3730    0.4260    4.4250 ca        1 J43     -0.213000
     10 C10         5.7350    0.3510    4.5370 ca        1 J43      0.047500
     11 C11         6.5620   -0.1040    3.4750 ca        1 J43     -0.654500
     12 C12         5.8940   -0.4780    2.2770 ca        1 J43      0.047500
     13 C13         4.5310   -0.4110    2.1330 ca        1 J43     -0.213000
     14 S14         8.1250   -0.1020    3.5840 sy        1 J43      1.518200
     15 O15         8.8220   -0.2540    2.4040 o         1 J43     -0.580800
     16 O16         8.6630    0.5890    4.6500 o         1 J43     -0.580800
     17 N17         8.3430   -1.9260    4.2840 n4        1 J43     -0.779500
     18 C18        -0.5680   -0.0410    3.6870 c         1 J43      0.600500
     19 O19         0.0580    0.1490    4.7370 o         1 J43     -0.556100
     20 CL20       -2.4860   -0.2700    1.3690 cl        1 J43     -0.087000
     21 S21         1.7360   -0.2370   -1.7650 ss        1 J43     -0.101400
     22 C22         0.3920   -0.3770   -2.8720 c3        1 J43     -0.087000
     23 HN7         1.9010    0.4240    4.0450 hn        1 J43      0.499800
     24 H9          3.7800    0.7900    5.2830 ha        1 J43      0.187000
     25 H10         6.2170    0.6750    5.4810 ha        1 J43      0.164500
     26 H12         6.5060   -0.8230    1.4200 ha        1 J43      0.164500
     27 H13         4.0900   -0.7200    1.1690 ha        1 J43      0.187000
     28 HN17        8.8070   -1.8990    5.1870 hn        1 J43      0.445800
     29 HN1A        7.4540   -2.3970    4.3970 hn        1 J43      0.445800
     30 H18        -1.6700   -0.2060    3.7150 h4        1 J43      0.043200
     31 H22        -0.3030    0.4920   -2.8260 h1        1 J43      0.094700
     32 H22A        0.8710   -0.4090   -3.8820 h1        1 J43      0.094700
     33 H22B       -0.2030   -1.3060   -2.7210 h1        1 J43      0.094700
     34 H173        8.9170   -2.4760    3.6510 hn        1 J43      0.445800
@<TRIPOS>BOND
     1    1    2 ar  
     2    1    6 ar  
     3    2    3 ar  
     4    2   21 1   
     5    3    4 ar  
     6    4    5 ar  
     7    4    7 1   
     8    5    6 ar  
     9    5   18 1   
    10    6   20 1   
    11    7    8 1   
    12    7   23 1   
    13    8    9 ar  
    14    8   13 ar  
    15    9   10 ar  
    16    9   24 1   
    17   10   11 ar  
    18   10   25 1   
    19   11   12 ar  
    20   11   14 1   
    21   12   13 ar  
    22   12   26 1   
    23   13   27 1   
    24   14   15 2   
    25   14   16 2   
    26   14   17 1   
    27   17   28 1   
    28   17   29 1   
    29   17   34 1   
    30   18   19 2   
    31   18   30 1   
    32   21   22 1   
    33   22   31 1   
    34   22   32 1   
    35   22   33 1   
@<TRIPOS>SUBSTRUCTURE
     1 J43         1 TEMP              0 ****  ****    0 ROOT
