@<TRIPOS>MOLECULE
J43
   34    35     1     0     0
SMALL
bcc


@<TRIPOS>ATOM
      1 N1         -0.3010   -0.1960   -0.0620 nb        1 J43     -0.732000
      2 C2          1.0610   -0.1430   -0.2060 ca        1 J43      0.780300
      3 N3          1.9580   -0.0390    0.8250 nb        1 J43     -0.766000
      4 C4          1.4590    0.0180    2.0890 ca        1 J43      0.741200
      5 C5          0.0410   -0.0410    2.3500 ca        1 J43     -0.480200
      6 C6         -0.7860   -0.1460    1.1940 ca        1 J43      0.608300
      7 N7          2.3470    0.1650    3.1750 nu        1 J43     -0.710300
      8 C8          3.7100    0.0490    3.2030 ca        1 J43      0.327600
      9 C9          4.3780    0.4110    4.4270 ca        1 J43     -0.212500
     10 C10         5.7390    0.3220    4.5410 ca        1 J43      0.047500
     11 C11         6.5620   -0.1410    3.4780 ca        1 J43     -0.654500
     12 C12         5.8910   -0.5070    2.2800 ca        1 J43      0.047500
     13 C13         4.5300   -0.4270    2.1350 ca        1 J43     -0.212500
     14 S14         8.1250   -0.1550    3.5890 sy        1 J43      1.518200
     15 O15         8.8220   -0.3140    2.4100 o         1 J43     -0.580800
     16 O16         8.6700    0.5290    4.6550 o         1 J43     -0.580800
     17 N17         8.3240   -1.9820    4.2890 nz        1 J43     -0.779500
     18 C18        -0.5670   -0.0090    3.6830 c         1 J43      0.600500
     19 O19         0.0600    0.1720    4.7340 o         1 J43     -0.556100
     20 Cl20       -2.4840   -0.2100    1.3620 cl        1 J43     -0.087000
     21 S21         1.7420   -0.2030   -1.7670 ss        1 J43     -0.101400
     22 C22         0.3990   -0.3250   -2.8760 c3        1 J43     -0.087000
     23 HN7         1.9060    0.4330    4.0450 hn        1 J43      0.499800
     24 H9          3.7880    0.7800    5.2850 ha        1 J43      0.187000
     25 H10         6.2240    0.6400    5.4850 ha        1 J43      0.164500
     26 H12         6.5000   -0.8580    1.4240 ha        1 J43      0.164500
     27 H13         4.0860   -0.7310    1.1710 ha        1 J43      0.187000
     28 HN17        8.7880   -1.9600    5.1920 hn        1 J43      0.445800
     29 HN1A        8.8920   -2.5370    3.6560 hn        1 J43      0.445800
     30 H18        -1.6710   -0.1640    3.7090 h4        1 J43      0.043200
     31 H22        -0.2060   -1.2490   -2.7310 h1        1 J43      0.094700
     32 H22A       -0.2880    0.5510   -2.8280 h1        1 J43      0.094700
     33 H22B        0.8780   -0.3570   -3.8860 h1        1 J43      0.094700
     34 H173        7.4300   -2.4430    4.4020 hn        1 J43      0.445800
@<TRIPOS>BOND
     1    1    2 ar  
     2    1    6 ar  
     3    2    3 ar  
     4    2   21 1   
     5    3    4 ar  
     6    4    5 ar  
     7    4    7 1   
     8    5    6 ar  
     9    5   18 1   
    10    6   20 1   
    11    7    8 1   
    12    7   23 1   
    13    8    9 ar  
    14    8   13 ar  
    15    9   10 ar  
    16    9   24 1   
    17   10   11 ar  
    18   10   25 1   
    19   11   12 ar  
    20   11   14 1   
    21   12   13 ar  
    22   12   26 1   
    23   13   27 1   
    24   14   15 2   
    25   14   16 2   
    26   14   17 1   
    27   17   28 1   
    28   17   29 1   
    29   17   34 1   
    30   18   19 2   
    31   18   30 1   
    32   21   22 1   
    33   22   31 1   
    34   22   32 1   
    35   22   33 1   
@<TRIPOS>SUBSTRUCTURE
     1 J43         1 TEMP              0 ****  ****    0 ROOT
