@<TRIPOS>MOLECULE
J43
   35    36     1     0     0
SMALL
bcc


@<TRIPOS>ATOM
      1 N1          0.0910    0.7760   -0.0280 nb        1 J43     -0.697000
      2 C2          0.9030   -0.3180   -0.2300 ca        1 J43      0.752300
      3 N3          1.5620   -0.9850    0.7930 nb        1 J43     -0.740000
      4 C4          1.3590   -0.5210    2.0390 ca        1 J43      0.606200
      5 C5          0.5540    0.6050    2.3640 ca        1 J43     -0.469200
      6 C6         -0.0770    1.2230    1.2260 ca        1 J43      0.615300
      7 N7          2.0290   -1.3070    3.1230 n4        1 J43     -0.660100
      8 C8          3.4680   -1.0230    3.2130 ca        1 J43      0.082600
      9 C9          3.9400   -0.1640    4.2210 ca        1 J43     -0.112500
     10 C10         5.3060    0.0920    4.3090 ca        1 J43      0.018000
     11 C11         6.2220   -0.4910    3.4140 ca        1 J43     -0.472500
     12 C12         5.7220   -1.3490    2.4160 ca        1 J43      0.018000
     13 C13         4.3610   -1.6210    2.3050 ca        1 J43     -0.112500
     14 S14         7.8040   -0.0580    3.4310 sy        1 J43      1.465200
     15 O15         8.4670   -0.4040    2.2770 o         1 J43     -0.534800
     16 O16         8.0400    1.0860    4.1550 o         1 J43     -0.534800
     17 N17         8.4700   -1.3650    4.6200 n4        1 J43     -0.800500
     18 C18         0.3520    1.1310    3.7170 c         1 J43      0.616500
     19 O19         0.9500    0.6640    4.6990 o         1 J43     -0.587100
     20 CL20       -1.0770    2.5720    1.4560 cl        1 J43     -0.025000
     21 S21         1.1390   -0.9260   -1.7760 ss        1 J43      0.043600
     22 C22         0.2000    0.0660   -2.8530 c3        1 J43     -0.122000
     23 HN7         1.8980   -2.3150    2.9340 hn        1 J43      0.499300
     24 H9          3.2460    0.3230    4.9380 ha        1 J43      0.209500
     25 H10         5.6650    0.7950    5.0890 ha        1 J43      0.197500
     26 H12         6.4160   -1.8020    1.6780 ha        1 J43      0.197500
     27 H13         4.0040   -2.2850    1.4940 ha        1 J43      0.209500
     28 HN17        9.1930   -1.9280    4.1630 hn        1 J43      0.470467
     29 HN1A        7.7630   -2.0070    4.9700 hn        1 J43      0.470467
     30 H18        -0.3610    1.9790    3.8270 h4        1 J43      0.082200
     31 H22         0.3820   -0.3840   -3.8650 h1        1 J43      0.114700
     32 H22A        0.5220    1.1330   -2.8730 h1        1 J43      0.114700
     33 H22B       -0.8950    0.0400   -2.6440 h1        1 J43      0.114700
     34 H72         1.5720   -1.0680    4.0320 hn        1 J43      0.499300
     35 H173        8.9060   -0.9190    5.4320 hn        1 J43      0.470467
@<TRIPOS>BOND
     1    1    2 ar  
     2    1    6 ar  
     3    2    3 ar  
     4    2   21 1   
     5    3    4 ar  
     6    4    5 ar  
     7    4    7 1   
     8    5    6 ar  
     9    5   18 1   
    10    6   20 1   
    11    7    8 1   
    12    7   23 1   
    13    7   34 1   
    14    8    9 ar  
    15    8   13 ar  
    16    9   10 ar  
    17    9   24 1   
    18   10   11 ar  
    19   10   25 1   
    20   11   12 ar  
    21   11   14 1   
    22   12   13 ar  
    23   12   26 1   
    24   13   27 1   
    25   14   15 2   
    26   14   16 2   
    27   14   17 1   
    28   17   28 1   
    29   17   29 1   
    30   17   35 1   
    31   18   19 2   
    32   18   30 1   
    33   21   22 1   
    34   22   31 1   
    35   22   32 1   
    36   22   33 1   
@<TRIPOS>SUBSTRUCTURE
     1 J43         1 TEMP              0 ****  ****    0 ROOT
