@<TRIPOS>MOLECULE
J45
   30    31     1     0     0
SMALL
bcc


@<TRIPOS>ATOM
      1 N1         -0.4110   -0.1500   -0.0280 nb        1 J45     -0.674000
      2 C2          0.9190    0.0620   -0.1680 ca        1 J45      0.717900
      3 N3          1.8400    0.1960    0.8180 nb        1 J45     -0.738000
      4 C4          1.3870    0.0900    2.1020 ca        1 J45      0.722200
      5 C5         -0.0030   -0.1880    2.3620 ca        1 J45     -0.441800
      6 C6         -0.8790   -0.2720    1.2390 ca        1 J45      0.596300
      7 N7          2.2730    0.2770    3.1820 nu        1 J45     -0.727300
      8 C8          3.6360    0.1050    3.1760 ca        1 J45      0.323600
      9 C9          4.3950    0.6780    4.2490 ca        1 J45     -0.205000
     10 C10         5.7540    0.5070    4.3170 ca        1 J45      0.049000
     11 C11         6.4710   -0.2490    3.3520 ca        1 J45     -0.635500
     12 C12         5.7070   -0.8230    2.3030 ca        1 J45      0.049000
     13 C13         4.3450   -0.6660    2.2080 ca        1 J45     -0.205000
     14 S14         8.0430   -0.3590    3.3880 sy        1 J45      1.512200
     15 O15         8.6410   -0.8300    2.2380 o         1 J45     -0.575300
     16 O16         8.6900    0.5160    4.2340 o         1 J45     -0.575300
     17 N17         8.1740   -1.9730    4.4740 nz        1 J45     -0.782500
     18 N18        -0.4980   -0.3840    3.7480 no        1 J45      0.331200
     19 O19        -0.1650    0.4180    4.5830 o         1 J45     -0.176000
     20 O20        -1.1700   -1.3380    4.0010 o         1 J45     -0.176000
     21 Cl21       -2.5410   -0.4980    1.4560 cl        1 J45     -0.029000
     22 H2          1.3000    0.1540   -1.2130 h5        1 J45      0.092100
     23 HN7         1.8760    0.7460    3.9830 hn        1 J45      0.497800
     24 H9          3.8870    1.2800    5.0240 ha        1 J45      0.181000
     25 H10         6.3190    0.9930    5.1370 ha        1 J45      0.168500
     26 H12         6.2340   -1.4080    1.5230 ha        1 J45      0.168500
     27 H13         3.8150   -1.1470    1.3680 ha        1 J45      0.181000
     28 HN17        8.6990   -1.7810    5.3240 hn        1 J45      0.449800
     29 HN1A        7.2640   -2.3320    4.7390 hn        1 J45      0.449800
     30 H173        8.6650   -2.7010    3.9610 hn        1 J45      0.449800
@<TRIPOS>BOND
     1    1    2 ar  
     2    1    6 ar  
     3    2    3 ar  
     4    2   22 1   
     5    3    4 ar  
     6    4    5 ar  
     7    4    7 1   
     8    5    6 ar  
     9    5   18 1   
    10    6   21 1   
    11    7    8 1   
    12    7   23 1   
    13    8    9 ar  
    14    8   13 ar  
    15    9   10 ar  
    16    9   24 1   
    17   10   11 ar  
    18   10   25 1   
    19   11   12 ar  
    20   11   14 1   
    21   12   13 ar  
    22   12   26 1   
    23   13   27 1   
    24   14   15 2   
    25   14   16 2   
    26   14   17 1   
    27   17   28 1   
    28   17   29 1   
    29   17   30 1   
    30   18   19 1   
    31   18   20 1   
@<TRIPOS>SUBSTRUCTURE
     1 J45         1 TEMP              0 ****  ****    0 ROOT
