@<TRIPOS>MOLECULE
J45
   29    24     1     0     0
SMALL
bcc


@<TRIPOS>ATOM
      1 N1         -2.8450   -3.8530   -0.0670 n1        1 J45     -0.193000
      2 C2         -3.1780   -2.5320   -0.0490 c1        1 J45      0.054000
      3 N3         -2.2880   -1.5970   -0.4850 n1        1 J45     -0.221000
      4 C4         -1.0820   -1.9770   -0.9330 c1        1 J45      0.237000
      5 C5         -0.7470   -3.3000   -0.9520 c1        1 J45     -0.308000
      6 C6         -1.6400   -4.2350   -0.5150 c1        1 J45      0.111000
      7 N7         -0.1620   -1.0040   -1.4060 n3        1 J45     -0.252000
      8 C8          0.1780    0.1080   -0.5910 c2        1 J45      0.115000
      9 C9          1.4950    0.3120   -0.2120 c2        1 J45     -0.186000
     10 C10         1.8360    1.4270    0.5380 c1        1 J45      0.000000
     11 C11         0.8590    2.3380    0.9090 c1        1 J45     -0.836000
     12 C12        -0.4580    2.1330    0.5300 c1        1 J45     -0.003000
     13 C13        -0.7990    1.0180   -0.2200 c1        1 J45     -0.147000
     14 S14         1.2800    3.7150    1.9440 s4        1 J45      2.084800
     15 O15         2.3300    3.3750    2.8630 o         1 J45     -0.543400
     16 O16         0.2100    4.0340    2.8480 o         1 J45     -0.543400
     17 N17         1.6900    5.0140    1.0240 n2        1 J45     -0.954000
     18 N18         0.5000   -3.7080   -1.4940 no        1 J45      0.591000
     19 O19         1.5330   -2.8190   -1.5730 o         1 J45     -0.346500
     20 O20         0.6350   -4.8420   -1.9270 o         1 J45     -0.346500
     21 CL21       -1.1850   -5.9180   -0.4650 cl        1 J45      0.089000
     22 H2         -4.0560   -2.2550    0.2770 ha        1 J45      0.213000
     23 HN7         0.1970   -1.0850   -2.2410 hn        1 J45      0.273000
     24 H9          2.1830   -0.3290   -0.4730 ha        1 J45      0.149000
     25 H10         2.7630    1.5700    0.8050 ha        1 J45      0.159000
     26 H12        -1.1460    2.7750    0.7910 ha        1 J45      0.159000
     27 H13        -1.7270    0.8750   -0.4870 ha        1 J45      0.158000
     28 HN17        2.4460    4.9890    0.5100 hn        1 J45      0.244000
     29 HN1A        1.1780    5.7710    1.0490 hn        1 J45      0.244000
@<TRIPOS>BOND
     1    1    6 1   
     2    2    3 1   
     3    2   22 1   
     4    4    5 1   
     5    4    7 1   
     6    5   18 1   
     7    6   21 1   
     8    7    8 1   
     9    7   23 1   
    10    8    9 1   
    11    8   13 1   
    12    9   10 1   
    13    9   24 1   
    14   10   25 1   
    15   11   12 1   
    16   11   14 1   
    17   12   26 1   
    18   13   27 1   
    19   14   15 1   
    20   14   16 1   
    21   17   28 1   
    22   17   29 1   
    23   18   19 1   
    24   18   20 1   
@<TRIPOS>SUBSTRUCTURE
     1 J45         1 TEMP              0 ****  ****    0 ROOT
