@<TRIPOS>MOLECULE
J45
   29    30     1     0     0
SMALL
bcc


@<TRIPOS>ATOM
      1 N1         -0.3000    0.2280   -0.0320 nb        1 J45     -0.719000
      2 C2          1.0590    0.1780   -0.0730 ca        1 J45      0.716900
      3 N3          1.9140    0.0710    0.9590 nb        1 J45     -0.747000
      4 C4          1.3670   -0.0220    2.2230 ca        1 J45      0.758200
      5 C5         -0.0750   -0.0280    2.3700 ca        1 J45     -0.483800
      6 C6         -0.8620    0.1290    1.1930 ca        1 J45      0.605300
      7 N7          2.1870   -0.1480    3.3290 nh        1 J45     -0.731300
      8 C8          3.5970   -0.2150    3.2800 ca        1 J45      0.196600
      9 C9          4.3470    0.5420    4.2110 ca        1 J45     -0.166500
     10 C10         5.7310    0.4400    4.2320 ca        1 J45     -0.001500
     11 C11         6.4140   -0.4020    3.3470 ca        1 J45     -0.391500
     12 C12         5.6660   -1.1420    2.4270 ca        1 J45     -0.001500
     13 C13         4.2780   -1.0670    2.3860 ca        1 J45     -0.166500
     14 S14         8.1040   -0.4890    3.3640 sy        1 J45      1.529200
     15 O15         8.5360   -0.8810    2.0790 o         1 J45     -0.655800
     16 O16         8.6010    0.7220    3.8890 o         1 J45     -0.655800
     17 N17         8.3980   -1.6720    4.4010 n3        1 J45     -1.027700
     18 N18        -0.7030   -0.1980    3.6970 no        1 J45      0.336200
     19 O19        -0.2840    0.4600    4.6170 o         1 J45     -0.196500
     20 O20        -1.5830   -0.9980    3.8400 o         1 J45     -0.196500
     21 CL21       -2.5550    0.2370    1.2960 cl        1 J45     -0.077000
     22 H2          1.5190    0.2510   -1.0850 h5        1 J45      0.076100
     23 HN7         1.8080    0.1400    4.2130 hn        1 J45      0.477800
     24 H9          3.8440    1.2170    4.9210 ha        1 J45      0.153500
     25 H10         6.3090    1.0560    4.9460 ha        1 J45      0.159000
     26 H12         6.1910   -1.7930    1.7040 ha        1 J45      0.159000
     27 H13         3.7290   -1.6750    1.6510 ha        1 J45      0.153500
     28 HN17        8.5380   -1.5290    5.3700 hn        1 J45      0.448800
     29 HN1A        8.4910   -2.6210    4.1380 hn        1 J45      0.448800
@<TRIPOS>BOND
     1    1    2 ar  
     2    1    6 ar  
     3    2    3 ar  
     4    2   22 1   
     5    3    4 ar  
     6    4    5 ar  
     7    4    7 1   
     8    5    6 ar  
     9    5   18 1   
    10    6   21 1   
    11    7    8 1   
    12    7   23 1   
    13    8    9 ar  
    14    8   13 ar  
    15    9   10 ar  
    16    9   24 1   
    17   10   11 ar  
    18   10   25 1   
    19   11   12 ar  
    20   11   14 1   
    21   12   13 ar  
    22   12   26 1   
    23   13   27 1   
    24   14   15 2   
    25   14   16 2   
    26   14   17 1   
    27   17   28 1   
    28   17   29 1   
    29   18   19 1   
    30   18   20 1   
@<TRIPOS>SUBSTRUCTURE
     1 J45         1 TEMP              0 ****  ****    0 ROOT
