@<TRIPOS>MOLECULE
J45
   30    31     1     0     0
SMALL
bcc


@<TRIPOS>ATOM
      1 N1         -0.4100   -0.1330   -0.0290 nb        1 J45     -0.674000
      2 C2          0.9230    0.0640   -0.1710 ca        1 J45      0.717900
      3 N3          1.8450    0.1970    0.8130 nb        1 J45     -0.738000
      4 C4          1.3920    0.1080    2.0990 ca        1 J45      0.722200
      5 C5         -0.0010   -0.1540    2.3610 ca        1 J45     -0.441800
      6 C6         -0.8790   -0.2380    1.2390 ca        1 J45      0.596300
      7 N7          2.2800    0.2950    3.1770 nh        1 J45     -0.727300
      8 C8          3.6410    0.1080    3.1720 ca        1 J45      0.323600
      9 C9          4.4060    0.6840    4.2400 ca        1 J45     -0.205000
     10 C10         5.7640    0.4990    4.3080 ca        1 J45      0.049000
     11 C11         6.4720   -0.2730    3.3500 ca        1 J45     -0.635500
     12 C12         5.7020   -0.8490    2.3070 ca        1 J45      0.049000
     13 C13         4.3410   -0.6790    2.2100 ca        1 J45     -0.205000
     14 S14         8.0430   -0.3990    3.3870 sy        1 J45      1.512200
     15 O15         8.6360   -0.8860    2.2410 o         1 J45     -0.575300
     16 O16         8.7000    0.4770    4.2250 o         1 J45     -0.575300
     17 N17         8.1580   -2.0050    4.4870 n4        1 J45     -0.782500
     18 N18        -0.4970   -0.3320    3.7490 no        1 J45      0.331200
     19 O19        -0.1560    0.4740    4.5770 o         1 J45     -0.176000
     20 O20        -1.1790   -1.2760    4.0110 o         1 J45     -0.176000
     21 CL21       -2.5420   -0.4450    1.4590 cl        1 J45     -0.029000
     22 H2          1.3040    0.1430   -1.2160 h5        1 J45      0.092100
     23 HN7         1.8880    0.7750    3.9730 hn        1 J45      0.497800
     24 H9          3.9050    1.2970    5.0090 ha        1 J45      0.181000
     25 H10         6.3340    0.9860    5.1240 ha        1 J45      0.168500
     26 H12         6.2230   -1.4460    1.5320 ha        1 J45      0.168500
     27 H13         3.8070   -1.1620    1.3760 ha        1 J45      0.181000
     28 HN17        8.6410   -2.7430    3.9810 hn        1 J45      0.449800
     29 HN1A        7.2450   -2.3520    4.7560 hn        1 J45      0.449800
     30 H173        8.6850   -1.8110    5.3350 hn        1 J45      0.449800
@<TRIPOS>BOND
     1    1    2 ar  
     2    1    6 ar  
     3    2    3 ar  
     4    2   22 1   
     5    3    4 ar  
     6    4    5 ar  
     7    4    7 1   
     8    5    6 ar  
     9    5   18 1   
    10    6   21 1   
    11    7    8 1   
    12    7   23 1   
    13    8    9 ar  
    14    8   13 ar  
    15    9   10 ar  
    16    9   24 1   
    17   10   11 ar  
    18   10   25 1   
    19   11   12 ar  
    20   11   14 1   
    21   12   13 ar  
    22   12   26 1   
    23   13   27 1   
    24   14   15 2   
    25   14   16 2   
    26   14   17 1   
    27   17   28 1   
    28   17   29 1   
    29   17   30 1   
    30   18   19 1   
    31   18   20 1   
@<TRIPOS>SUBSTRUCTURE
     1 J45         1 TEMP              0 ****  ****    0 ROOT
