@<TRIPOS>MOLECULE
J45
   29    30     1     0     0
SMALL
bcc


@<TRIPOS>ATOM
      1 N1          3.7270   -2.1230    0.4620 nb        1 J45     -0.719000
      2 C2          2.3900   -2.3700    0.5300 ca        1 J45      0.716900
      3 N3          1.3780   -1.4970    0.3760 nb        1 J45     -0.747000
      4 C4          1.7140   -0.1880    0.0940 ca        1 J45      0.758200
      5 C5          3.1130    0.1680   -0.0480 ca        1 J45     -0.483800
      6 C6          4.0820   -0.8510    0.1770 ca        1 J45      0.605300
      7 N7          0.7250    0.7610   -0.0900 nh        1 J45     -0.731300
      8 C8         -0.6610    0.4960   -0.0350 ca        1 J45      0.196600
      9 C9         -1.4970    1.3950    0.6700 ca        1 J45     -0.166500
     10 C10        -2.8710    1.1980    0.6820 ca        1 J45     -0.001500
     11 C11        -3.4600    0.1230    0.0060 ca        1 J45     -0.391500
     12 C12        -2.6260   -0.7620   -0.6830 ca        1 J45     -0.001500
     13 C13        -1.2470   -0.5890   -0.7180 ca        1 J45     -0.166500
     14 S14        -5.1340   -0.1210    0.0580 sy        1 J45      1.529200
     15 O15        -5.3840   -1.4940   -0.1470 o         1 J45     -0.655800
     16 O16        -5.6280    0.4740    1.2370 o         1 J45     -0.655800
     17 N17        -5.6620    0.7050   -1.2080 n3        1 J45     -1.027700
     18 N18         3.5130    1.5410   -0.4200 no        1 J45      0.336200
     19 O19         2.9990    2.4650    0.1600 o         1 J45     -0.196500
     20 O20         4.3060    1.7100   -1.3010 o         1 J45     -0.196500
     21 CL21        5.7420   -0.4860    0.1330 cl        1 J45     -0.077000
     22 H2          2.0990   -3.4210    0.7560 h5        1 J45      0.076100
     23 HN7         0.9790    1.7200    0.0620 hn        1 J45      0.477800
     24 H9         -1.0690    2.2500    1.2160 ha        1 J45      0.153500
     25 H10        -3.5130    1.8910    1.2570 ha        1 J45      0.159000
     26 H12        -3.0730   -1.6310   -1.2010 ha        1 J45      0.159000
     27 H13        -0.6310   -1.3060   -1.2820 ha        1 J45      0.153500
     28 HN17       -5.9420    1.6520   -1.1660 hn        1 J45      0.448800
     29 HN1A       -5.7730    0.3140   -2.1100 hn        1 J45      0.448800
@<TRIPOS>BOND
     1    1    2 ar  
     2    1    6 ar  
     3    2    3 ar  
     4    2   22 1   
     5    3    4 ar  
     6    4    5 ar  
     7    4    7 1   
     8    5    6 ar  
     9    5   18 1   
    10    6   21 1   
    11    7    8 1   
    12    7   23 1   
    13    8    9 ar  
    14    8   13 ar  
    15    9   10 ar  
    16    9   24 1   
    17   10   11 ar  
    18   10   25 1   
    19   11   12 ar  
    20   11   14 1   
    21   12   13 ar  
    22   12   26 1   
    23   13   27 1   
    24   14   15 2   
    25   14   16 2   
    26   14   17 1   
    27   17   28 1   
    28   17   29 1   
    29   18   19 1   
    30   18   20 1   
@<TRIPOS>SUBSTRUCTURE
     1 J45         1 TEMP              0 ****  ****    0 ROOT
