@<TRIPOS>MOLECULE
J47
   25    26     1     0     0
SMALL
bcc


@<TRIPOS>ATOM
      1 N1         -1.4040   -0.1560   -2.1580 n1        1 J47     -0.354800
      2 C1         -0.7670   -0.1080   -1.1860 cg        1 J47      0.245800
      3 C2          0.0070   -0.0480    0.0020 ca        1 J47     -0.041000
      4 C3          1.4060   -0.0540   -0.0750 ca        1 J47     -0.038000
      5 C4          2.1780    0.0040    1.0860 ca        1 J47     -0.069900
      6 BR1         4.0450   -0.0050    0.9680 br        1 J47     -0.073100
      7 C5          1.5560    0.0700    2.3380 ca        1 J47     -0.049000
      8 C6          0.1690    0.0760    2.4350 ca        1 J47     -0.196000
      9 C7         -0.6090    0.0170    1.2720 ca        1 J47      0.178100
     10 O1         -1.9940    0.0030    1.2640 os        1 J47     -0.218200
     11 C8         -2.6260    0.1200    2.5010 ca        1 J47      0.039100
     12 C9         -3.0570   -1.0370    3.1560 ca        1 J47     -0.084000
     13 C10        -2.9720    1.3930    3.0030 ca        1 J47      0.141100
     14 O2         -2.5080    2.4890    2.3240 oh        1 J47     -0.473100
     15 C11        -3.7550    1.4940    4.1630 ca        1 J47     -0.210000
     16 C12        -4.1780    0.3280    4.8030 ca        1 J47      0.060400
     17 CL1        -5.1250    0.4500    6.2070 cl        1 J47     -0.076400
     18 C13        -3.8340   -0.9350    4.3080 ca        1 J47     -0.154000
     19 H1          1.8860   -0.1040   -1.0670 ha        1 J47      0.162000
     20 H2          2.1610    0.1170    3.2590 ha        1 J47      0.153000
     21 H3         -0.3190    0.1320    3.4200 ha        1 J47      0.156000
     22 H4         -2.7890   -2.0230    2.7470 ha        1 J47      0.160000
     23 H5         -2.8750    3.2820    2.7440 ho        1 J47      0.428000
     24 H6         -4.0320    2.4840    4.5540 ha        1 J47      0.156000
     25 H7         -4.1780   -1.8460    4.8200 ha        1 J47      0.158000
@<TRIPOS>BOND
     1    1    2 3   
     2    2    3 1   
     3    3    4 ar  
     4    3    9 ar  
     5    4    5 ar  
     6    4   19 1   
     7    5    6 1   
     8    5    7 ar  
     9    7    8 ar  
    10    7   20 1   
    11    8    9 ar  
    12    8   21 1   
    13    9   10 1   
    14   10   11 1   
    15   11   12 ar  
    16   11   13 ar  
    17   12   18 ar  
    18   12   22 1   
    19   13   14 1   
    20   13   15 ar  
    21   14   23 1   
    22   15   16 ar  
    23   15   24 1   
    24   16   17 1   
    25   16   18 ar  
    26   18   25 1   
@<TRIPOS>SUBSTRUCTURE
     1 J47         1 TEMP              0 ****  ****    0 ROOT
