@<TRIPOS>MOLECULE
J47
   25    26     1     0     0
SMALL
bcc


@<TRIPOS>ATOM
      1 N1         -1.4850   -0.0420   -2.1550 n1        1 J47     -0.354800
      2 C1         -0.8430   -0.0130   -1.1850 cg        1 J47      0.245800
      3 C2         -0.0620    0.0240   -0.0020 ca        1 J47     -0.041000
      4 C3          1.3370    0.0130   -0.0870 ca        1 J47     -0.038000
      5 C4          2.1150    0.0490    1.0710 ca        1 J47     -0.069900
      6 Br1         3.9810    0.0340    0.9420 br        1 J47     -0.073100
      7 C5          1.5010    0.0960    2.3280 ca        1 J47     -0.049000
      8 C6          0.1150    0.1060    2.4320 ca        1 J47     -0.196000
      9 C7         -0.6700    0.0700    1.2720 ca        1 J47      0.178100
     10 O1         -2.0550    0.0620    1.2730 os        1 J47     -0.218200
     11 C8         -2.6800    0.1590    2.5150 ca        1 J47      0.039100
     12 C9         -3.1130   -1.0080    3.1510 ca        1 J47     -0.084000
     13 C10        -3.0170    1.4240    3.0430 ca        1 J47      0.141100
     14 O2         -2.5520    2.5300    2.3820 oh        1 J47     -0.473100
     15 C11        -3.7930    1.5060    4.2090 ca        1 J47     -0.210000
     16 C12        -4.2180    0.3300    4.8300 ca        1 J47      0.060400
     17 Cl1        -5.1560    0.4290    6.2410 cl        1 J47     -0.076400
     18 C13        -3.8830   -0.9250    4.3090 ca        1 J47     -0.154000
     19 H1          1.8110   -0.0220   -1.0820 ha        1 J47      0.162000
     20 H2          2.1110    0.1260    3.2450 ha        1 J47      0.153000
     21 H3         -0.3670    0.1480    3.4210 ha        1 J47      0.156000
     22 H4         -2.8520   -1.9880    2.7210 ha        1 J47      0.160000
     23 H5         -2.9130    3.3170    2.8210 ho        1 J47      0.428000
     24 H6         -4.0640    2.4900    4.6210 ha        1 J47      0.156000
     25 H7         -4.2280   -1.8440    4.8060 ha        1 J47      0.158000
@<TRIPOS>BOND
     1    1    2 3   
     2    2    3 1   
     3    3    4 ar  
     4    3    9 ar  
     5    4    5 ar  
     6    4   19 1   
     7    5    6 1   
     8    5    7 ar  
     9    7    8 ar  
    10    7   20 1   
    11    8    9 ar  
    12    8   21 1   
    13    9   10 1   
    14   10   11 1   
    15   11   12 ar  
    16   11   13 ar  
    17   12   18 ar  
    18   12   22 1   
    19   13   14 1   
    20   13   15 ar  
    21   14   23 1   
    22   15   16 ar  
    23   15   24 1   
    24   16   17 1   
    25   16   18 ar  
    26   18   25 1   
@<TRIPOS>SUBSTRUCTURE
     1 J47         1 TEMP              0 ****  ****    0 ROOT
