@<TRIPOS>MOLECULE
J4X
   48    51     1     0     0
SMALL
bcc


@<TRIPOS>ATOM
      1 N1          0.6010    0.6960    0.2190 n4        1 J4X     -0.893600
      2 C2          1.5050   -0.5300    0.0080 ce        1 J4X      0.639800
      3 N3          1.6200   -1.4980    0.8120 n2        1 J4X     -0.676100
      4 C4          2.2240   -0.3870   -1.2770 ca        1 J4X     -0.232900
      5 C5          1.4780   -0.3650   -2.4870 ca        1 J4X     -0.144000
      6 C6          2.1370   -0.2220   -3.6780 ca        1 J4X     -0.076000
      7 C7          3.5570   -0.0900   -3.7200 ca        1 J4X     -0.012000
      8 C8          4.2200    0.1110   -4.9550 ca        1 J4X     -0.083000
      9 C9          5.5920    0.2410   -4.9870 ca        1 J4X     -0.091600
     10 C10         6.3530    0.1710   -3.8000 ca        1 J4X     -0.111000
     11 C11         5.7360   -0.0230   -2.5680 ca        1 J4X      0.154600
     12 N12         6.4570   -0.0990   -1.3510 nh        1 J4X     -0.725300
     13 C13         7.5800    0.7490   -1.1380 ca        1 J4X      0.830900
     14 N14         8.5740    0.2620   -0.3000 nb        1 J4X     -0.726000
     15 C15         9.5710    1.1130   -0.0080 ca        1 J4X      0.457700
     16 C16         9.6380    2.4230   -0.5180 ca        1 J4X     -0.382600
     17 C17         8.5940    2.8170   -1.3720 ca        1 J4X      0.457700
     18 N18         7.5660    2.0150   -1.7000 nb        1 J4X     -0.726000
     19 C19         4.3010   -0.1490   -2.5120 ca        1 J4X     -0.041000
     20 C20         3.6010   -0.3060   -1.2840 ca        1 J4X     -0.010000
     21 C21         6.2490    0.5060   -6.3120 c         1 J4X      0.669700
     22 O22         5.7490    1.3360   -7.0910 o         1 J4X     -0.568100
     23 N23         7.3930   -0.2210   -6.5770 n         1 J4X     -0.458100
     24 C24         8.1620   -0.1820   -7.7580 ca        1 J4X      0.048600
     25 C25         8.0420    0.8440   -8.7170 ca        1 J4X     -0.160000
     26 C26         8.8500    0.8310   -9.8520 ca        1 J4X     -0.103500
     27 C27         9.7820   -0.1840  -10.0560 ca        1 J4X     -0.142000
     28 C28         9.9080   -1.2020   -9.1110 ca        1 J4X     -0.103500
     29 C29         9.1110   -1.2120   -7.9720 ca        1 J4X     -0.160000
     30 HN1        -0.0300    0.5980    1.0160 hn        1 J4X      0.457133
     31 HN1A        1.1980    1.5170    0.3600 hn        1 J4X      0.457133
     32 HN3         1.1410   -1.5690    1.6830 hn        1 J4X      0.462400
     33 H5          0.3860   -0.5010   -2.4670 ha        1 J4X      0.133000
     34 H6          1.5810   -0.2080   -4.6310 ha        1 J4X      0.164000
     35 H8          3.6320    0.1820   -5.8860 ha        1 J4X      0.173000
     36 H10         7.4480    0.3010   -3.8590 ha        1 J4X      0.165000
     37 HN12        6.5740   -1.0360   -1.0130 hn        1 J4X      0.443800
     38 H15        10.3550    0.7140    0.6630 h4        1 J4X      0.041600
     39 H16        10.4650    3.0970   -0.2670 ha        1 J4X      0.170000
     40 H17         8.5710    3.8260   -1.8280 h4        1 J4X      0.041600
     41 H20         4.1630   -0.3530   -0.3360 ha        1 J4X      0.166000
     42 HN23        7.6570   -0.9190   -5.9170 hn        1 J4X      0.318500
     43 H25         7.3120    1.6590   -8.5850 ha        1 J4X      0.148500
     44 H26         8.7440    1.6370  -10.5940 ha        1 J4X      0.140000
     45 H27        10.4140   -0.1840  -10.9560 ha        1 J4X      0.141000
     46 H28        10.6420   -2.0070   -9.2650 ha        1 J4X      0.140000
     47 H29         9.2290   -2.0270   -7.2420 ha        1 J4X      0.148500
     48 H13         0.0490    0.8420   -0.6330 hn        1 J4X      0.457133
@<TRIPOS>BOND
     1    1    2 1   
     2    1   30 1   
     3    1   31 1   
     4    1   48 1   
     5    2    3 2   
     6    2    4 1   
     7    3   32 1   
     8    4    5 ar  
     9    4   20 ar  
    10    5    6 ar  
    11    5   33 1   
    12    6    7 ar  
    13    6   34 1   
    14    7    8 ar  
    15    7   19 ar  
    16    8    9 ar  
    17    8   35 1   
    18    9   10 ar  
    19    9   21 1   
    20   10   11 ar  
    21   10   36 1   
    22   11   12 1   
    23   11   19 ar  
    24   12   13 1   
    25   12   37 1   
    26   13   14 ar  
    27   13   18 ar  
    28   14   15 ar  
    29   15   16 ar  
    30   15   38 1   
    31   16   17 ar  
    32   16   39 1   
    33   17   18 ar  
    34   17   40 1   
    35   19   20 ar  
    36   20   41 1   
    37   21   22 2   
    38   21   23 1   
    39   23   24 1   
    40   23   42 1   
    41   24   25 ar  
    42   24   29 ar  
    43   25   26 ar  
    44   25   43 1   
    45   26   27 ar  
    46   26   44 1   
    47   27   28 ar  
    48   27   45 1   
    49   28   29 ar  
    50   28   46 1   
    51   29   47 1   
@<TRIPOS>SUBSTRUCTURE
     1 J4X         1 TEMP              0 ****  ****    0 ROOT
