@<TRIPOS>MOLECULE
J4X
   48    51     1     0     0
SMALL
bcc


@<TRIPOS>ATOM
      1 N1          0.7110    1.4720    0.1220 nz        1 J4X     -0.893600
      2 C2          1.4260    0.1110    0.0430 ce        1 J4X      0.639800
      3 N3          1.4130   -0.7710    0.9470 n2        1 J4X     -0.677100
      4 C4          2.1370    0.0060   -1.2510 ca        1 J4X     -0.232900
      5 C5          1.3870    0.0410   -2.4580 ca        1 J4X     -0.145000
      6 C6          2.0420   -0.0600   -3.6560 ca        1 J4X     -0.075000
      7 C7          3.4610   -0.1970   -3.7080 ca        1 J4X     -0.011000
      8 C8          4.1270   -0.2650   -4.9560 ca        1 J4X     -0.084000
      9 C9          5.4980   -0.4040   -4.9970 ca        1 J4X     -0.090600
     10 C10         6.2510   -0.5120   -3.8090 ca        1 J4X     -0.109000
     11 C11         5.6330   -0.4440   -2.5640 ca        1 J4X      0.157600
     12 N12         6.3430   -0.5430   -1.3460 nu        1 J4X     -0.727300
     13 C13         7.6380    0.0230   -1.2110 ca        1 J4X      0.840900
     14 N14         8.4610   -0.5500   -0.2490 nb        1 J4X     -0.732000
     15 C15         9.6380    0.0600   -0.0350 ca        1 J4X      0.459200
     16 C16        10.0460    1.2100   -0.7360 ca        1 J4X     -0.384600
     17 C17         9.1540    1.7050   -1.7010 ca        1 J4X      0.459200
     18 N18         7.9610    1.1410   -1.9640 nb        1 J4X     -0.732000
     19 C19         4.2020   -0.2700   -2.4990 ca        1 J4X     -0.045000
     20 C20         3.5060   -0.1640   -1.2640 ca        1 J4X     -0.010000
     21 C21         6.1630   -0.4930   -6.3420 c         1 J4X      0.668700
     22 O22         5.6560   -1.1940   -7.2360 o         1 J4X     -0.568100
     23 N23         7.3220    0.2440   -6.4900 ns        1 J4X     -0.458100
     24 C24         8.1010    0.3610   -7.6600 ca        1 J4X      0.049600
     25 C25         7.9750   -0.5160   -8.7550 ca        1 J4X     -0.160500
     26 C26         8.7940   -0.3550   -9.8710 ca        1 J4X     -0.104000
     27 C27         9.7420    0.6640   -9.9220 ca        1 J4X     -0.142000
     28 C28         9.8730    1.5350   -8.8410 ca        1 J4X     -0.104000
     29 C29         9.0660    1.3950   -7.7180 ca        1 J4X     -0.160500
     30 HN1         0.0860    1.5510    0.9250 hn        1 J4X      0.456800
     31 HN1A        0.1720    1.6050   -0.7400 hn        1 J4X      0.456800
     32 HN3         0.9430   -0.6780    1.8210 hn        1 J4X      0.462400
     33 H5          0.2900    0.1040   -2.4280 ha        1 J4X      0.133000
     34 H6          1.4830   -0.0440   -4.6070 ha        1 J4X      0.164000
     35 H8          3.5440   -0.2230   -5.8920 ha        1 J4X      0.173000
     36 H10         7.3420   -0.6670   -3.8810 ha        1 J4X      0.167000
     37 HN12        6.2160   -1.4170   -0.8720 hn        1 J4X      0.447800
     38 H15        10.2830   -0.4070    0.7340 h4        1 J4X      0.039600
     39 H16        11.0130    1.6890   -0.5430 ha        1 J4X      0.170000
     40 H17         9.3970    2.6000   -2.3050 h4        1 J4X      0.039600
     41 H20         4.0640   -0.2130   -0.3140 ha        1 J4X      0.164000
     42 HN23        7.5920    0.8320   -5.7330 hn        1 J4X      0.322500
     43 H25         7.2330   -1.3310   -8.7450 ha        1 J4X      0.148000
     44 H26         8.6830   -1.0470  -10.7210 ha        1 J4X      0.140000
     45 H27        10.3830    0.7820  -10.8080 ha        1 J4X      0.141000
     46 H28        10.6200    2.3430   -8.8740 ha        1 J4X      0.140000
     47 H29         9.1890    2.0970   -6.8800 ha        1 J4X      0.148000
     48 H13         1.4230    2.2070    0.1730 hn        1 J4X      0.456800
@<TRIPOS>BOND
     1    1    2 1   
     2    1   30 1   
     3    1   31 1   
     4    1   48 1   
     5    2    3 2   
     6    2    4 1   
     7    3   32 1   
     8    4    5 ar  
     9    4   20 ar  
    10    5    6 ar  
    11    5   33 1   
    12    6    7 ar  
    13    6   34 1   
    14    7    8 ar  
    15    7   19 ar  
    16    8    9 ar  
    17    8   35 1   
    18    9   10 ar  
    19    9   21 1   
    20   10   11 ar  
    21   10   36 1   
    22   11   12 1   
    23   11   19 ar  
    24   12   13 1   
    25   12   37 1   
    26   13   14 ar  
    27   13   18 ar  
    28   14   15 ar  
    29   15   16 ar  
    30   15   38 1   
    31   16   17 ar  
    32   16   39 1   
    33   17   18 ar  
    34   17   40 1   
    35   19   20 ar  
    36   20   41 1   
    37   21   22 2   
    38   21   23 1   
    39   23   24 1   
    40   23   42 1   
    41   24   25 ar  
    42   24   29 ar  
    43   25   26 ar  
    44   25   43 1   
    45   26   27 ar  
    46   26   44 1   
    47   27   28 ar  
    48   27   45 1   
    49   28   29 ar  
    50   28   46 1   
    51   29   47 1   
@<TRIPOS>SUBSTRUCTURE
     1 J4X         1 TEMP              0 ****  ****    0 ROOT
