@<TRIPOS>MOLECULE
J53
   81    85     1     0     0
SMALL
bcc


@<TRIPOS>ATOM
      1 O4          0.2200    0.6220    0.3250 o         1 J53     -0.561000
      2 C31         1.4240    0.5620    0.5930 c         1 J53      0.640100
      3 O3          2.2760    1.0880   -0.3350 oh        1 J53     -0.606100
      4 C29         2.1200   -0.0000    1.8030 c3        1 J53     -0.103700
      5 C30         2.5060    1.1500    2.7280 c3        1 J53     -0.076400
      6 C32         3.6140    0.7660    3.6740 c3        1 J53     -0.095100
      7 C26         1.2200   -1.0080    2.5130 c3        1 J53     -0.030100
      8 C25         1.1960   -2.3300    1.8300 ca        1 J53     -0.126300
      9 C24         0.2560   -2.5890    0.8270 ca        1 J53     -0.083000
     10 C23         0.2180   -3.8290    0.1930 ca        1 J53     -0.202000
     11 C21         1.1300   -4.8230    0.5670 ca        1 J53      0.131100
     12 O1          1.1970   -6.0720   -0.0230 os        1 J53     -0.345900
     13 C34         0.0820   -6.4310   -0.8520 c3        1 J53      0.129400
     14 C33         0.2770   -7.8980   -1.1960 c3        1 J53     -0.087400
     15 C28        -0.8380   -8.3770   -2.0990 c3        1 J53     -0.079400
     16 C27        -0.6660   -9.8320   -2.4540 c3        1 J53     -0.093100
     17 C22         2.1020   -3.3320    2.1980 ca        1 J53     -0.077000
     18 C20         2.0780   -4.5830    1.5850 ca        1 J53     -0.146300
     19 C19         3.0290   -5.6620    2.0200 c3        1 J53      0.141300
     20 N           3.9700   -6.0720    1.0130 ns        1 J53     -0.546900
     21 C3          5.2750   -5.6090    1.0010 c         1 J53      0.665700
     22 O2          5.7590   -5.0070    1.9820 o         1 J53     -0.612100
     23 C1          6.1060   -5.9380   -0.1930 ca        1 J53     -0.143600
     24 C4          5.5990   -5.8640   -1.4940 ca        1 J53     -0.090500
     25 C8          6.4190   -6.1630   -2.5780 ca        1 J53     -0.139500
     26 C6          7.7580   -6.5420   -2.3920 ca        1 J53     -0.042300
     27 C5          8.2570   -6.6040   -1.0850 ca        1 J53     -0.139500
     28 C2          7.4410   -6.3010    0.0040 ca        1 J53     -0.090500
     29 C7          8.6040   -6.8600   -3.5930 c3        1 J53     -0.006700
     30 C41        10.0370   -7.2580   -3.2130 c3        1 J53     -0.063400
     31 C37        10.8540   -7.5710   -4.4610 c3        1 J53     -0.062367
     32 C40        10.2090   -8.7260   -5.2190 c3        1 J53     -0.070400
     33 C39        10.9080   -6.3400   -5.3600 c3        1 J53     -0.070400
     34 C38         9.4900   -5.9490   -5.7610 c3        1 J53     -0.062367
     35 C9          8.6770   -5.6300   -4.5120 c3        1 J53     -0.063400
     36 C42         8.8380   -7.1020   -6.5160 c3        1 J53     -0.070400
     37 C12         8.7910   -8.3350   -5.6200 c3        1 J53     -0.062367
     38 C11         7.9740   -8.0280   -4.3700 c3        1 J53     -0.063400
     39 H2          3.0580   -0.5160    1.4500 hc        1 J53      0.094700
     40 H3          1.6040    1.4790    3.3080 hc        1 J53      0.053200
     41 H4          2.8430    2.0210    2.1030 hc        1 J53      0.053200
     42 H5          4.5290    0.4620    3.1100 hc        1 J53      0.040367
     43 H6          3.8750    1.6350    4.3260 hc        1 J53      0.040367
     44 H7          3.3080   -0.0850    4.3300 hc        1 J53      0.040367
     45 H8          1.5930   -1.1370    3.5650 hc        1 J53      0.065200
     46 H9          0.1780   -0.5910    2.5710 hc        1 J53      0.065200
     47 H10        -0.4520   -1.7970    0.5300 ha        1 J53      0.154000
     48 H11        -0.5240   -4.0090   -0.5970 ha        1 J53      0.139000
     49 H12        -0.8760   -6.2700   -0.2930 h1        1 J53      0.041700
     50 H13         0.0920   -5.7950   -1.7760 h1        1 J53      0.041700
     51 H14         0.2980   -8.5030   -0.2520 hc        1 J53      0.056700
     52 H15         1.2700   -8.0350   -1.6990 hc        1 J53      0.056700
     53 H16        -1.8250   -8.2280   -1.5880 hc        1 J53      0.041200
     54 H17        -0.8530   -7.7600   -3.0370 hc        1 J53      0.041200
     55 H18         0.3020   -9.9970   -2.9850 hc        1 J53      0.036367
     56 H19        -0.6730  -10.4650   -1.5340 hc        1 J53      0.036367
     57 H20        -1.4970  -10.1680   -3.1200 hc        1 J53      0.036367
     58 H21         2.8470   -3.1320    2.9850 ha        1 J53      0.144000
     59 H22         2.4160   -6.5720    2.2940 h1        1 J53      0.071200
     60 H23         3.5990   -5.3220    2.9330 h1        1 J53      0.071200
     61 H24         1.7660    1.4360   -1.0850 ho        1 J53      0.442000
     62 H25         4.5580   -5.5550   -1.6750 ha        1 J53      0.143500
     63 H26         6.0050   -6.0960   -3.5960 ha        1 J53      0.137000
     64 H27         9.3020   -6.8890   -0.8920 ha        1 J53      0.137000
     65 H28         7.8450   -6.3340    1.0290 ha        1 J53      0.143500
     66 H29        10.5250   -6.4180   -2.6530 hc        1 J53      0.044533
     67 H30        10.0140   -8.1600   -2.5490 hc        1 J53      0.044533
     68 H31        11.8960   -7.8590   -4.1570 hc        1 J53      0.049367
     69 H32        10.1820   -9.6390   -4.5710 hc        1 J53      0.041533
     70 H33        10.8100   -8.9670   -6.1320 hc        1 J53      0.041533
     71 H34        11.3980   -5.4930   -4.8160 hc        1 J53      0.041533
     72 H35        11.5150   -6.5620   -6.2740 hc        1 J53      0.041533
     73 H36         9.5250   -5.0410   -6.4200 hc        1 J53      0.049367
     74 H37         7.6430   -5.3170   -4.8090 hc        1 J53      0.044533
     75 H38         9.1500   -4.7800   -3.9580 hc        1 J53      0.044533
     76 H39         7.8000   -6.8160   -6.8240 hc        1 J53      0.041533
     77 H40         9.4240   -7.3280   -7.4430 hc        1 J53      0.041533
     78 H41         8.3100   -9.1840   -6.1760 hc        1 J53      0.049367
     79 H42         7.9330   -8.9330   -3.7120 hc        1 J53      0.044533
     80 H43         6.9260   -7.7650   -4.6640 hc        1 J53      0.044533
     81 HN3         3.5780   -6.4110    0.1640 hn        1 J53      0.315500
@<TRIPOS>BOND
     1    1    2 2   
     2    2    3 1   
     3    2    4 1   
     4    3   61 1   
     5    4    5 1   
     6    4    7 1   
     7    4   39 1   
     8    5    6 1   
     9    5   40 1   
    10    5   41 1   
    11    6   42 1   
    12    6   43 1   
    13    6   44 1   
    14    7    8 1   
    15    7   45 1   
    16    7   46 1   
    17    8    9 ar  
    18    8   17 ar  
    19    9   10 ar  
    20    9   47 1   
    21   10   11 ar  
    22   10   48 1   
    23   11   12 1   
    24   11   18 ar  
    25   12   13 1   
    26   13   14 1   
    27   13   49 1   
    28   13   50 1   
    29   14   15 1   
    30   14   51 1   
    31   14   52 1   
    32   15   16 1   
    33   15   53 1   
    34   15   54 1   
    35   16   55 1   
    36   16   56 1   
    37   16   57 1   
    38   17   18 ar  
    39   17   58 1   
    40   18   19 1   
    41   19   20 1   
    42   19   59 1   
    43   19   60 1   
    44   20   21 1   
    45   20   81 1   
    46   21   22 2   
    47   21   23 1   
    48   23   24 ar  
    49   23   28 ar  
    50   24   25 ar  
    51   24   62 1   
    52   25   26 ar  
    53   25   63 1   
    54   26   27 ar  
    55   26   29 1   
    56   27   28 ar  
    57   27   64 1   
    58   28   65 1   
    59   29   30 1   
    60   29   35 1   
    61   29   38 1   
    62   30   31 1   
    63   30   66 1   
    64   30   67 1   
    65   31   32 1   
    66   31   33 1   
    67   31   68 1   
    68   32   37 1   
    69   32   69 1   
    70   32   70 1   
    71   33   34 1   
    72   33   71 1   
    73   33   72 1   
    74   34   35 1   
    75   34   36 1   
    76   34   73 1   
    77   35   74 1   
    78   35   75 1   
    79   36   37 1   
    80   36   76 1   
    81   36   77 1   
    82   37   38 1   
    83   37   78 1   
    84   38   79 1   
    85   38   80 1   
@<TRIPOS>SUBSTRUCTURE
     1 J53         1 TEMP              0 ****  ****    0 ROOT
