@<TRIPOS>MOLECULE
J53
   81    85     1     0     0
SMALL
bcc


@<TRIPOS>ATOM
      1 O4          0.3230    0.6900    0.3820 o         1 J53     -0.561000
      2 C31         1.5250    0.6050    0.6520 c         1 J53      0.640100
      3 O3          2.3880    1.1270   -0.2660 oh        1 J53     -0.606100
      4 C29         2.2060    0.0140    1.8570 c3        1 J53     -0.103700
      5 C30         2.6110    1.1450    2.7980 c3        1 J53     -0.076400
      6 C32         3.7100    0.7290    3.7410 c3        1 J53     -0.095100
      7 C26         1.2850   -0.9850    2.5520 c3        1 J53     -0.030100
      8 C25         1.2390   -2.2990    1.8530 ca        1 J53     -0.126300
      9 C24         0.2990   -2.5280    0.8440 ca        1 J53     -0.083000
     10 C23         0.2400   -3.7580    0.1930 ca        1 J53     -0.202000
     11 C21         1.1310   -4.7740    0.5600 ca        1 J53      0.131100
     12 O1          1.1760   -6.0160   -0.0450 os        1 J53     -0.345900
     13 C34         0.0600   -6.3440   -0.8850 c3        1 J53      0.129400
     14 C33         0.2300   -7.8090   -1.2480 c3        1 J53     -0.087400
     15 C28        -0.8880   -8.2550   -2.1640 c3        1 J53     -0.079400
     16 C27        -0.7420   -9.7080   -2.5380 c3        1 J53     -0.093100
     17 C22         2.1240   -3.3210    2.2120 ca        1 J53     -0.077000
     18 C20         2.0790   -4.5640    1.5840 ca        1 J53     -0.146300
     19 C19         3.0070   -5.6670    2.0100 c3        1 J53      0.141300
     20 N           3.9440   -6.0830    1.0020 n         1 J53     -0.546900
     21 C3          5.2570   -5.6460    0.9980 c         1 J53      0.665700
     22 O2          5.7500   -5.0620    1.9870 o         1 J53     -0.611100
     23 C1          6.0850   -5.9780   -0.1970 ca        1 J53     -0.143600
     24 C4          5.5840   -5.8830   -1.4980 ca        1 J53     -0.090500
     25 C8          6.4020   -6.1870   -2.5830 ca        1 J53     -0.139500
     26 C6          7.7330   -6.5930   -2.3960 ca        1 J53     -0.042300
     27 C5          8.2260   -6.6770   -1.0890 ca        1 J53     -0.139500
     28 C2          7.4130   -6.3680    0.0010 ca        1 J53     -0.090500
     29 C7          8.5770   -6.9170   -3.5980 c3        1 J53     -0.006700
     30 C41        10.0000   -7.3440   -3.2170 c3        1 J53     -0.063400
     31 C37        10.8150   -7.6620   -4.4660 c3        1 J53     -0.062367
     32 C40        10.1500   -8.7970   -5.2360 c3        1 J53     -0.070400
     33 C39        10.8950   -6.4240   -5.3530 c3        1 J53     -0.070400
     34 C38         9.4860   -6.0020   -5.7550 c3        1 J53     -0.062367
     35 C9          8.6750   -5.6790   -4.5060 c3        1 J53     -0.063400
     36 C42         8.8140   -7.1360   -6.5220 c3        1 J53     -0.070400
     37 C12         8.7410   -8.3760   -5.6380 c3        1 J53     -0.062367
     38 C11         7.9270   -8.0650   -4.3880 c3        1 J53     -0.063400
     39 H2          3.1350   -0.5150    1.5000 hc        1 J53      0.094700
     40 H3          2.9660    2.0170    2.1840 hc        1 J53      0.053200
     41 H4          1.7140    1.4840    3.3800 hc        1 J53      0.053200
     42 H5          3.9850    1.5840    4.4050 hc        1 J53      0.040367
     43 H6          4.6200    0.4150    3.1750 hc        1 J53      0.040367
     44 H7          3.3860   -0.1250    4.3850 hc        1 J53      0.040367
     45 H8          1.6520   -1.1340    3.6030 hc        1 J53      0.065200
     46 H9          0.2510   -0.5500    2.6120 hc        1 J53      0.065200
     47 H10        -0.3930   -1.7190    0.5530 ha        1 J53      0.154000
     48 H11        -0.5030   -3.9150   -0.6010 ha        1 J53      0.139000
     49 H12         0.0880   -5.6960   -1.8000 h1        1 J53      0.041700
     50 H13        -0.8980   -6.1720   -0.3300 h1        1 J53      0.041700
     51 H14         1.2220   -7.9580   -1.7470 hc        1 J53      0.056700
     52 H15         0.2330   -8.4270   -0.3120 hc        1 J53      0.056700
     53 H16        -0.8860   -7.6250   -3.0940 hc        1 J53      0.041200
     54 H17        -1.8770   -8.0940   -1.6570 hc        1 J53      0.041200
     55 H18         0.2260   -9.8840   -3.0660 hc        1 J53      0.036367
     56 H19        -0.7660  -10.3530   -1.6260 hc        1 J53      0.036367
     57 H20        -1.5750  -10.0190   -3.2130 hc        1 J53      0.036367
     58 H21         2.8700   -3.1450    3.0050 ha        1 J53      0.144000
     59 H22         3.5810   -5.3480    2.9280 h1        1 J53      0.071200
     60 H23         2.3760   -6.5670    2.2720 h1        1 J53      0.071200
     61 H24         3.5480   -6.4070    0.1480 hn        1 J53      0.315500
     62 H25         4.5500   -5.5520   -1.6800 ha        1 J53      0.143500
     63 H26         5.9930   -6.1030   -3.6020 ha        1 J53      0.137000
     64 H27         9.2650   -6.9840   -0.8950 ha        1 J53      0.137000
     65 H28         7.8130   -6.4190    1.0270 ha        1 J53      0.143500
     66 H29         9.9590   -8.2520   -2.5620 hc        1 J53      0.044533
     67 H30        10.5020   -6.5190   -2.6490 hc        1 J53      0.044533
     68 H31        11.8500   -7.9710   -4.1620 hc        1 J53      0.049367
     69 H32        10.1050   -9.7160   -4.5970 hc        1 J53      0.041533
     70 H33        10.7500   -9.0410   -6.1500 hc        1 J53      0.041533
     71 H34        11.5000   -6.6490   -6.2680 hc        1 J53      0.041533
     72 H35        11.3990   -5.5910   -4.8000 hc        1 J53      0.041533
     73 H36         9.5390   -5.0890   -6.4060 hc        1 J53      0.049367
     74 H37         9.1620   -4.8430   -3.9420 hc        1 J53      0.044533
     75 H38         7.6480   -5.3440   -4.8020 hc        1 J53      0.044533
     76 H39         9.3980   -7.3650   -7.4500 hc        1 J53      0.041533
     77 H40         7.7830   -6.8270   -6.8310 hc        1 J53      0.041533
     78 H41         8.2470   -9.2100   -6.2030 hc        1 J53      0.049367
     79 H42         6.8840   -7.7800   -4.6820 hc        1 J53      0.044533
     80 H43         7.8670   -8.9750   -3.7380 hc        1 J53      0.044533
     81 HN3         1.8880    1.4940   -1.0130 ho        1 J53      0.442000
@<TRIPOS>BOND
     1    1    2 2   
     2    2    3 1   
     3    2    4 1   
     4    3   81 1   
     5    4    5 1   
     6    4    7 1   
     7    4   39 1   
     8    5    6 1   
     9    5   40 1   
    10    5   41 1   
    11    6   42 1   
    12    6   43 1   
    13    6   44 1   
    14    7    8 1   
    15    7   45 1   
    16    7   46 1   
    17    8    9 ar  
    18    8   17 ar  
    19    9   10 ar  
    20    9   47 1   
    21   10   11 ar  
    22   10   48 1   
    23   11   12 1   
    24   11   18 ar  
    25   12   13 1   
    26   13   14 1   
    27   13   49 1   
    28   13   50 1   
    29   14   15 1   
    30   14   51 1   
    31   14   52 1   
    32   15   16 1   
    33   15   53 1   
    34   15   54 1   
    35   16   55 1   
    36   16   56 1   
    37   16   57 1   
    38   17   18 ar  
    39   17   58 1   
    40   18   19 1   
    41   19   20 1   
    42   19   59 1   
    43   19   60 1   
    44   20   21 1   
    45   20   61 1   
    46   21   22 2   
    47   21   23 1   
    48   23   24 ar  
    49   23   28 ar  
    50   24   25 ar  
    51   24   62 1   
    52   25   26 ar  
    53   25   63 1   
    54   26   27 ar  
    55   26   29 1   
    56   27   28 ar  
    57   27   64 1   
    58   28   65 1   
    59   29   30 1   
    60   29   35 1   
    61   29   38 1   
    62   30   31 1   
    63   30   66 1   
    64   30   67 1   
    65   31   32 1   
    66   31   33 1   
    67   31   68 1   
    68   32   37 1   
    69   32   69 1   
    70   32   70 1   
    71   33   34 1   
    72   33   71 1   
    73   33   72 1   
    74   34   35 1   
    75   34   36 1   
    76   34   73 1   
    77   35   74 1   
    78   35   75 1   
    79   36   37 1   
    80   36   76 1   
    81   36   77 1   
    82   37   38 1   
    83   37   78 1   
    84   38   79 1   
    85   38   80 1   
@<TRIPOS>SUBSTRUCTURE
     1 J53         1 TEMP              0 ****  ****    0 ROOT
