@<TRIPOS>MOLECULE
J53
   80    84     1     0     0
SMALL
bcc


@<TRIPOS>ATOM
      1 O4         -7.2550    1.9260   -1.8810 o         1 J53     -0.845300
      2 C31        -6.4520    2.8980   -1.7560 c         1 J53      0.910600
      3 O3         -6.2550    3.7570   -2.6600 o         1 J53     -0.845300
      4 C29        -5.6430    3.0530   -0.4400 c3        1 J53     -0.181700
      5 C30        -5.9670    4.4040    0.1770 c3        1 J53     -0.067400
      6 C32        -4.9040    4.8880    1.1290 c3        1 J53     -0.087100
      7 C26        -5.9140    1.9230    0.5430 c3        1 J53     -0.028100
      8 C25        -5.0180    0.7500    0.3420 ca        1 J53     -0.069300
      9 C24        -5.1140    0.0030   -0.8420 ca        1 J53     -0.079000
     10 C23        -4.2990   -1.1040   -1.0480 ca        1 J53     -0.202000
     11 C21        -3.3800   -1.4790   -0.0600 ca        1 J53      0.093100
     12 O1         -2.4960   -2.5430   -0.2040 os        1 J53     -0.357900
     13 C34        -2.8940   -3.5370   -1.1540 c3        1 J53      0.133400
     14 C33        -2.0190   -4.7500   -0.8880 c3        1 J53     -0.087400
     15 C28        -2.3320   -5.8520   -1.8760 c3        1 J53     -0.079400
     16 C27        -1.4760   -7.0680   -1.6310 c3        1 J53     -0.091100
     17 C22        -4.0950    0.3670    1.3180 ca        1 J53     -0.105000
     18 C20        -3.2760   -0.7520    1.1400 ca        1 J53     -0.161300
     19 C19        -2.3200   -1.1730    2.2160 c3        1 J53      0.148300
     20 N          -0.9340   -1.0940    1.8240 n         1 J53     -0.542900
     21 C3         -0.0180   -0.3160    2.4950 c         1 J53      0.662700
     22 O2         -0.2490    0.1490    3.6320 o         1 J53     -0.622100
     23 C1          1.3130   -0.1190    1.8430 ca        1 J53     -0.135600
     24 C4          1.4280    0.1720    0.4810 ca        1 J53     -0.092000
     25 C8          2.6850    0.3720   -0.0840 ca        1 J53     -0.141000
     26 C6          3.8500    0.2850    0.6940 ca        1 J53     -0.054300
     27 C5          3.7220    0.0010    2.0580 ca        1 J53     -0.141000
     28 C2          2.4650   -0.1940    2.6300 ca        1 J53     -0.092000
     29 C7          5.1860    0.5050    0.0390 c3        1 J53     -0.002700
     30 C41         6.3530    0.3730    1.0260 c3        1 J53     -0.063733
     31 C37         7.6830    0.6040    0.3170 c3        1 J53     -0.062367
     32 C40         7.8580   -0.4280   -0.7920 c3        1 J53     -0.069400
     33 C39         7.7060    2.0050   -0.2840 c3        1 J53     -0.069400
     34 C38         6.5620    2.1420   -1.2830 c3        1 J53     -0.062367
     35 C9          5.2330    1.9160   -0.5710 c3        1 J53     -0.063733
     36 C42         6.7290    1.1090   -2.3930 c3        1 J53     -0.069400
     37 C12         6.7140   -0.2920   -1.7910 c3        1 J53     -0.062367
     38 C11         5.3860   -0.5290   -1.0810 c3        1 J53     -0.063733
     39 H2         -4.5580    3.0440   -0.7330 hc        1 J53      0.041700
     40 H3         -6.0820    5.1460   -0.6600 hc        1 J53      0.045700
     41 H4         -6.9520    4.3440    0.7100 hc        1 J53      0.045700
     42 H5         -5.1830    5.8830    1.5520 hc        1 J53      0.015700
     43 H6         -4.7660    4.1740    1.9780 hc        1 J53      0.015700
     44 H7         -3.9250    4.9920    0.6020 hc        1 J53      0.015700
     45 H8         -5.8070    2.2960    1.5970 hc        1 J53      0.047700
     46 H9         -6.9790    1.5870    0.4000 hc        1 J53      0.047700
     47 H10        -5.8520    0.3290   -1.6080 ha        1 J53      0.211000
     48 H11        -4.3790   -1.6700   -1.9860 ha        1 J53      0.129000
     49 H12        -3.9790   -3.7860   -1.0240 h1        1 J53      0.039200
     50 H13        -2.7240   -3.1390   -2.1890 h1        1 J53      0.039200
     51 H14        -0.9400   -4.4550   -0.9660 hc        1 J53      0.051700
     52 H15        -2.1890   -5.1090    0.1600 hc        1 J53      0.051700
     53 H16        -3.4160   -6.1310   -1.7950 hc        1 J53      0.040200
     54 H17        -2.1640   -5.4780   -2.9210 hc        1 J53      0.040200
     55 H18        -1.7210   -7.8700   -2.3680 hc        1 J53      0.030700
     56 H19        -0.3930   -6.8150   -1.7310 hc        1 J53      0.030700
     57 H20        -1.6470   -7.4700   -0.6020 hc        1 J53      0.030700
     58 H21        -4.0080    0.9530    2.2470 ha        1 J53      0.131000
     59 H22        -2.4780   -0.5500    3.1430 h1        1 J53      0.061200
     60 H23        -2.5340   -2.2530    2.4730 h1        1 J53      0.061200
     61 H24        -0.7350   -1.3730    0.8890 hn        1 J53      0.318500
     62 H25         0.5300    0.2620   -0.1510 ha        1 J53      0.148000
     63 H26         2.7570    0.6050   -1.1570 ha        1 J53      0.132500
     64 H27         4.6070   -0.0690    2.7070 ha        1 J53      0.132500
     65 H28         2.3680   -0.3980    3.7080 ha        1 J53      0.148000
     66 H29         6.2370    1.1250    1.8490 hc        1 J53      0.045867
     67 H30         6.3480   -0.6520    1.4800 hc        1 J53      0.045867
     68 H31         8.5190    0.5010    1.0590 hc        1 J53      0.046367
     69 H32         8.8380   -0.2690   -1.3100 hc        1 J53      0.038867
     70 H33         7.8600   -1.4600   -0.3550 hc        1 J53      0.038867
     71 H34         7.5960    2.7680    0.5270 hc        1 J53      0.038867
     72 H35         8.6840    2.1830   -0.7980 hc        1 J53      0.038867
     73 H36         6.5730    3.1730   -1.7260 hc        1 J53      0.046367
     74 H37         4.3920    2.0420   -1.2990 hc        1 J53      0.045867
     75 H38         5.1040    2.6760    0.2410 hc        1 J53      0.045867
     76 H39         5.8980    1.2120   -3.1360 hc        1 J53      0.038867
     77 H40         7.6970    1.2820   -2.9300 hc        1 J53      0.038867
     78 H41         6.8380   -1.0520   -2.6080 hc        1 J53      0.046367
     79 H42         5.3690   -1.5590   -0.6420 hc        1 J53      0.045867
     80 H43         4.5480   -0.4530   -1.8200 hc        1 J53      0.045867
@<TRIPOS>BOND
     1    1    2 1   
     2    2    3 1   
     3    2    4 1   
     4    4    5 1   
     5    4    7 1   
     6    4   39 1   
     7    5    6 1   
     8    5   40 1   
     9    5   41 1   
    10    6   42 1   
    11    6   43 1   
    12    6   44 1   
    13    7    8 1   
    14    7   45 1   
    15    7   46 1   
    16    8    9 ar  
    17    8   17 ar  
    18    9   10 ar  
    19    9   47 1   
    20   10   11 ar  
    21   10   48 1   
    22   11   12 1   
    23   11   18 ar  
    24   12   13 1   
    25   13   14 1   
    26   13   49 1   
    27   13   50 1   
    28   14   15 1   
    29   14   51 1   
    30   14   52 1   
    31   15   16 1   
    32   15   53 1   
    33   15   54 1   
    34   16   55 1   
    35   16   56 1   
    36   16   57 1   
    37   17   18 ar  
    38   17   58 1   
    39   18   19 1   
    40   19   20 1   
    41   19   59 1   
    42   19   60 1   
    43   20   21 1   
    44   20   61 1   
    45   21   22 2   
    46   21   23 1   
    47   23   24 ar  
    48   23   28 ar  
    49   24   25 ar  
    50   24   62 1   
    51   25   26 ar  
    52   25   63 1   
    53   26   27 ar  
    54   26   29 1   
    55   27   28 ar  
    56   27   64 1   
    57   28   65 1   
    58   29   30 1   
    59   29   35 1   
    60   29   38 1   
    61   30   31 1   
    62   30   66 1   
    63   30   67 1   
    64   31   32 1   
    65   31   33 1   
    66   31   68 1   
    67   32   37 1   
    68   32   69 1   
    69   32   70 1   
    70   33   34 1   
    71   33   71 1   
    72   33   72 1   
    73   34   35 1   
    74   34   36 1   
    75   34   73 1   
    76   35   74 1   
    77   35   75 1   
    78   36   37 1   
    79   36   76 1   
    80   36   77 1   
    81   37   38 1   
    82   37   78 1   
    83   38   79 1   
    84   38   80 1   
@<TRIPOS>SUBSTRUCTURE
     1 J53         1 TEMP              0 ****  ****    0 ROOT
