@<TRIPOS>MOLECULE
J53
   81    85     1     0     0
SMALL
bcc


@<TRIPOS>ATOM
      1 O4          0.3000    0.7020    0.2580 o         1 J53     -0.561000
      2 C31         1.5010    0.6240    0.5360 c         1 J53      0.640100
      3 O3          2.3680    1.1300   -0.3870 oh        1 J53     -0.606100
      4 C29         2.1770    0.0560    1.7550 c3        1 J53     -0.103700
      5 C30         2.5740    1.2050    2.6770 c3        1 J53     -0.076400
      6 C32         3.6680    0.8070    3.6350 c3        1 J53     -0.095100
      7 C26         1.2550   -0.9330    2.4620 c3        1 J53     -0.030100
      8 C25         1.2150   -2.2590    1.7860 ca        1 J53     -0.126300
      9 C24         0.2800   -2.5080    0.7760 ca        1 J53     -0.083000
     10 C23         0.2280   -3.7490    0.1470 ca        1 J53     -0.202000
     11 C21         1.1190   -4.7570    0.5350 ca        1 J53      0.131100
     12 O1          1.1710   -6.0090   -0.0480 os        1 J53     -0.345900
     13 C34         0.0590   -6.3540   -0.8870 c3        1 J53      0.129400
     14 C33         0.2340   -7.8250   -1.2220 c3        1 J53     -0.087400
     15 C28        -0.8800   -8.2900   -2.1360 c3        1 J53     -0.079400
     16 C27        -0.7290   -9.7490   -2.4820 c3        1 J53     -0.093100
     17 C22         2.1010   -3.2730    2.1670 ca        1 J53     -0.077000
     18 C20         2.0620   -4.5270    1.5600 ca        1 J53     -0.146300
     19 C19         2.9910   -5.6190    2.0090 c3        1 J53      0.141300
     20 N           3.9350   -6.0500    1.0120 n         1 J53     -0.546900
     21 C3          5.2470   -5.6080    1.0090 c         1 J53      0.665700
     22 O2          5.7330   -5.0080    1.9910 o         1 J53     -0.612100
     23 C1          6.0820   -5.9570   -0.1760 ca        1 J53     -0.143600
     24 C4          5.5880   -5.8830   -1.4810 ca        1 J53     -0.090500
     25 C8          6.4120   -6.2010   -2.5570 ca        1 J53     -0.139500
     26 C6          7.7430   -6.6000   -2.3570 ca        1 J53     -0.042300
     27 C5          8.2300   -6.6630   -1.0460 ca        1 J53     -0.139500
     28 C2          7.4100   -6.3400    0.0350 ca        1 J53     -0.090500
     29 C7          8.5950   -6.9400   -3.5490 c3        1 J53     -0.006700
     30 C41        10.0170   -7.3570   -3.1540 c3        1 J53     -0.063400
     31 C37        10.8400   -7.6910   -4.3940 c3        1 J53     -0.062367
     32 C40        10.1820   -8.8400   -5.1500 c3        1 J53     -0.070400
     33 C39        10.9210   -6.4670   -5.2990 c3        1 J53     -0.070400
     34 C38         9.5130   -6.0550   -5.7140 c3        1 J53     -0.062367
     35 C9          8.6940   -5.7160   -4.4740 c3        1 J53     -0.063400
     36 C42         8.8490   -7.2020   -6.4680 c3        1 J53     -0.070400
     37 C12         8.7750   -8.4280   -5.5660 c3        1 J53     -0.062367
     38 C11         7.9520   -8.1010   -4.3250 c3        1 J53     -0.063400
     39 H2          3.1100   -0.4770    1.4120 hc        1 J53      0.094700
     40 H3          1.6730    1.5510    3.2480 hc        1 J53      0.053200
     41 H4          2.9310    2.0660    2.0500 hc        1 J53      0.053200
     42 H5          3.3440   -0.0350    4.2920 hc        1 J53      0.040367
     43 H6          3.9380    1.6750    4.2840 hc        1 J53      0.040367
     44 H7          4.5830    0.4860    3.0790 hc        1 J53      0.040367
     45 H8          0.2200   -0.4990    2.5090 hc        1 J53      0.065200
     46 H9          1.6170   -1.0630    3.5180 hc        1 J53      0.065200
     47 H10        -0.4120   -1.7060    0.4690 ha        1 J53      0.154000
     48 H11        -0.5110   -3.9220   -0.6480 ha        1 J53      0.139000
     49 H12         0.0890   -5.7220   -1.8130 h1        1 J53      0.041700
     50 H13        -0.9020   -6.1750   -0.3380 h1        1 J53      0.041700
     51 H14         0.2350   -8.4260   -0.2760 hc        1 J53      0.056700
     52 H15         1.2280   -7.9800   -1.7150 hc        1 J53      0.056700
     53 H16        -1.8700   -8.1220   -1.6350 hc        1 J53      0.041200
     54 H17        -0.8760   -7.6770   -3.0760 hc        1 J53      0.041200
     55 H18        -0.7550  -10.3780   -1.5600 hc        1 J53      0.036367
     56 H19         0.2420   -9.9320   -3.0030 hc        1 J53      0.036367
     57 H20        -1.5580  -10.0740   -3.1550 hc        1 J53      0.036367
     58 H21         2.8430   -3.0810    2.9600 ha        1 J53      0.144000
     59 H22         2.3610   -6.5170    2.2830 h1        1 J53      0.071200
     60 H23         3.5590   -5.2840    2.9250 h1        1 J53      0.071200
     61 H24         1.8710    1.4830   -1.1430 ho        1 J53      0.442000
     62 H25         4.5540   -5.5590   -1.6740 ha        1 J53      0.143500
     63 H26         6.0080   -6.1340   -3.5790 ha        1 J53      0.137000
     64 H27         9.2680   -6.9640   -0.8420 ha        1 J53      0.137000
     65 H28         7.8040   -6.3740    1.0640 ha        1 J53      0.143500
     66 H29        10.5140   -6.5220   -2.5950 hc        1 J53      0.044533
     67 H30         9.9740   -8.2550   -2.4860 hc        1 J53      0.044533
     68 H31        11.8740   -7.9940   -4.0790 hc        1 J53      0.049367
     69 H32        10.7880   -9.0960   -6.0560 hc        1 J53      0.041533
     70 H33        10.1360   -9.7490   -4.4970 hc        1 J53      0.041533
     71 H34        11.5320   -6.7040   -6.2070 hc        1 J53      0.041533
     72 H35        11.4200   -5.6240   -4.7560 hc        1 J53      0.041533
     73 H36         9.5680   -5.1520   -6.3790 hc        1 J53      0.049367
     74 H37         7.6690   -5.3880   -4.7820 hc        1 J53      0.044533
     75 H38         9.1760   -4.8700   -3.9210 hc        1 J53      0.044533
     76 H39         9.4390   -7.4430   -7.3890 hc        1 J53      0.041533
     77 H40         7.8180   -6.9010   -6.7870 hc        1 J53      0.041533
     78 H41         8.2850   -9.2730   -6.1210 hc        1 J53      0.049367
     79 H42         7.8910   -9.0020   -3.6620 hc        1 J53      0.044533
     80 H43         6.9110   -7.8240   -4.6290 hc        1 J53      0.044533
     81 HN3         3.5440   -6.3870    0.1620 hn        1 J53      0.315500
@<TRIPOS>BOND
     1    1    2 2   
     2    2    3 1   
     3    2    4 1   
     4    3   61 1   
     5    4    5 1   
     6    4    7 1   
     7    4   39 1   
     8    5    6 1   
     9    5   40 1   
    10    5   41 1   
    11    6   42 1   
    12    6   43 1   
    13    6   44 1   
    14    7    8 1   
    15    7   45 1   
    16    7   46 1   
    17    8    9 ar  
    18    8   17 ar  
    19    9   10 ar  
    20    9   47 1   
    21   10   11 ar  
    22   10   48 1   
    23   11   12 1   
    24   11   18 ar  
    25   12   13 1   
    26   13   14 1   
    27   13   49 1   
    28   13   50 1   
    29   14   15 1   
    30   14   51 1   
    31   14   52 1   
    32   15   16 1   
    33   15   53 1   
    34   15   54 1   
    35   16   55 1   
    36   16   56 1   
    37   16   57 1   
    38   17   18 ar  
    39   17   58 1   
    40   18   19 1   
    41   19   20 1   
    42   19   59 1   
    43   19   60 1   
    44   20   21 1   
    45   20   81 1   
    46   21   22 2   
    47   21   23 1   
    48   23   24 ar  
    49   23   28 ar  
    50   24   25 ar  
    51   24   62 1   
    52   25   26 ar  
    53   25   63 1   
    54   26   27 ar  
    55   26   29 1   
    56   27   28 ar  
    57   27   64 1   
    58   28   65 1   
    59   29   30 1   
    60   29   35 1   
    61   29   38 1   
    62   30   31 1   
    63   30   66 1   
    64   30   67 1   
    65   31   32 1   
    66   31   33 1   
    67   31   68 1   
    68   32   37 1   
    69   32   69 1   
    70   32   70 1   
    71   33   34 1   
    72   33   71 1   
    73   33   72 1   
    74   34   35 1   
    75   34   36 1   
    76   34   73 1   
    77   35   74 1   
    78   35   75 1   
    79   36   37 1   
    80   36   76 1   
    81   36   77 1   
    82   37   38 1   
    83   37   78 1   
    84   38   79 1   
    85   38   80 1   
@<TRIPOS>SUBSTRUCTURE
     1 J53         1 TEMP              0 ****  ****    0 ROOT
