@<TRIPOS>MOLECULE
J53
   80    79     1     0     0
SMALL
bcc


@<TRIPOS>ATOM
      1 O4         -4.2740    1.8660   -1.7740 o         1 J53     -0.573000
      2 C31        -5.1300    0.9640   -1.5480 c1        1 J53      0.331000
      3 O3         -4.9300   -0.2140   -1.9600 os        1 J53     -0.610000
      4 C29        -6.4270    1.3120   -0.8650 c3        1 J53     -0.158000
      5 C30        -7.5900    0.9600   -1.7770 c3        1 J53     -0.137000
      6 C32        -7.7960    2.0840   -2.8040 c3        1 J53     -0.213000
      7 C26        -6.5440    0.5260    0.4370 c3        1 J53     -0.101000
      8 C25        -5.4420    0.9830    1.4150 c2        1 J53     -0.060000
      9 C24        -5.4240    2.2950    1.8810 c2        1 J53     -0.120000
     10 C23        -4.4450    2.7000    2.7870 c1        1 J53     -0.175000
     11 C21        -3.4830    1.7910    3.2270 c1        1 J53      0.052000
     12 O1         -2.4730    2.2090    4.1420 os        1 J53     -0.239000
     13 C34        -1.8990    3.4770    3.8310 c3        1 J53     -0.016000
     14 C33        -0.4050    3.4680    4.1980 c3        1 J53     -0.195000
     15 C28         0.3460    4.4850    3.3210 c3        1 J53     -0.150000
     16 C27         1.8280    4.0940    3.2380 c3        1 J53     -0.210000
     17 C22        -4.4800    0.0730    1.8550 c1        1 J53     -0.092000
     18 C20        -3.5010    0.4780    2.7600 c1        1 J53     -0.118000
     19 C19        -2.4410   -0.5230    3.2430 c3        1 J53      0.009000
     20 N          -1.4680   -0.7310    2.2010 n         1 J53     -0.351000
     21 C3         -0.4050   -1.6810    2.3900 c2        1 J53      0.342000
     22 O2         -0.4340   -2.4480    3.3380 o         1 J53     -0.420000
     23 C1          0.7370   -1.7640    1.3710 c2        1 J53     -0.129000
     24 C4          1.8350   -0.9160    1.4880 c2        1 J53     -0.092000
     25 C8          2.8240   -0.9200    0.5100 c1        1 J53     -0.166000
     26 C6          2.7170   -1.7720   -0.5850 c1        1 J53     -0.062000
     27 C5          1.6200   -2.6210   -0.7020 c1        1 J53     -0.126000
     28 C2          0.6300   -2.6170    0.2760 c1        1 J53     -0.071000
     29 C7          3.8250   -1.8010   -1.6460 c3        1 J53     -0.038000
     30 C41         4.9160   -3.2410   -1.1240 c3        1 J53     -0.131333
     31 C37         6.3160   -3.5630   -2.2330 c3        1 J53     -0.202000
     32 C40         5.8940   -3.8450   -2.9610 c3        1 J53     -0.114000
     33 C39         7.0820   -2.2360   -2.8430 c3        1 J53     -0.114000
     34 C38         6.0810   -1.2580   -3.7160 c3        1 J53     -0.202000
     35 C9          4.6440   -0.5880   -2.8300 c3        1 J53     -0.131333
     36 C42         5.6910   -1.8610   -4.2360 c3        1 J53     -0.114000
     37 C12         5.1180   -2.6870   -3.2340 c3        1 J53     -0.202000
     38 C11         4.6390   -2.7740   -3.2930 c3        1 J53     -0.131333
     39 H2         -6.4450    2.2740   -0.6690 hc        1 J53      0.087000
     40 H3         -8.4070    0.8530   -1.2390 hc        1 J53      0.062000
     41 H4         -7.3950    0.1180   -2.2470 hc        1 J53      0.062000
     42 H5         -8.2490    1.7230   -3.6000 hc        1 J53      0.070667
     43 H6         -8.3480    2.7940   -2.4070 hc        1 J53      0.070667
     44 H7         -6.9240    2.4540   -3.0640 hc        1 J53      0.070667
     45 H8         -7.4270    0.6880    0.8400 hc        1 J53      0.072500
     46 H9         -6.4390   -0.4340    0.2510 hc        1 J53      0.072500
     47 H10        -6.1000    2.9350    1.5720 ha        1 J53      0.120000
     48 H11        -4.4580    3.6130    3.1480 ha        1 J53      0.122000
     49 H12        -1.9990    3.6550    2.8720 h1        1 J53      0.077500
     50 H13        -2.3590    4.1800    4.3450 h1        1 J53      0.077500
     51 H14        -0.0370    2.5710    4.0480 hc        1 J53      0.109500
     52 H15        -0.2990    3.7110    5.1460 hc        1 J53      0.109500
     53 H16         0.2650    5.3810    3.7160 hc        1 J53      0.068000
     54 H17        -0.0430    4.4880    2.4190 hc        1 J53      0.068000
     55 H18         2.3040    4.7320    2.6600 hc        1 J53      0.073000
     56 H19         1.9070    3.1900    2.8630 hc        1 J53      0.073000
     57 H20         2.2220    4.1100    4.1380 hc        1 J53      0.073000
     58 H21        -4.4920   -0.8520    1.5270 ha        1 J53      0.186000
     59 H22        -1.9940   -0.1660    4.0420 h1        1 J53      0.103000
     60 H23        -2.8740   -1.3780    3.4640 h1        1 J53      0.103000
     61 H24        -1.5280   -0.2610    1.4170 hn        1 J53      0.267000
     62 H25         1.9100   -0.3150    2.2590 ha        1 J53      0.139000
     63 H26         3.5980   -0.3210    0.5920 ha        1 J53      0.115000
     64 H27         1.5440   -3.2220   -1.4740 ha        1 J53      0.151000
     65 H28        -0.1440   -3.2150    0.1930 ha        1 J53      0.232000
     66 H29         4.3600   -4.0520   -1.0800 hc        1 J53      0.093333
     67 H30         5.2680   -3.0540   -0.2240 hc        1 J53      0.093333
     68 H31         6.9420   -4.2400   -1.8780 hc        1 J53      0.115333
     69 H32         6.5280   -4.0350   -3.6940 hc        1 J53      0.081833
     70 H33         5.3200   -4.6260   -2.7640 hc        1 J53      0.081833
     71 H34         7.4590   -1.7160   -2.0950 hc        1 J53      0.081833
     72 H35         7.8190   -2.5350   -3.4250 hc        1 J53      0.081833
     73 H36         6.5670   -0.5740   -4.2360 hc        1 J53      0.115333
     74 H37         3.9750   -0.3010   -3.4940 hc        1 J53      0.093333
     75 H38         4.9340    0.2000   -2.3180 hc        1 J53      0.093333
     76 H39         6.3570   -2.3570   -4.7740 hc        1 J53      0.081833
     77 H40         4.9960   -1.4500   -4.8060 hc        1 J53      0.081833
     78 H41         5.1720   -2.1500   -2.4060 hc        1 J53      0.115333
     79 H42         4.4500   -3.7450   -3.2590 hc        1 J53      0.093333
     80 H43         4.3090   -2.3770   -4.1380 hc        1 J53      0.093333
@<TRIPOS>BOND
     1    1    2 1   
     2    2    4 1   
     3    4    5 1   
     4    4    7 1   
     5    4   39 1   
     6    5    6 1   
     7    5   40 1   
     8    5   41 1   
     9    6   42 1   
    10    6   43 1   
    11    6   44 1   
    12    7    8 1   
    13    7   45 1   
    14    7   46 1   
    15    8    9 1   
    16    8   17 1   
    17    9   10 1   
    18    9   47 1   
    19   10   48 1   
    20   11   12 1   
    21   11   18 1   
    22   12   13 1   
    23   13   14 1   
    24   13   49 1   
    25   13   50 1   
    26   14   15 1   
    27   14   51 1   
    28   14   52 1   
    29   15   16 1   
    30   15   53 1   
    31   15   54 1   
    32   16   55 1   
    33   16   56 1   
    34   16   57 1   
    35   17   58 1   
    36   18   19 1   
    37   19   20 1   
    38   19   59 1   
    39   19   60 1   
    40   20   21 1   
    41   20   61 1   
    42   21   22 1   
    43   21   23 1   
    44   23   24 1   
    45   23   28 1   
    46   24   25 1   
    47   24   62 1   
    48   25   63 1   
    49   26   27 1   
    50   26   29 1   
    51   27   64 1   
    52   28   65 1   
    53   29   30 1   
    54   29   35 1   
    55   29   38 1   
    56   30   31 1   
    57   30   66 1   
    58   30   67 1   
    59   31   32 1   
    60   31   33 1   
    61   31   68 1   
    62   32   37 1   
    63   32   69 1   
    64   32   70 1   
    65   33   34 1   
    66   33   71 1   
    67   33   72 1   
    68   34   35 1   
    69   34   36 1   
    70   34   73 1   
    71   35   74 1   
    72   35   75 1   
    73   36   37 1   
    74   36   76 1   
    75   36   77 1   
    76   37   38 1   
    77   37   78 1   
    78   38   79 1   
    79   38   80 1   
@<TRIPOS>SUBSTRUCTURE
     1 J53         1 TEMP              0 ****  ****    0 ROOT
