@<TRIPOS>MOLECULE
J54
   32    30     1     0     0
SMALL
bcc


@<TRIPOS>ATOM
      1 O02        -2.0680   -2.3580   -0.0100 o         1 J54     -0.444500
      2 C06        -1.2160   -1.6800    0.4590 c1        1 J54      0.889000
      3 C05         2.7020    1.3780    2.5530 c2        1 J54     -0.028900
      4 O18         3.5570    2.2650    3.1930 oh        1 J54     -0.614100
      5 C04         1.3870    1.3150    2.7610 c2        1 J54     -0.252000
      6 N02         5.5390    3.1610    1.1670 nt        1 J54     -0.620000
      7 C03         6.6110    2.5750    1.7600 c         1 J54      0.643100
      8 O01         7.7460    2.4350    1.2870 o         1 J54     -0.501100
      9 N01         6.4470    2.0310    3.1760 ny        1 J54     -0.665800
     10 C02         6.4570    3.1410    4.1870 c3        1 J54      0.184100
     11 C01         6.5150    2.5980    5.5720 ca        1 J54     -0.190300
     12 CE1         7.6910    2.7080    6.3220 ca        1 J54     -0.100500
     13 CD1         7.7210    2.2330    7.6340 ca        1 J54     -0.118000
     14 CG          6.5860    1.6450    8.1930 ca        1 J54     -0.078000
     15 CD2         5.4130    1.5320    7.4420 ca        1 J54     -0.118000
     16 CE2         5.3750    2.0080    6.1350 ca        1 J54     -0.100500
     17 OXT        -0.3580   -0.9980    0.9300 o         1 J54     -0.444500
     18 H05         3.2820    0.7500    1.8600 h4        1 J54      0.160000
     19 H18         3.0420    2.8080    3.8070 ho        1 J54      0.439000
     20 H041        0.7590    0.5910    2.2220 ha        1 J54      0.153500
     21 H042        0.8580    1.9680    3.4680 ha        1 J54      0.153500
     22 H02         5.6640    3.5050    0.2390 hn        1 J54      0.369000
     23 H01         7.2420    1.4020    3.3520 hn        1 J54      0.471800
     24 H021        5.5090    3.7350    4.0340 hx        1 J54      0.106700
     25 H022        7.3490    3.7970    3.9690 hx        1 J54      0.106700
     26 HE1         8.5880    3.1780    5.8890 ha        1 J54      0.138500
     27 HE2         4.4480    1.9320    5.5450 ha        1 J54      0.138500
     28 HD1         8.6450    2.3260    8.2280 ha        1 J54      0.159500
     29 HG          6.6130    1.2720    9.2300 ha        1 J54      0.161000
     30 HD2         4.5170    1.0710    7.8870 ha        1 J54      0.159500
     31 H023        4.6350    3.1870    1.5840 hn        1 J54      0.369000
     32 H012        5.5710    1.4990    3.2740 hn        1 J54      0.471800
@<TRIPOS>BOND
     1    1    2 2   
     2    2   17 2   
     3    3    4 1   
     4    3    5 2   
     5    3   18 1   
     6    4   19 1   
     7    5   20 1   
     8    5   21 1   
     9    6    7 1   
    10    6   22 1   
    11    6   31 1   
    12    7    8 2   
    13    7    9 1   
    14    9   10 1   
    15    9   23 1   
    16    9   32 1   
    17   10   11 1   
    18   10   24 1   
    19   10   25 1   
    20   11   12 ar  
    21   11   16 ar  
    22   12   13 ar  
    23   12   26 1   
    24   13   14 ar  
    25   13   28 1   
    26   14   15 ar  
    27   14   29 1   
    28   15   16 ar  
    29   15   30 1   
    30   16   27 1   
@<TRIPOS>SUBSTRUCTURE
     1 J54         1 TEMP              0 ****  ****    0 ROOT
