@<TRIPOS>MOLECULE
J54
   30    30     1     0     0
SMALL
bcc


@<TRIPOS>ATOM
      1 O02        -5.4490   -1.1350    1.1890 o         1 J54     -0.824300
      2 C06        -5.0440   -0.2870    0.3420 c         1 J54      0.900600
      3 C05        -3.6910   -0.6150   -0.3510 c3        1 J54     -0.004900
      4 O18        -3.2640   -1.9380   -0.0750 oh        1 J54     -0.657800
      5 C04        -2.6290    0.3850    0.1330 c3        1 J54      0.065000
      6 N02        -1.3250    0.1310   -0.4550 n         1 J54     -0.516900
      7 C03        -0.2060    0.7380    0.1260 c         1 J54      0.722100
      8 O01        -0.2960    1.7430    0.8740 o         1 J54     -0.647100
      9 N01         1.0840    0.2150   -0.1770 n         1 J54     -0.554900
     10 C02         2.2110    1.0830    0.0680 c3        1 J54      0.121300
     11 C01         3.5320    0.3740   -0.0270 ca        1 J54     -0.088300
     12 CE1         4.5620    0.9290   -0.7930 ca        1 J54     -0.117500
     13 CD1         5.8070    0.3030   -0.8540 ca        1 J54     -0.137500
     14 CG          6.0270   -0.8840   -0.1560 ca        1 J54     -0.137000
     15 CD2         5.0010   -1.4420    0.6070 ca        1 J54     -0.137500
     16 CE2         3.7570   -0.8160    0.6730 ca        1 J54     -0.117500
     17 OXT        -5.6410    0.7690    0.0130 o         1 J54     -0.824300
     18 H05        -3.8130   -0.5510   -1.4660 h1        1 J54      0.047700
     19 H18        -3.8040   -2.2600    0.6670 ho        1 J54      0.432000
     20 H041       -2.9540    1.4220   -0.1600 h1        1 J54      0.062200
     21 H042       -2.5690    0.3430    1.2570 h1        1 J54      0.062200
     22 H02        -1.2140   -0.8140   -0.7640 hn        1 J54      0.297500
     23 H01         1.1630   -0.3390   -1.0010 hn        1 J54      0.282500
     24 H021        2.2070    1.9600   -0.6460 h1        1 J54      0.057200
     25 H022        2.0980    1.5060    1.1100 h1        1 J54      0.057200
     26 HE1         4.3920    1.8640   -1.3480 ha        1 J54      0.141000
     27 HE2         2.9480   -1.2550    1.2780 ha        1 J54      0.141000
     28 HD1         6.6130    0.7450   -1.4550 ha        1 J54      0.125500
     29 HG          7.0080   -1.3790   -0.2060 ha        1 J54      0.123000
     30 HD2         5.1720   -2.3780    1.1570 ha        1 J54      0.125500
@<TRIPOS>BOND
     1    1    2 1   
     2    2    3 1   
     3    2   17 1   
     4    3    4 1   
     5    3    5 1   
     6    3   18 1   
     7    4   19 1   
     8    5    6 1   
     9    5   20 1   
    10    5   21 1   
    11    6    7 1   
    12    6   22 1   
    13    7    8 2   
    14    7    9 1   
    15    9   10 1   
    16    9   23 1   
    17   10   11 1   
    18   10   24 1   
    19   10   25 1   
    20   11   12 ar  
    21   11   16 ar  
    22   12   13 ar  
    23   12   26 1   
    24   13   14 ar  
    25   13   28 1   
    26   14   15 ar  
    27   14   29 1   
    28   15   16 ar  
    29   15   30 1   
    30   16   27 1   
@<TRIPOS>SUBSTRUCTURE
     1 J54         1 TEMP              0 ****  ****    0 ROOT
