@<TRIPOS>MOLECULE
J54
   30    27     1     0     0
SMALL
bcc


@<TRIPOS>ATOM
      1 O02        -2.0240   -5.4630   -2.5910 o         1 J54     -0.559000
      2 C06        -2.0470   -5.0710   -1.3930 c1        1 J54      0.320000
      3 C05        -1.2270   -3.8950   -0.9770 c2        1 J54     -0.066000
      4 O18        -0.7550   -4.0910    0.3430 oh        1 J54     -0.385000
      5 C04        -2.0890   -2.6090   -1.0310 c3        1 J54     -0.051000
      6 N02        -1.2450   -1.4880   -1.1060 n         1 J54     -0.326000
      7 C03        -1.3540   -0.4240   -0.1220 c2        1 J54      0.349000
      8 O01        -2.2090   -0.4750    0.7420 o         1 J54     -0.408000
      9 N01        -0.3970    0.6530   -0.1250 n         1 J54     -0.364000
     10 C02        -0.1930    1.4580    1.1000 c3        1 J54     -0.002000
     11 C01         0.9740    2.4640    0.8860 c2        1 J54     -0.081000
     12 CE1         0.7060    3.7800    0.7740 c2        1 J54     -0.127000
     13 CD1         1.7390    4.6930    0.6760 c1        1 J54     -0.138000
     14 CG          3.0540    4.2580    0.6920 c1        1 J54     -0.137000
     15 CD2         3.3260    2.9330    0.8050 c1        1 J54     -0.137000
     16 CE2         2.2870    2.0200    0.9030 c1        1 J54     -0.108000
     17 OXT        -2.8400   -5.6530   -0.5300 o         1 J54     -0.559000
     18 H05        -0.4620   -3.8010   -1.5850 h4        1 J54      0.087000
     19 H18        -0.1040   -4.7350    0.3400 ho        1 J54      0.231000
     20 H041       -2.6220   -2.5520   -0.2520 h1        1 J54      0.101500
     21 H042       -2.6960   -2.6370   -1.8640 h1        1 J54      0.101500
     22 H02        -0.6980   -1.3850   -1.8170 hn        1 J54      0.211000
     23 H01         0.0810    0.8410   -0.8880 hn        1 J54      0.196000
     24 H021        0.0240    0.8510    1.8650 h1        1 J54      0.096500
     25 H022       -1.0540    1.9780    1.3090 h1        1 J54      0.096500
     26 HE1        -0.2200    4.0850    0.7380 ha        1 J54      0.131000
     27 HE2         2.4800    1.0800    1.0740 ha        1 J54      0.151000
     28 HD1         1.5400    5.6410    0.5970 ha        1 J54      0.124000
     29 HG          3.7940    4.9130    0.6210 ha        1 J54      0.125000
     30 HD2         4.2290    2.6300    0.8150 ha        1 J54      0.125000
@<TRIPOS>BOND
     1    1    2 1   
     2    2   17 1   
     3    3    4 1   
     4    3    5 1   
     5    3   18 1   
     6    4   19 1   
     7    5    6 1   
     8    5   20 1   
     9    5   21 1   
    10    6    7 1   
    11    6   22 1   
    12    7    8 1   
    13    7    9 1   
    14    9   10 1   
    15    9   23 1   
    16   10   11 1   
    17   10   24 1   
    18   10   25 1   
    19   11   12 1   
    20   11   16 1   
    21   12   13 1   
    22   12   26 1   
    23   13   28 1   
    24   14   15 1   
    25   14   29 1   
    26   15   30 1   
    27   16   27 1   
@<TRIPOS>SUBSTRUCTURE
     1 J54         1 TEMP              0 ****  ****    0 ROOT
