@<TRIPOS>MOLECULE
J54
   32    30     1     0     0
SMALL
bcc


@<TRIPOS>ATOM
      1 O02        -2.0690   -2.3530   -0.0190 o         1 J54     -0.444500
      2 C06        -1.2170   -1.6760    0.4520 c1        1 J54      0.889000
      3 C05         2.7010    1.3760    2.5540 c2        1 J54     -0.028900
      4 O18         3.5570    2.2620    3.1950 oh        1 J54     -0.614100
      5 C04         1.3870    1.3140    2.7620 c2        1 J54     -0.252000
      6 N02         5.5370    3.1590    1.1680 n         1 J54     -0.620000
      7 C03         6.6090    2.5740    1.7610 c         1 J54      0.643100
      8 O01         7.7440    2.4330    1.2870 o         1 J54     -0.501100
      9 N01         6.4460    2.0300    3.1770 n4        1 J54     -0.665800
     10 C02         6.4560    3.1410    4.1870 c3        1 J54      0.184100
     11 C01         6.5160    2.5980    5.5730 ca        1 J54     -0.190300
     12 CE1         7.6910    2.7090    6.3220 ca        1 J54     -0.100000
     13 CD1         7.7230    2.2350    7.6340 ca        1 J54     -0.118000
     14 CG          6.5890    1.6470    8.1940 ca        1 J54     -0.078000
     15 CD2         5.4150    1.5330    7.4440 ca        1 J54     -0.118000
     16 CE2         5.3760    2.0090    6.1360 ca        1 J54     -0.100000
     17 OXT        -0.3590   -0.9950    0.9250 o         1 J54     -0.444500
     18 H05         3.2820    0.7480    1.8610 h4        1 J54      0.160000
     19 H18         3.0410    2.8050    3.8090 ho        1 J54      0.439000
     20 H041        0.7580    0.5890    2.2220 ha        1 J54      0.153500
     21 H042        0.8580    1.9660    3.4690 ha        1 J54      0.153500
     22 H02         5.6620    3.5020    0.2390 hn        1 J54      0.369000
     23 H01         7.2420    1.4020    3.3530 hn        1 J54      0.471800
     24 H021        5.5080    3.7340    4.0340 hx        1 J54      0.106700
     25 H022        7.3480    3.7970    3.9680 hx        1 J54      0.106700
     26 HE1         8.5880    3.1790    5.8880 ha        1 J54      0.138500
     27 HE2         4.4490    1.9310    5.5470 ha        1 J54      0.138500
     28 HD1         8.6470    2.3290    8.2270 ha        1 J54      0.159500
     29 HG          6.6170    1.2750    9.2310 ha        1 J54      0.161000
     30 HD2         4.5200    1.0720    7.8900 ha        1 J54      0.159500
     31 H023        4.6330    3.1840    1.5850 hn        1 J54      0.369000
     32 H012        5.5710    1.4980    3.2760 hn        1 J54      0.471800
@<TRIPOS>BOND
     1    1    2 2   
     2    2   17 2   
     3    3    4 1   
     4    3    5 2   
     5    3   18 1   
     6    4   19 1   
     7    5   20 1   
     8    5   21 1   
     9    6    7 1   
    10    6   22 1   
    11    6   31 1   
    12    7    8 2   
    13    7    9 1   
    14    9   10 1   
    15    9   23 1   
    16    9   32 1   
    17   10   11 1   
    18   10   24 1   
    19   10   25 1   
    20   11   12 ar  
    21   11   16 ar  
    22   12   13 ar  
    23   12   26 1   
    24   13   14 ar  
    25   13   28 1   
    26   14   15 ar  
    27   14   29 1   
    28   15   16 ar  
    29   15   30 1   
    30   16   27 1   
@<TRIPOS>SUBSTRUCTURE
     1 J54         1 TEMP              0 ****  ****    0 ROOT
