@<TRIPOS>MOLECULE
J54
   32    30     1     0     0
SMALL
bcc


@<TRIPOS>ATOM
      1 O02         1.0130    0.3420   -1.9530 o         1 J54     -0.451000
      2 C06         1.7520    0.6320   -1.0770 c1        1 J54      0.904000
      3 C05         2.0390    0.8430    3.2290 c2        1 J54     -0.018900
      4 O18         3.0460    1.6550    3.7280 oh        1 J54     -0.607100
      5 C04         0.8690    0.6410    3.8350 c2        1 J54     -0.261000
      6 N02         4.6950    2.0820    1.2600 n         1 J54     -0.597000
      7 C03         5.8200    1.5440    1.8010 c         1 J54      0.637100
      8 O01         6.8360    1.1630    1.2060 o         1 J54     -0.503100
      9 N01         5.9130    1.4430    3.3220 n4        1 J54     -0.666800
     10 C02         6.0290    2.7960    3.9590 c3        1 J54      0.181100
     11 C01         6.3900    2.6790    5.3990 ca        1 J54     -0.188300
     12 CE1         7.6770    3.0170    5.8310 ca        1 J54     -0.101000
     13 CD1         7.9940    2.9430    7.1880 ca        1 J54     -0.117500
     14 CG          7.0330    2.5270    8.1100 ca        1 J54     -0.078000
     15 CD2         5.7490    2.1860    7.6790 ca        1 J54     -0.117500
     16 CE2         5.4260    2.2620    6.3270 ca        1 J54     -0.101000
     17 OXT         2.4980    0.9240   -0.1870 o         1 J54     -0.451000
     18 H05         2.3630    0.4060    2.2700 h4        1 J54      0.167000
     19 H18         2.7040    2.1440    4.4900 ho        1 J54      0.438000
     20 H041        0.1080   -0.0200    3.4000 ha        1 J54      0.146000
     21 H042        0.5930    1.1150    4.7860 ha        1 J54      0.146000
     22 H02         4.6010    2.0150    0.2650 hn        1 J54      0.365000
     23 H01         5.0890    0.9610    3.7060 hn        1 J54      0.470300
     24 H021        5.0280    3.3060    3.8410 hx        1 J54      0.108200
     25 H022        6.8110    3.3790    3.3910 hx        1 J54      0.108200
     26 HE1         8.4380    3.3530    5.1090 ha        1 J54      0.135500
     27 HE2         4.4110    2.0060    5.9860 ha        1 J54      0.135500
     28 HD1         9.0050    3.2170    7.5290 ha        1 J54      0.159500
     29 HG          7.2860    2.4710    9.1820 ha        1 J54      0.161000
     30 HD2         4.9910    1.8610    8.4090 ha        1 J54      0.159500
     31 H023        3.8640    2.2240    1.7920 hn        1 J54      0.365000
     32 H012        6.7550    0.8900    3.5360 hn        1 J54      0.470300
@<TRIPOS>BOND
     1    1    2 2   
     2    2   17 2   
     3    3    4 1   
     4    3    5 2   
     5    3   18 1   
     6    4   19 1   
     7    5   20 1   
     8    5   21 1   
     9    6    7 1   
    10    6   22 1   
    11    6   31 1   
    12    7    8 2   
    13    7    9 1   
    14    9   10 1   
    15    9   23 1   
    16    9   32 1   
    17   10   11 1   
    18   10   24 1   
    19   10   25 1   
    20   11   12 ar  
    21   11   16 ar  
    22   12   13 ar  
    23   12   26 1   
    24   13   14 ar  
    25   13   28 1   
    26   14   15 ar  
    27   14   29 1   
    28   15   16 ar  
    29   15   30 1   
    30   16   27 1   
@<TRIPOS>SUBSTRUCTURE
     1 J54         1 TEMP              0 ****  ****    0 ROOT
