@<TRIPOS>MOLECULE
J5I
   21    22     1     0     0
SMALL
bcc


@<TRIPOS>ATOM
      1 C01        -0.0060   -0.0190    0.0060 c3        1 J5I     -0.046900
      2 C05         1.4710   -0.0180    0.0400 cc        1 J5I     -0.167400
      3 C06         2.1980   -0.0040    1.1820 cd        1 J5I     -0.045200
      4 C08         3.6390   -0.0030    1.1520 ca        1 J5I     -0.129800
      5 C09         4.4040    0.0110    2.3300 ca        1 J5I     -0.073000
      6 C11         5.7870    0.0110    2.2740 ca        1 J5I     -0.167000
      7 C13         6.4380   -0.0030    1.0320 ca        1 J5I     -0.080000
      8 C15         5.7160   -0.0180   -0.1480 ca        1 J5I     -0.184000
      9 C17         4.2970   -0.0180   -0.1100 ca        1 J5I      0.092600
     10 N18         3.5470   -0.0320   -1.2790 ns        1 J5I     -0.443100
     11 C20         2.1470   -0.0330   -1.2750 c         1 J5I      0.694700
     12 O21         1.5570   -0.0450   -2.3720 o         1 J5I     -0.634500
     13 H011       -0.3760    0.8750   -0.5570 hc        1 J5I      0.053700
     14 H012       -0.4350   -0.0010    1.0370 hc        1 J5I      0.053700
     15 H013       -0.3740   -0.9320   -0.5260 hc        1 J5I      0.053700
     16 H06         1.7080    0.0080    2.1690 ha        1 J5I      0.141000
     17 H09         3.8860    0.0220    3.3010 ha        1 J5I      0.136000
     18 H11         6.3800    0.0220    3.2000 ha        1 J5I      0.138000
     19 H13         7.5390   -0.0030    0.9970 ha        1 J5I      0.136000
     20 H15         6.2410   -0.0290   -1.1150 ha        1 J5I      0.139000
     21 H18         4.0210   -0.0420   -2.1560 hn        1 J5I      0.332500
@<TRIPOS>BOND
     1    1    2 1   
     2    1   13 1   
     3    1   14 1   
     4    1   15 1   
     5    2    3 2   
     6    2   11 1   
     7    3    4 1   
     8    3   16 1   
     9    4    5 ar  
    10    4    9 ar  
    11    5    6 ar  
    12    5   17 1   
    13    6    7 ar  
    14    6   18 1   
    15    7    8 ar  
    16    7   19 1   
    17    8    9 ar  
    18    8   20 1   
    19    9   10 1   
    20   10   11 1   
    21   10   21 1   
    22   11   12 2   
@<TRIPOS>SUBSTRUCTURE
     1 J5I         1 TEMP              0 ****  ****    0 ROOT
