@<TRIPOS>MOLECULE
J5Y
   77    75     1     0     0
SMALL
bcc


@<TRIPOS>ATOM
      1 C           0.8560    0.0340   -0.0490 c3        1 J5Y     -0.193000
      2 F          -4.0720   -1.3720   -8.1910 f         1 J5Y     -0.065000
      3 N           2.3200   -0.4700   -2.5330 nh        1 J5Y     -0.056000
      4 O          -3.0350   -1.5900  -11.6370 o         1 J5Y     -0.348000
      5 CL          5.6810    3.2580   -1.5140 cl        1 J5Y      0.034000
      6 C1          2.0500    0.8220   -0.4310 ca        1 J5Y     -0.043000
      7 N1          0.0450   -2.3570   -6.0630 n2        1 J5Y     -0.182000
      8 C2          2.5160    1.8360    0.4150 ca        1 J5Y     -0.110000
      9 N2         -3.4770    0.4040  -10.6080 n         1 J5Y     -0.393000
     10 C3          3.6360    2.5940    0.0900 ca        1 J5Y     -0.087000
     11 N3          1.7980    1.2390  -12.8650 n2        1 J5Y     -0.126000
     12 C4          4.3170    2.3430   -1.1070 ca        1 J5Y     -0.060000
     13 C5          3.8810    1.3380   -1.9730 ca        1 J5Y     -0.108000
     14 N5         -3.6520    1.3970   -7.1540 n2        1 J5Y     -0.226000
     15 C6          2.7450    0.5780   -1.6360 ca        1 J5Y     -0.066000
     16 C7          3.0840   -1.7040   -2.4250 c3        1 J5Y     -0.113000
     17 C8          0.6560   -2.4540   -4.9780 c1        1 J5Y     -0.118000
     18 C9          0.5060    0.8620   -3.5610 c3        1 J5Y     -0.252000
     19 C10         1.3350   -0.3480   -3.3900 c2        1 J5Y     -0.053000
     20 C11        -0.6070   -2.0370   -7.1280 c2        1 J5Y      0.176000
     21 C12         0.1280   -1.8470   -8.4330 c3        1 J5Y     -0.141000
     22 C13        -0.7060   -1.3930   -9.5760 c2        1 J5Y      0.016000
     23 C14        -2.0460   -1.2360   -9.4860 c2        1 J5Y     -0.167000
     24 C15        -2.8750   -0.8230  -10.6680 c2        1 J5Y      0.340000
     25 C16        -2.2020    3.0370  -13.9320 c2        1 J5Y     -0.268000
     26 C17        -1.1020    2.3630  -13.5570 c2        1 J5Y     -0.027000
     27 C18        -0.0490    1.9110  -14.4450 c2        1 J5Y     -0.177000
     28 C19         1.3550    2.0970  -13.9300 c3        1 J5Y     -0.025000
     29 C20         1.1420    0.7860  -11.9240 c1        1 J5Y      0.017000
     30 C21         0.6320    0.2340  -10.8420 c2        1 J5Y     -0.252000
     31 C22         0.0600   -1.1360  -10.8330 c3        1 J5Y     -0.090000
     32 C23        -1.7770    0.8080  -17.5300 c1        1 J5Y      0.270000
     33 C24        -1.5160    1.1020  -16.2700 c2        1 J5Y     -0.488000
     34 C25        -0.2400    1.3510  -15.6580 c2        1 J5Y      0.009000
     35 C26        -3.2300    3.4580  -12.9780 c2        1 J5Y      0.231000
     36 C27        -5.6080    0.5690  -17.8050 c1        1 J5Y     -0.031000
     37 C28        -3.6310    3.5630   -8.4870 c2        1 J5Y     -0.271000
     38 C29        -3.7220    2.4550   -7.7980 c1        1 J5Y     -0.023000
     39 C30        -7.9210   -0.0720  -18.3310 c1        1 J5Y      0.309000
     40 C31        -6.6650    0.1910  -18.6500 c2        1 J5Y     -0.425000
     41 C32        -2.7330   -1.5110   -8.2290 c2        1 J5Y      0.237000
     42 C33        -2.0520   -1.8990   -7.1100 c2        1 J5Y     -0.272000
     43 H           1.1210   -1.0470    0.0700 hc        1 J5Y      0.097000
     44 HA          0.0630    0.1210   -0.8360 hc        1 J5Y      0.097000
     45 HB          0.4260    0.3950    0.9180 hc        1 J5Y      0.097000
     46 H2          1.9830    2.0350    1.3600 ha        1 J5Y      0.161000
     47 HN2        -3.1960    1.0750   -9.9350 hn        1 J5Y      0.235500
     48 H3          3.9860    3.3860    0.7730 ha        1 J5Y      0.171000
     49 HN3         1.4760    3.1660  -13.5830 h1        1 J5Y      0.120500
     50 HN4        -3.9620    4.2040  -13.3630 h4        1 J5Y      0.106000
     51 H5          4.4300    1.1480   -2.9090 ha        1 J5Y      0.160000
     52 H7          0.9170   -3.4600   -4.5900 ha        1 J5Y      0.131000
     53 H7A         4.1670   -1.4820   -2.6210 h1        1 J5Y      0.119667
     54 H8          2.7100   -2.4570   -3.1690 h1        1 J5Y      0.119667
     55 H8A         2.9720   -2.1120   -1.3850 h1        1 J5Y      0.119667
     56 H9         -0.5670    0.5790   -3.3970 hc        1 J5Y      0.128333
     57 H9A         1.0280   -1.3390   -4.1650 h4        1 J5Y      0.320000
     58 H10         0.7620    1.7070   -2.8740 hc        1 J5Y      0.128333
     59 H10A        0.6120    1.2170   -4.6200 hc        1 J5Y      0.128333
     60 H12         0.6080   -2.8290   -8.7230 hc        1 J5Y      0.145000
     61 H13         0.9650   -1.1010   -8.2940 hc        1 J5Y      0.145000
     62 H16        -3.9390    0.7500  -11.4180 hn        1 J5Y      0.235500
     63 H17        -0.9460    2.1300  -12.4840 ha        1 J5Y      0.137000
     64 H17A       -2.3800    3.3250  -14.9820 ha        1 J5Y      0.154000
     65 H19         2.0940    1.9230  -14.7680 h1        1 J5Y      0.120500
     66 H21         0.6400    1.0280  -16.2470 ha        1 J5Y      0.136000
     67 H22         0.6370    0.7990   -9.8980 ha        1 J5Y      0.151000
     68 H23         0.8900   -1.8920  -10.9210 hc        1 J5Y      0.123000
     69 H24        -2.4100    1.1490  -15.5990 ha        1 J5Y      0.217000
     70 H28        -3.5940    3.5560   -9.5880 ha        1 J5Y      0.167500
     71 H29        -3.5860    4.5450   -7.9980 ha        1 J5Y      0.167500
     72 H30        -4.5060    0.9480   -6.8890 hn        1 J5Y      0.184000
     73 H31        -6.3940    0.1040  -19.7320 ha        1 J5Y      0.226000
     74 H33        -2.5980   -2.0980   -6.1740 ha        1 J5Y      0.171000
     75 N4         -4.7250    0.8810  -17.1140 n1        1 J5Y     -0.079000
     76 O1         -3.3140    3.0270  -11.8190 o         1 J5Y     -0.349000
     77 H221       -0.6150   -1.2880  -11.7240 hc        1 J5Y      0.123000
@<TRIPOS>BOND
     1    1    6 1   
     2    1   43 1   
     3    1   44 1   
     4    1   45 1   
     5    2   41 1   
     6    3   15 1   
     7    3   16 1   
     8    3   19 1   
     9    4   24 1   
    10    5   12 1   
    11    6    8 1   
    12    6   15 1   
    13    7   17 1   
    14    7   20 1   
    15    8   10 1   
    16    8   46 1   
    17    9   24 1   
    18    9   47 1   
    19    9   62 1   
    20   10   12 1   
    21   10   48 1   
    22   11   28 1   
    23   11   29 1   
    24   12   13 1   
    25   13   15 1   
    26   13   51 1   
    27   14   38 1   
    28   14   72 1   
    29   16   53 1   
    30   16   54 1   
    31   16   55 1   
    32   17   52 1   
    33   18   19 1   
    34   18   56 1   
    35   18   58 1   
    36   18   59 1   
    37   19   57 1   
    38   20   21 1   
    39   20   42 1   
    40   21   22 1   
    41   21   60 1   
    42   21   61 1   
    43   22   23 1   
    44   22   31 1   
    45   23   24 1   
    46   23   41 1   
    47   25   26 1   
    48   25   35 1   
    49   25   64 1   
    50   26   27 1   
    51   26   63 1   
    52   27   28 1   
    53   27   34 1   
    54   28   49 1   
    55   28   65 1   
    56   29   30 1   
    57   30   31 1   
    58   30   67 1   
    59   31   68 1   
    60   31   77 1   
    61   32   33 1   
    62   33   34 1   
    63   33   69 1   
    64   34   66 1   
    65   35   50 1   
    66   35   76 1   
    67   36   40 1   
    68   36   75 1   
    69   37   38 1   
    70   37   70 1   
    71   37   71 1   
    72   39   40 1   
    73   40   73 1   
    74   41   42 1   
    75   42   74 1   
@<TRIPOS>SUBSTRUCTURE
     1 J5Y         1 TEMP              0 ****  ****    0 ROOT
