@<TRIPOS>MOLECULE
J5Z
   31    33     1     0     0
SMALL
bcc


@<TRIPOS>ATOM
      1 C1          1.5580    0.6550    1.6100 ca        1 J5Z     -0.182500
      2 N1         -0.8350    0.3170    1.4820 nh        1 J5Z     -0.626000
      3 C2          0.4000    0.4330    0.8220 ca        1 J5Z      0.182600
      4 N2         -2.9080   -0.9220    1.1420 na        1 J5Z     -0.025800
      5 C3          0.5360    0.3740   -0.5820 ca        1 J5Z     -0.182500
      6 N3         -2.7870   -1.8600    2.0950 nc        1 J5Z     -0.596100
      7 C4          1.7810    0.5540   -1.1750 ca        1 J5Z     -0.046000
      8 N4         -4.8560   -2.1190    1.0450 nd        1 J5Z     -0.355300
      9 N5         -4.5960   -0.2030   -0.5550 nc        1 J5Z     -0.633000
     10 C8          4.2630    1.0060   -1.0450 c3        1 J5Z      0.692200
     11 C9          2.9090    0.7880   -0.3880 ca        1 J5Z     -0.201300
     12 C10         2.7940    0.8330    1.0040 ca        1 J5Z     -0.046000
     13 C11        -2.0400    0.1220    0.7850 cc        1 J5Z      0.272300
     14 C12        -2.4750    0.9760   -0.2310 cd        1 J5Z     -0.339300
     15 C13        -3.7460    0.7700   -0.8720 cd        1 J5Z      0.482600
     16 C14        -4.0970    1.7410   -1.9560 c3        1 J5Z     -0.159400
     17 C15        -4.2100   -1.0530    0.4660 cc        1 J5Z      0.416500
     18 C16        -3.9570   -2.5650    2.0160 cd        1 J5Z      0.533200
     19 F22         5.3370    0.6020   -0.2890 f         1 J5Z     -0.236967
     20 F23         4.4290    0.3520   -2.2430 f         1 J5Z     -0.236967
     21 F24         4.5400    2.3190   -1.3420 f         1 J5Z     -0.236967
     22 H1          1.4880    0.6910    2.7080 ha        1 J5Z      0.151000
     23 HN1        -0.7830   -0.0760    2.4020 hn        1 J5Z      0.456800
     24 H3         -0.3370    0.1730   -1.2230 ha        1 J5Z      0.151000
     25 H4          1.8780    0.5010   -2.2720 ha        1 J5Z      0.155500
     26 H10         3.6900    1.0050    1.6220 ha        1 J5Z      0.155500
     27 H12        -1.8540    1.8280   -0.5400 ha        1 J5Z      0.173000
     28 H14        -3.3140    1.6980   -2.7530 hc        1 J5Z      0.066033
     29 H14A       -5.0910    1.5220   -2.4180 hc        1 J5Z      0.066033
     30 H14B       -4.1200    2.7730   -1.5270 hc        1 J5Z      0.066033
     31 H16        -4.1810   -3.4220    2.6630 h5        1 J5Z      0.083800
@<TRIPOS>BOND
     1    1    3 ar  
     2    1   12 ar  
     3    1   22 1   
     4    2    3 1   
     5    2   13 1   
     6    2   23 1   
     7    3    5 ar  
     8    4    6 1   
     9    4   13 1   
    10    4   17 1   
    11    5    7 ar  
    12    5   24 1   
    13    6   18 2   
    14    7   11 ar  
    15    7   25 1   
    16    8   17 2   
    17    8   18 1   
    18    9   15 2   
    19    9   17 1   
    20   10   11 1   
    21   10   19 1   
    22   10   20 1   
    23   10   21 1   
    24   11   12 ar  
    25   12   26 1   
    26   13   14 2   
    27   14   15 1   
    28   14   27 1   
    29   15   16 1   
    30   16   28 1   
    31   16   29 1   
    32   16   30 1   
    33   18   31 1   
@<TRIPOS>SUBSTRUCTURE
     1 J5Z         1 TEMP              0 ****  ****    0 ROOT
