@<TRIPOS>MOLECULE
J5Z
   31    33     1     0     0
SMALL
bcc


@<TRIPOS>ATOM
      1 C1          0.0330   -0.6550    0.3540 ca        1 J5Z     -0.182500
      2 N1          2.1150   -1.0020   -0.8300 nu        1 J5Z     -0.626000
      3 C2          1.4340   -0.4530    0.2690 ca        1 J5Z      0.182600
      4 N2          4.3260   -1.9450   -1.2410 na        1 J5Z     -0.025800
      5 C3          2.0700    0.3150    1.2690 ca        1 J5Z     -0.182500
      6 N3          4.0220   -3.2510   -1.3110 nc        1 J5Z     -0.596100
      7 C4          1.3270    0.8790    2.3000 ca        1 J5Z     -0.046000
      8 N4          6.2990   -2.9860   -1.7530 nd        1 J5Z     -0.355300
      9 N5          6.3360   -0.4880   -1.5280 nc        1 J5Z     -0.633000
     10 C8         -0.8620    1.3230    3.4810 c3        1 J5Z      0.692200
     11 C9         -0.0530    0.6850    2.3620 ca        1 J5Z     -0.201300
     12 C10        -0.6950   -0.0860    1.3900 ca        1 J5Z     -0.046000
     13 C11         3.4990   -0.8340   -1.0120 cc        1 J5Z      0.272300
     14 C12         4.1140    0.4190   -1.0490 cd        1 J5Z     -0.338300
     15 C13         5.5240    0.5410   -1.2990 cd        1 J5Z      0.482600
     16 C14         6.0710    1.9350   -1.3000 c3        1 J5Z     -0.159400
     17 C15         5.7580   -1.7440   -1.5260 cc        1 J5Z      0.416500
     18 C16         5.2130   -3.8530   -1.6120 cd        1 J5Z      0.533200
     19 F22        -1.9880    0.6230    3.8430 f         1 J5Z     -0.236967
     20 F23        -0.1750    1.4890    4.6590 f         1 J5Z     -0.236967
     21 F24        -1.3320    2.5820    3.1890 f         1 J5Z     -0.236967
     22 H1         -0.4910   -1.2620   -0.4010 ha        1 J5Z      0.151000
     23 HN1         1.7170   -1.8480   -1.1900 hn        1 J5Z      0.455800
     24 H3          3.1600    0.4680    1.2520 ha        1 J5Z      0.151000
     25 H4          1.8330    1.4730    3.0790 ha        1 J5Z      0.155500
     26 H10        -1.7840   -0.2470    1.4490 ha        1 J5Z      0.155500
     27 H12         3.5170    1.3310   -0.9010 ha        1 J5Z      0.173000
     28 H14         5.8690    2.4080   -0.3070 hc        1 J5Z      0.066033
     29 H14A        5.5530    2.5280   -2.0950 hc        1 J5Z      0.066033
     30 H14B        7.1710    1.9610   -1.4930 hc        1 J5Z      0.066033
     31 H16         5.3180   -4.9390   -1.7330 h5        1 J5Z      0.083800
@<TRIPOS>BOND
     1    1    3 ar  
     2    1   12 ar  
     3    1   22 1   
     4    2    3 1   
     5    2   13 1   
     6    2   23 1   
     7    3    5 ar  
     8    4    6 1   
     9    4   13 1   
    10    4   17 1   
    11    5    7 ar  
    12    5   24 1   
    13    6   18 2   
    14    7   11 ar  
    15    7   25 1   
    16    8   17 2   
    17    8   18 1   
    18    9   15 2   
    19    9   17 1   
    20   10   11 1   
    21   10   19 1   
    22   10   20 1   
    23   10   21 1   
    24   11   12 ar  
    25   12   26 1   
    26   13   14 2   
    27   14   15 1   
    28   14   27 1   
    29   15   16 1   
    30   16   28 1   
    31   16   29 1   
    32   16   30 1   
    33   18   31 1   
@<TRIPOS>SUBSTRUCTURE
     1 J5Z         1 TEMP              0 ****  ****    0 ROOT
