@<TRIPOS>MOLECULE
J5Z
   31    33     1     0     0
SMALL
bcc


@<TRIPOS>ATOM
      1 C1          0.0270   -0.6150    0.3740 ca        1 J5Z     -0.182500
      2 N1          2.0910   -0.9730   -0.8390 nh        1 J5Z     -0.626000
      3 C2          1.4310   -0.4340    0.2780 ca        1 J5Z      0.182600
      4 N2          4.2820   -1.9410   -1.2940 na        1 J5Z     -0.025800
      5 C3          2.0890    0.3030    1.2860 ca        1 J5Z     -0.182500
      6 N3          3.9570   -3.2410   -1.3870 nc        1 J5Z     -0.596100
      7 C4          1.3660    0.8590    2.3360 ca        1 J5Z     -0.046000
      8 N4          6.2320   -3.0020   -1.8490 nd        1 J5Z     -0.355300
      9 N5          6.3110   -0.5100   -1.5740 nc        1 J5Z     -0.633000
     10 C8         -0.8030    1.3160    3.5480 c3        1 J5Z      0.692200
     11 C9         -0.0170    0.6860    2.4080 ca        1 J5Z     -0.201300
     12 C10        -0.6810   -0.0550    1.4280 ca        1 J5Z     -0.046000
     13 C11         3.4750   -0.8230   -1.0320 cc        1 J5Z      0.272300
     14 C12         4.1090    0.4210   -1.0510 cd        1 J5Z     -0.339300
     15 C13         5.5180    0.5270   -1.3150 cd        1 J5Z      0.482600
     16 C14         6.0870    1.9120   -1.2940 c3        1 J5Z     -0.159400
     17 C15         5.7140   -1.7570   -1.5910 cc        1 J5Z      0.416500
     18 C16         5.1350   -3.8550   -1.7140 cd        1 J5Z      0.533200
     19 F22        -1.9370    0.6280    3.9080 f         1 J5Z     -0.236967
     20 F23        -0.1020    1.4480    4.7220 f         1 J5Z     -0.236967
     21 F24        -1.2550    2.5870    3.2850 f         1 J5Z     -0.236967
     22 H1         -0.5140   -1.1980   -0.3880 ha        1 J5Z      0.151000
     23 HN1         1.6760   -1.8050   -1.2100 hn        1 J5Z      0.455800
     24 H3          3.1820    0.4390    1.2600 ha        1 J5Z      0.151000
     25 H4          1.8890    1.4300    3.1210 ha        1 J5Z      0.155500
     26 H10        -1.7720   -0.1990    1.4960 ha        1 J5Z      0.155500
     27 H12         3.5290    1.3390   -0.8790 ha        1 J5Z      0.173000
     28 H14         7.1850    1.9250   -1.4990 hc        1 J5Z      0.066033
     29 H14A        5.9030    2.3670   -0.2900 hc        1 J5Z      0.066033
     30 H14B        5.5700    2.5290   -2.0710 hc        1 J5Z      0.066033
     31 H16         5.2210   -4.9390   -1.8580 h5        1 J5Z      0.083800
@<TRIPOS>BOND
     1    1    3 ar  
     2    1   12 ar  
     3    1   22 1   
     4    2    3 1   
     5    2   13 1   
     6    2   23 1   
     7    3    5 ar  
     8    4    6 1   
     9    4   13 1   
    10    4   17 1   
    11    5    7 ar  
    12    5   24 1   
    13    6   18 2   
    14    7   11 ar  
    15    7   25 1   
    16    8   17 2   
    17    8   18 1   
    18    9   15 2   
    19    9   17 1   
    20   10   11 1   
    21   10   19 1   
    22   10   20 1   
    23   10   21 1   
    24   11   12 ar  
    25   12   26 1   
    26   13   14 2   
    27   14   15 1   
    28   14   27 1   
    29   15   16 1   
    30   16   28 1   
    31   16   29 1   
    32   16   30 1   
    33   18   31 1   
@<TRIPOS>SUBSTRUCTURE
     1 J5Z         1 TEMP              0 ****  ****    0 ROOT
