@<TRIPOS>MOLECULE
J5Z
   32    34     1     0     0
SMALL
bcc


@<TRIPOS>ATOM
      1 C1          0.6750   -0.9620    0.4660 ca        1 J5Z     -0.097500
      2 N1          1.9600    0.0840   -1.3870 n4        1 J5Z     -0.511800
      3 C2          1.3410    0.1600   -0.0530 ca        1 J5Z     -0.035400
      4 N2          3.8000   -1.5580   -1.1700 na        1 J5Z     -0.017800
      5 C3          1.4130    1.3640    0.6710 ca        1 J5Z     -0.097500
      6 N3          3.0800   -2.6870   -1.0770 nc        1 J5Z     -0.610100
      7 C4          0.8060    1.4370    1.9220 ca        1 J5Z     -0.059500
      8 N4          5.3540   -3.2240   -0.9740 nd        1 J5Z     -0.295300
      9 N5          6.2050   -0.8670   -1.1980 nc        1 J5Z     -0.562000
     10 C8         -0.5020    0.4100    3.8340 c3        1 J5Z      0.688200
     11 C9          0.1430    0.3230    2.4440 ca        1 J5Z     -0.114300
     12 C10         0.0750   -0.8690    1.7230 ca        1 J5Z     -0.059500
     13 C11         3.4050   -0.2390   -1.3240 cc        1 J5Z      0.096300
     14 C12         4.3720    0.7480   -1.4130 cd        1 J5Z     -0.247300
     15 C13         5.7750    0.3790   -1.3460 cd        1 J5Z      0.484600
     16 C14         6.7510    1.5080   -1.4520 c3        1 J5Z     -0.171400
     17 C15         5.2560   -1.8680   -1.1110 cc        1 J5Z      0.433500
     18 C16         4.0290   -3.6690   -0.9600 cd        1 J5Z      0.582200
     19 F22        -1.5840   -0.4160    3.9940 f         1 J5Z     -0.213633
     20 F23         0.3570    0.0740    4.8490 f         1 J5Z     -0.213633
     21 F24        -0.9580    1.6630    4.1520 f         1 J5Z     -0.213633
     22 H1          0.6180   -1.9150   -0.0880 ha        1 J5Z      0.171000
     23 HN1         1.4660   -0.6350   -1.9430 hn        1 J5Z      0.479300
     24 H3          1.9350    2.2490    0.2730 ha        1 J5Z      0.171000
     25 H4          0.8460    2.3780    2.5010 ha        1 J5Z      0.191000
     26 H10        -0.4580   -1.7420    2.1420 ha        1 J5Z      0.191000
     27 H12         4.1190    1.8120   -1.5340 ha        1 J5Z      0.181000
     28 H14         6.6060    2.0290   -2.4320 hc        1 J5Z      0.086367
     29 H14A        6.5670    2.2340   -0.6210 hc        1 J5Z      0.086367
     30 H14B        7.8130    1.1570   -1.3900 hc        1 J5Z      0.086367
     31 H16         3.7780   -4.7380   -0.8610 h5        1 J5Z      0.113800
     32 H121        1.8600    0.9960   -1.8550 hn        1 J5Z      0.479300
@<TRIPOS>BOND
     1    1    3 ar  
     2    1   12 ar  
     3    1   22 1   
     4    2    3 1   
     5    2   13 1   
     6    2   23 1   
     7    2   32 1   
     8    3    5 ar  
     9    4    6 1   
    10    4   13 1   
    11    4   17 1   
    12    5    7 ar  
    13    5   24 1   
    14    6   18 2   
    15    7   11 ar  
    16    7   25 1   
    17    8   17 2   
    18    8   18 1   
    19    9   15 2   
    20    9   17 1   
    21   10   11 1   
    22   10   19 1   
    23   10   20 1   
    24   10   21 1   
    25   11   12 ar  
    26   12   26 1   
    27   13   14 2   
    28   14   15 1   
    29   14   27 1   
    30   15   16 1   
    31   16   28 1   
    32   16   29 1   
    33   16   30 1   
    34   18   31 1   
@<TRIPOS>SUBSTRUCTURE
     1 J5Z         1 TEMP              0 ****  ****    0 ROOT
