@<TRIPOS>MOLECULE
J60
   56    58     1     0     0
SMALL
bcc


@<TRIPOS>ATOM
      1 CBA         2.2830  -14.0970   -9.8730 c3        1 J60     -0.094600
      2 CAZ         1.8200  -12.7550   -9.3270 c3        1 J60      0.177300
      3 NAX         0.7550  -12.8550   -8.3380 n3        1 J60     -0.744600
      4 CAY        -0.5410  -13.1680   -8.9240 c3        1 J60      0.177300
      5 CBB        -1.5120  -13.8230   -7.9530 c3        1 J60     -0.094600
      6 CAW         0.7170  -11.7140   -7.4370 c3        1 J60      0.149800
      7 CAV         1.7080  -11.8820   -6.2560 c3        1 J60      0.085000
      8 NAU         1.7920  -10.7220   -5.4160 n         1 J60     -0.567900
      9 CAS         1.1210  -10.6230   -4.2090 c         1 J60      0.702700
     10 OAT         0.5300  -11.6110   -3.7230 o         1 J60     -0.617100
     11 CAN         1.1980   -9.3310   -3.5100 cc        1 J60     -0.239600
     12 CAM         1.1430   -8.0160   -4.0650 cc        1 J60     -0.055300
     13 CAQ         0.9750   -7.6590   -5.4750 c3        1 J60     -0.044800
     14 CAO         1.3250   -9.1930   -2.0990 cd        1 J60      0.003400
     15 CAR         1.4150  -10.2610   -1.0850 c3        1 J60     -0.062800
     16 NAP         1.3660   -7.8490   -1.7990 na        1 J60     -0.135100
     17 CAL         1.2550   -7.1000   -2.9780 cd        1 J60     -0.153100
     18 CAK         1.2560   -5.6770   -3.0920 cf        1 J60      0.054800
     19 CAG         1.3650   -4.6980   -2.1730 cc        1 J60     -0.171400
     20 CAE         1.3450   -3.2640   -2.5000 ca        1 J60     -0.091800
     21 CAD         1.2220   -2.5920   -3.7000 ca        1 J60     -0.078000
     22 CAA         1.2390   -1.1860   -3.6820 ca        1 J60     -0.013600
     23 CL          1.0890   -0.3440   -5.1530 cl        1 J60     -0.094400
     24 CAB         1.3750   -0.4710   -2.4920 ca        1 J60     -0.090000
     25 CAC         1.5000   -1.1350   -1.2660 ca        1 J60     -0.157000
     26 CAF         1.4860   -2.5270   -1.2690 ca        1 J60      0.057600
     27 NAH         1.5930   -3.4280   -0.2000 n         1 J60     -0.472100
     28 CAI         1.5260   -4.7540   -0.6810 c         1 J60      0.724700
     29 OAJ         1.5980   -5.7270    0.0860 o         1 J60     -0.644500
     30 HBA1        2.5700  -14.7890   -9.0460 hc        1 J60      0.039533
     31 HBA2        1.4870  -14.5880  -10.4820 hc        1 J60      0.039533
     32 HBA3        3.1730  -13.9290  -10.5260 hc        1 J60      0.039533
     33 HAZ1        1.5120  -12.1000  -10.1960 h1        1 J60      0.026950
     34 HAZ2        2.7060  -12.2580   -8.8360 h1        1 J60      0.026950
     35 HAY1       -1.0300  -12.2440   -9.3540 h1        1 J60      0.026950
     36 HAY2       -0.3710  -13.8830   -9.7800 h1        1 J60      0.026950
     37 HAW1       -0.3200  -11.6140   -7.0080 h1        1 J60      0.032700
     38 HAW2        0.9470  -10.7510   -7.9810 h1        1 J60      0.032700
     39 HBB1       -1.0700  -14.7470   -7.5070 hc        1 J60      0.039533
     40 HBB2       -1.7930  -13.1330   -7.1220 hc        1 J60      0.039533
     41 HBB3       -2.4390  -14.1020   -8.5110 hc        1 J60      0.039533
     42 HAV1        2.7400  -12.0930   -6.6560 h1        1 J60      0.069200
     43 HAV2        1.3820  -12.7640   -5.6320 h1        1 J60      0.069200
     44 HAU         2.1690   -9.8960   -5.8170 hn        1 J60      0.304500
     45 HAQ1        0.3520   -8.4220   -6.0080 hc        1 J60      0.049033
     46 HAQ2        0.4630   -6.6700   -5.5870 hc        1 J60      0.049033
     47 HAQ3        1.9710   -7.5930   -5.9840 hc        1 J60      0.049033
     48 HAR1        2.4650  -10.3510   -0.7080 hc        1 J60      0.071033
     49 HAR2        0.7430  -10.0510   -0.2150 hc        1 J60      0.071033
     50 HAR3        1.1090  -11.2360   -1.5460 hc        1 J60      0.071033
     51 HAP         1.4510   -7.4660   -0.8840 hn        1 J60      0.338700
     52 HAK         1.1500   -5.3410   -4.1470 ha        1 J60      0.142000
     53 HAD         1.1130   -3.1360   -4.6490 ha        1 J60      0.148000
     54 HAB         1.3840    0.6300   -2.5070 ha        1 J60      0.150000
     55 HAC         1.6070   -0.5630   -0.3350 ha        1 J60      0.146000
     56 HAH         1.6940   -3.1730    0.7470 hn        1 J60      0.345500
@<TRIPOS>BOND
     1    1    2 1   
     2    1   30 1   
     3    1   31 1   
     4    1   32 1   
     5    2    3 1   
     6    2   33 1   
     7    2   34 1   
     8    3    4 1   
     9    3    6 1   
    10    4    5 1   
    11    4   35 1   
    12    4   36 1   
    13    5   39 1   
    14    5   40 1   
    15    5   41 1   
    16    6    7 1   
    17    6   37 1   
    18    6   38 1   
    19    7    8 1   
    20    7   42 1   
    21    7   43 1   
    22    8    9 1   
    23    8   44 1   
    24    9   10 2   
    25    9   11 1   
    26   11   12 1   
    27   11   14 2   
    28   12   13 1   
    29   12   17 2   
    30   13   45 1   
    31   13   46 1   
    32   13   47 1   
    33   14   15 1   
    34   14   16 1   
    35   15   48 1   
    36   15   49 1   
    37   15   50 1   
    38   16   17 1   
    39   16   51 1   
    40   17   18 1   
    41   18   19 2   
    42   18   52 1   
    43   19   20 1   
    44   19   28 1   
    45   20   21 ar  
    46   20   26 ar  
    47   21   22 ar  
    48   21   53 1   
    49   22   23 1   
    50   22   24 ar  
    51   24   25 ar  
    52   24   54 1   
    53   25   26 ar  
    54   25   55 1   
    55   26   27 1   
    56   27   28 1   
    57   27   56 1   
    58   28   29 2   
@<TRIPOS>SUBSTRUCTURE
     1 J60         1 TEMP              0 ****  ****    0 ROOT
