@<TRIPOS>MOLECULE
J60
   56    51     1     0     0
SMALL
bcc


@<TRIPOS>ATOM
      1 CBA        -5.5860    3.7350   -1.4450 c3        1 J60     -0.212500
      2 CAZ        -4.7320    3.6420   -0.1850 c3        1 J60     -0.059500
      3 NAX        -5.1160    2.4770    0.5720 n3        1 J60     -0.270000
      4 CAY        -6.1070    2.8520    1.5650 c3        1 J60     -0.059500
      5 CBB        -7.3480    1.9850    1.3970 c3        1 J60     -0.212500
      6 CAW        -3.9460    1.9230    1.2380 c3        1 J60     -0.087000
      7 CAV        -3.1460    1.0600    0.2420 c3        1 J60     -0.032000
      8 NAU        -1.8710    0.6760    0.8420 n         1 J60     -0.376000
      9 CAS        -1.3480   -0.6720    0.6420 c2        1 J60      0.376000
     10 OAT        -2.1010   -1.5780    0.3390 o         1 J60     -0.377000
     11 CAN         0.1790   -0.9330    0.7410 c2        1 J60     -0.223000
     12 CAM         1.0920   -0.7360   -0.2530 c1        1 J60     -0.041000
     13 CAQ         0.7770   -0.3770   -1.6890 c2        1 J60     -0.179000
     14 CAO         0.8580   -1.3680    1.8630 c1        1 J60      0.034000
     15 CAR         0.2390   -1.6890    3.2150 c2        1 J60     -0.179000
     16 NAP         2.1880   -1.4350    1.5520 n2        1 J60     -0.135000
     17 CAL         2.3410   -1.0470    0.2480 c1        1 J60     -0.119000
     18 CAK         3.6720   -0.8690   -0.4850 c1        1 J60      0.044000
     19 CAG         4.4880   -1.9410   -0.6850 c1        1 J60     -0.165000
     20 CAE         5.8160   -1.9170   -1.3560 c1        1 J60     -0.080000
     21 CAD         6.5520   -0.8810   -1.9350 c2        1 J60     -0.078000
     22 CAA         7.7960   -1.1450   -2.5060 c1        1 J60     -0.091000
     23 CL          8.8490    0.0040   -3.2870 cl        1 J60     -0.015000
     24 CAB         8.3090   -2.4480   -2.4990 c2        1 J60     -0.091000
     25 CAC         7.5760   -3.4820   -1.9220 c1        1 J60     -0.157000
     26 CAF         6.3280   -3.2190   -1.3490 c1        1 J60      0.065000
     27 NAH         5.3320   -4.1070   -0.6690 n         1 J60     -0.326000
     28 CAI         4.2290   -3.3030   -0.2620 c2        1 J60      0.363000
     29 OAJ         3.2490   -3.6880    0.3610 o         1 J60     -0.370000
     30 HBA1       -5.8390    2.8300   -1.7370 hc        1 J60      0.078667
     31 HBA2       -5.0760    4.1750   -2.1530 hc        1 J60      0.078667
     32 HBA3       -6.3950    4.2550   -1.2530 hc        1 J60      0.078667
     33 HAZ1       -4.8680    4.4520    0.3660 h1        1 J60      0.066000
     34 HAZ2       -3.7790    3.5720   -0.4370 h1        1 J60      0.066000
     35 HAY1       -5.7390    2.7210    2.4560 h1        1 J60      0.066000
     36 HAY2       -6.3490    3.7960    1.4460 h1        1 J60      0.066000
     37 HAW1       -4.2320    1.3690    1.9930 h1        1 J60      0.072500
     38 HAW2       -3.3810    2.6530    1.5650 h1        1 J60      0.072500
     39 HBB1       -7.2330    1.1530    1.8930 hc        1 J60      0.078667
     40 HBB2       -7.4790    1.7850    0.4520 hc        1 J60      0.078667
     41 HBB3       -8.1290    2.4630    1.7400 hc        1 J60      0.078667
     42 HAV1       -2.9800    1.5760   -0.5780 h1        1 J60      0.108500
     43 HAV2       -3.6580    0.2560    0.0230 h1        1 J60      0.108500
     44 HAU        -1.4180    1.2720    1.3800 hn        1 J60      0.217000
     45 HAQ1        0.1690   -1.0410   -2.0640 ha        1 J60      0.100167
     46 HAQ2        1.6090   -0.3620   -2.2140 ha        1 J60      0.100167
     47 HAQ3        0.3570    0.5010   -1.7200 ha        1 J60      0.100167
     48 HAR1       -0.4000   -2.4210    3.1150 ha        1 J60      0.100167
     49 HAR2       -0.2220   -0.8960    3.5600 ha        1 J60      0.100167
     50 HAR3        0.9490   -1.9560    3.8450 ha        1 J60      0.100167
     51 HAP         2.8500   -1.6920    2.1100 DU        1 J60      0.288000
     52 HAK         3.9660    0.0250   -0.7520 ha        1 J60      0.143000
     53 HAD         6.1750    0.0140   -1.9850 ha        1 J60      0.149000
     54 HAB         9.1800   -2.6320   -2.8990 ha        1 J60      0.150000
     55 HAC         7.9310   -4.3820   -1.9170 ha        1 J60      0.146000
     56 HAH         5.4220   -5.0030   -0.5280 hn        1 J60      0.259000
@<TRIPOS>BOND
     1    1    2 1   
     2    1   30 1   
     3    1   31 1   
     4    1   32 1   
     5    2    3 1   
     6    2   33 1   
     7    2   34 1   
     8    3    4 1   
     9    3    6 1   
    10    4    5 1   
    11    4   35 1   
    12    4   36 1   
    13    5   39 1   
    14    5   40 1   
    15    5   41 1   
    16    6    7 1   
    17    6   37 1   
    18    6   38 1   
    19    7    8 1   
    20    7   42 1   
    21    7   43 1   
    22    8    9 1   
    23    8   44 1   
    24    9   10 1   
    25    9   11 1   
    26   11   12 1   
    27   11   14 1   
    28   12   17 1   
    29   13   45 1   
    30   13   46 1   
    31   13   47 1   
    32   14   16 1   
    33   15   48 1   
    34   15   49 1   
    35   15   50 1   
    36   16   17 1   
    37   18   19 1   
    38   18   52 1   
    39   19   28 1   
    40   20   21 1   
    41   20   26 1   
    42   21   22 1   
    43   21   53 1   
    44   22   24 1   
    45   24   25 1   
    46   24   54 1   
    47   25   55 1   
    48   26   27 1   
    49   27   28 1   
    50   27   56 1   
    51   28   29 1   
@<TRIPOS>SUBSTRUCTURE
     1 J60         1 TEMP              0 ****  ****    0 ROOT
