@<TRIPOS>MOLECULE
J60
   58    60     1     0     0
SMALL
bcc


@<TRIPOS>ATOM
      1 CBA         0.7630   -2.1160    1.3270 c3        1 J60     -0.138100
      2 CAZ         1.2730   -0.9070    0.5710 c3        1 J60      0.112300
      3 NAX         2.3240   -0.1350    1.3280 n4        1 J60     -0.703400
      4 CAY         1.6760    0.7580    2.3580 c3        1 J60      0.112300
      5 CBB         2.6130    1.1930    3.4620 c3        1 J60     -0.138100
      6 CAW         3.1710    0.6690    0.3980 c3        1 J60      0.093800
      7 CAV         4.2120   -0.1310   -0.4040 c3        1 J60      0.092800
      8 NAU         5.5980   -0.1010    0.1260 n4        1 J60     -0.690800
      9 CAS         5.8810   -1.1040    1.2620 c         1 J60      0.630700
     10 OAT         4.8590   -1.5230    1.8150 o         1 J60     -0.577100
     11 CAN         7.2410   -1.4060    1.4440 cc        1 J60     -0.328600
     12 CAM         8.4180   -0.7420    0.8990 cc        1 J60     -0.067300
     13 CAQ         8.4970    0.5550    0.2220 c3        1 J60     -0.064800
     14 CAO         7.7100   -2.5790    2.1450 cd        1 J60      0.100400
     15 CAR         6.9140   -3.5540    2.9120 c3        1 J60     -0.087800
     16 NAP         9.0640   -2.6470    1.9800 na        1 J60     -0.126100
     17 CAL         9.5170   -1.5500    1.2070 cd        1 J60     -0.025100
     18 CAK        10.9140   -1.4090    0.8500 cf        1 J60     -0.089200
     19 CAG        11.3830   -1.2650   -0.3960 cc        1 J60     -0.025400
     20 CAE        12.7870   -1.1520   -0.7970 ca        1 J60     -0.149800
     21 CAD        13.9560   -1.1070   -0.0590 ca        1 J60     -0.047000
     22 CAA        15.1770   -1.0090   -0.7480 ca        1 J60     -0.012600
     23 CL         16.6190   -0.9520    0.1380 cl        1 J60     -0.044400
     24 CAB        15.2190   -0.9600   -2.1450 ca        1 J60     -0.057000
     25 CAC        14.0460   -1.0020   -2.9080 ca        1 J60     -0.139000
     26 CAF        12.8330   -1.0960   -2.2350 ca        1 J60      0.062600
     27 NAH        11.5210   -1.1430   -2.7520 n         1 J60     -0.457100
     28 CAI        10.6000   -1.2370   -1.7030 c         1 J60      0.706700
     29 OAJ         9.3680   -1.2640   -1.8540 o         1 J60     -0.650500
     30 HBA1        1.5860   -2.8300    1.5770 hc        1 J60      0.084700
     31 HBA2        0.2310   -1.8320    2.2680 hc        1 J60      0.084700
     32 HBA3        0.0290   -2.6480    0.6650 hc        1 J60      0.084700
     33 HAZ1        0.4240   -0.2000    0.3430 hx        1 J60      0.107700
     34 HAZ2        1.7290   -1.2420   -0.4050 hx        1 J60      0.107700
     35 HAY1        0.8190    0.1710    2.8060 hx        1 J60      0.107700
     36 HAY2        1.2500    1.6540    1.8210 hx        1 J60      0.107700
     37 HAW1        3.6660    1.4890    0.9980 hx        1 J60      0.124200
     38 HAW2        2.4780    1.1670   -0.3470 hx        1 J60      0.124200
     39 HBB1        3.4140    1.8770    3.0930 hc        1 J60      0.084700
     40 HBB2        3.0850    0.3210    3.9780 hc        1 J60      0.084700
     41 HBB3        2.0070    1.7540    4.2230 hc        1 J60      0.084700
     42 HAV1        4.2440    0.3180   -1.4440 hx        1 J60      0.131700
     43 HAV2        3.9130   -1.2170   -0.5050 hx        1 J60      0.131700
     44 HAU         5.8400    0.8390    0.4600 hn        1 J60      0.475300
     45 HAQ1        9.5610    0.9160    0.2200 hc        1 J60      0.064700
     46 HAQ2        7.8850    1.3310    0.7460 hc        1 J60      0.064700
     47 HAQ3        8.1930    0.4740   -0.8550 hc        1 J60      0.064700
     48 HAR1        7.2710   -4.6040    2.7470 hc        1 J60      0.093700
     49 HAR2        6.9900   -3.3260    4.0090 hc        1 J60      0.093700
     50 HAR3        5.8370   -3.4910    2.6140 hc        1 J60      0.093700
     51 HAP         9.6570   -3.3650    2.3330 hn        1 J60      0.340700
     52 HAK        11.6290   -1.4410    1.6970 ha        1 J60      0.167000
     53 HAD        13.9380   -1.1470    1.0410 ha        1 J60      0.155000
     54 HAB        16.1910   -0.8850   -2.6630 ha        1 J60      0.173000
     55 HAC        14.0980   -0.9630   -4.0060 ha        1 J60      0.164000
     56 HAH        11.2970   -1.1630   -3.7140 hn        1 J60      0.360500
     57 HAX1        2.9210   -0.8130    1.8310 hn        1 J60      0.472800
     58 HAU2        6.2520   -0.3320   -0.6430 hn        1 J60      0.475300
@<TRIPOS>BOND
     1    1    2 1   
     2    1   30 1   
     3    1   31 1   
     4    1   32 1   
     5    2    3 1   
     6    2   33 1   
     7    2   34 1   
     8    3    4 1   
     9    3    6 1   
    10    3   57 1   
    11    4    5 1   
    12    4   35 1   
    13    4   36 1   
    14    5   39 1   
    15    5   40 1   
    16    5   41 1   
    17    6    7 1   
    18    6   37 1   
    19    6   38 1   
    20    7    8 1   
    21    7   42 1   
    22    7   43 1   
    23    8    9 1   
    24    8   44 1   
    25    8   58 1   
    26    9   10 2   
    27    9   11 1   
    28   11   12 1   
    29   11   14 2   
    30   12   13 1   
    31   12   17 2   
    32   13   45 1   
    33   13   46 1   
    34   13   47 1   
    35   14   15 1   
    36   14   16 1   
    37   15   48 1   
    38   15   49 1   
    39   15   50 1   
    40   16   17 1   
    41   16   51 1   
    42   17   18 1   
    43   18   19 2   
    44   18   52 1   
    45   19   20 1   
    46   19   28 1   
    47   20   21 ar  
    48   20   26 ar  
    49   21   22 ar  
    50   21   53 1   
    51   22   23 1   
    52   22   24 ar  
    53   24   25 ar  
    54   24   54 1   
    55   25   26 ar  
    56   25   55 1   
    57   26   27 1   
    58   27   28 1   
    59   27   56 1   
    60   28   29 2   
@<TRIPOS>SUBSTRUCTURE
     1 J60         1 TEMP              0 ****  ****    0 ROOT
