@<TRIPOS>MOLECULE
J60
   58    60     1     0     0
SMALL
bcc


@<TRIPOS>ATOM
      1 CBA         0.7740   -2.1110    1.3770 c3        1 J60     -0.138100
      2 CAZ         1.2800   -0.9210    0.5900 c3        1 J60      0.112300
      3 NAX         2.3300   -0.1270    1.3250 nx        1 J60     -0.703400
      4 CAY         1.6830    0.7910    2.3320 c3        1 J60      0.112300
      5 CBB         2.6210    1.2550    3.4230 c3        1 J60     -0.138100
      6 CAW         3.1750    0.6550    0.3710 c3        1 J60      0.093800
      7 CAV         4.2150   -0.1640   -0.4110 c3        1 J60      0.092800
      8 NAU         5.6020   -0.1210    0.1170 ny        1 J60     -0.690800
      9 CAS         5.8860   -1.1020    1.2720 c         1 J60      0.630700
     10 OAT         4.8640   -1.5110    1.8350 o         1 J60     -0.577100
     11 CAN         7.2460   -1.4010    1.4580 cc        1 J60     -0.328600
     12 CAM         8.4220   -0.7470    0.8990 cc        1 J60     -0.067300
     13 CAQ         8.5000    0.5380    0.2000 c3        1 J60     -0.064800
     14 CAO         7.7150   -2.5610    2.1790 cd        1 J60      0.100400
     15 CAR         6.9200   -3.5230    2.9640 c3        1 J60     -0.087800
     16 NAP         9.0700   -2.6320    2.0140 na        1 J60     -0.126100
     17 CAL         9.5220   -1.5480    1.2210 cd        1 J60     -0.025100
     18 CAK        10.9180   -1.4140    0.8610 cf        1 J60     -0.089200
     19 CAG        11.3860   -1.2920   -0.3890 cc        1 J60     -0.025400
     20 CAE        12.7900   -1.1860   -0.7920 ca        1 J60     -0.149800
     21 CAD        13.9590   -1.1280   -0.0560 ca        1 J60     -0.047000
     22 CAA        15.1800   -1.0420   -0.7480 ca        1 J60     -0.012600
     23 Cl         16.6220   -0.9700    0.1360 cl        1 J60     -0.044400
     24 CAB        15.2210   -1.0170   -2.1450 ca        1 J60     -0.057000
     25 CAC        14.0470   -1.0730   -2.9060 ca        1 J60     -0.139000
     26 CAF        12.8340   -1.1550   -2.2310 ca        1 J60      0.062600
     27 NAH        11.5220   -1.2120   -2.7460 ns        1 J60     -0.457100
     28 CAI        10.6020   -1.2860   -1.6950 c         1 J60      0.706700
     29 OAJ         9.3700   -1.3170   -1.8450 o         1 J60     -0.650500
     30 HBA1        0.0400   -2.6620    0.7310 hc        1 J60      0.084700
     31 HBA2        0.2430   -1.8040    2.3110 hc        1 J60      0.084700
     32 HBA3        1.5990   -2.8160    1.6450 hc        1 J60      0.084700
     33 HAZ1        1.7340   -1.2800   -0.3780 hx        1 J60      0.107700
     34 HAZ2        0.4290   -0.2220    0.3440 hx        1 J60      0.107700
     35 HAY1        1.2540    1.6710    1.7730 hx        1 J60      0.107700
     36 HAY2        0.8280    0.2140    2.7960 hx        1 J60      0.107700
     37 HAW1        3.6680    1.4900    0.9500 hx        1 J60      0.124200
     38 HAW2        2.4780    1.1320   -0.3840 hx        1 J60      0.124200
     39 HBB1        3.0950    0.3970    3.9610 hc        1 J60      0.084700
     40 HBB2        2.0150    1.8350    4.1690 hc        1 J60      0.084700
     41 HBB3        3.4200    1.9300    3.0350 hc        1 J60      0.084700
     42 HAV1        3.9150   -1.2510   -0.4890 hx        1 J60      0.131700
     43 HAV2        4.2470    0.2630   -1.4620 hx        1 J60      0.131700
     44 HAU         5.8430    0.8250    0.4330 hn        1 J60      0.475800
     45 HAQ1        7.8880    1.3230    0.7100 hc        1 J60      0.064700
     46 HAQ2        8.1950    0.4380   -0.8760 hc        1 J60      0.064700
     47 HAQ3        9.5640    0.8990    0.1900 hc        1 J60      0.064700
     48 HAR1        7.2770   -4.5750    2.8170 hc        1 J60      0.093700
     49 HAR2        7.0000   -3.2760    4.0570 hc        1 J60      0.093700
     50 HAR3        5.8430   -3.4640    2.6680 hc        1 J60      0.093700
     51 HAP         9.6630   -3.3430    2.3790 hn        1 J60      0.340700
     52 HAK        11.6340   -1.4310    1.7070 ha        1 J60      0.167000
     53 HAD        13.9420   -1.1480    1.0450 ha        1 J60      0.155000
     54 HAB        16.1930   -0.9520   -2.6660 ha        1 J60      0.173000
     55 HAC        14.0980   -1.0530   -4.0050 ha        1 J60      0.164000
     56 HAH        11.2980   -1.2480   -3.7080 hn        1 J60      0.360500
     57 HAX1        2.9300   -0.7910    1.8430 hn        1 J60      0.472800
     58 HAU2        6.2550   -0.3670   -0.6480 hn        1 J60      0.475800
@<TRIPOS>BOND
     1    1    2 1   
     2    1   30 1   
     3    1   31 1   
     4    1   32 1   
     5    2    3 1   
     6    2   33 1   
     7    2   34 1   
     8    3    4 1   
     9    3    6 1   
    10    3   57 1   
    11    4    5 1   
    12    4   35 1   
    13    4   36 1   
    14    5   39 1   
    15    5   40 1   
    16    5   41 1   
    17    6    7 1   
    18    6   37 1   
    19    6   38 1   
    20    7    8 1   
    21    7   42 1   
    22    7   43 1   
    23    8    9 1   
    24    8   44 1   
    25    8   58 1   
    26    9   10 2   
    27    9   11 1   
    28   11   12 1   
    29   11   14 2   
    30   12   13 1   
    31   12   17 2   
    32   13   45 1   
    33   13   46 1   
    34   13   47 1   
    35   14   15 1   
    36   14   16 1   
    37   15   48 1   
    38   15   49 1   
    39   15   50 1   
    40   16   17 1   
    41   16   51 1   
    42   17   18 1   
    43   18   19 2   
    44   18   52 1   
    45   19   20 1   
    46   19   28 1   
    47   20   21 ar  
    48   20   26 ar  
    49   21   22 ar  
    50   21   53 1   
    51   22   23 1   
    52   22   24 ar  
    53   24   25 ar  
    54   24   54 1   
    55   25   26 ar  
    56   25   55 1   
    57   26   27 1   
    58   27   28 1   
    59   27   56 1   
    60   28   29 2   
@<TRIPOS>SUBSTRUCTURE
     1 J60         1 TEMP              0 ****  ****    0 ROOT
