@<TRIPOS>MOLECULE
J60
   58    60     1     0     0
SMALL
bcc


@<TRIPOS>ATOM
      1 CBA         0.7510   -2.0370    1.3130 c3        1 J60     -0.138100
      2 CAZ         1.2790   -0.8390    0.5530 c3        1 J60      0.112300
      3 NAX         2.3360   -0.0750    1.3100 n4        1 J60     -0.703400
      4 CAY         1.6950    0.8320    2.3310 c3        1 J60      0.112300
      5 CBB         2.6330    1.2610    3.4380 c3        1 J60     -0.138100
      6 CAW         3.1970    0.7140    0.3780 c3        1 J60      0.093800
      7 CAV         4.2310   -0.1030   -0.4150 c3        1 J60      0.092800
      8 NAU         5.6140   -0.0910    0.1220 n4        1 J60     -0.690800
      9 CAS         5.8780   -1.0980    1.2590 c         1 J60      0.630700
     10 OAT         4.8470   -1.5030    1.8080 o         1 J60     -0.577100
     11 CAN         7.2330   -1.4200    1.4470 cc        1 J60     -0.328600
     12 CAM         8.4210   -0.7720    0.9090 cc        1 J60     -0.067300
     13 CAQ         8.5210    0.5250    0.2340 c3        1 J60     -0.064800
     14 CAO         7.6810   -2.5990    2.1490 cd        1 J60      0.100400
     15 CAR         6.8680   -3.5650    2.9110 c3        1 J60     -0.087800
     16 NAP         9.0350   -2.6870    1.9900 na        1 J60     -0.126100
     17 CAL         9.5070   -1.5940    1.2210 cd        1 J60     -0.025100
     18 CAK        10.9080   -1.4730    0.8730 cf        1 J60     -0.089200
     19 CAG        11.3860   -1.3340   -0.3720 cc        1 J60     -0.025400
     20 CAE        12.7940   -1.2390   -0.7640 ca        1 J60     -0.149800
     21 CAD        13.9580   -1.2120   -0.0200 ca        1 J60     -0.047000
     22 CAA        15.1850   -1.1310   -0.7030 ca        1 J60     -0.012600
     23 CL         16.6220   -1.0950    0.1920 cl        1 J60     -0.044400
     24 CAB        15.2360   -1.0790   -2.0990 ca        1 J60     -0.057000
     25 CAC        14.0660   -1.1050   -2.8680 ca        1 J60     -0.139000
     26 CAF        12.8480   -1.1830   -2.2020 ca        1 J60      0.062600
     27 NAH        11.5380   -1.2100   -2.7260 n         1 J60     -0.457100
     28 CAI        10.6100   -1.2920   -1.6830 c         1 J60      0.706700
     29 OAJ         9.3790   -1.3020   -1.8410 o         1 J60     -0.650500
     30 HBA1        0.0140   -2.5650    0.6520 hc        1 J60      0.084700
     31 HBA2        0.2190   -1.7420    2.2500 hc        1 J60      0.084700
     32 HBA3        1.5650   -2.7590    1.5710 hc        1 J60      0.084700
     33 HAZ1        1.7340   -1.1850   -0.4190 hx        1 J60      0.107700
     34 HAZ2        0.4390   -0.1230    0.3170 hx        1 J60      0.107700
     35 HAY1        1.2820    1.7290    1.7880 hx        1 J60      0.107700
     36 HAY2        0.8290    0.2580    2.7790 hx        1 J60      0.107700
     37 HAW1        3.6990    1.5310    0.9760 hx        1 J60      0.124200
     38 HAW2        2.5120    1.2160   -0.3720 hx        1 J60      0.124200
     39 HBB1        3.0910    0.3860    3.9610 hc        1 J60      0.084700
     40 HBB2        2.0300    1.8350    4.1920 hc        1 J60      0.084700
     41 HBB3        3.4440    1.9330    3.0680 hc        1 J60      0.084700
     42 HAV1        3.9160   -1.1850   -0.5160 hx        1 J60      0.131700
     43 HAV2        4.2750    0.3430   -1.4570 hx        1 J60      0.131700
     44 HAU         5.8670    0.8460    0.4580 hn        1 J60      0.475800
     45 HAQ1        7.9170    1.3090    0.7550 hc        1 J60      0.064700
     46 HAQ2        8.2220    0.4500   -0.8450 hc        1 J60      0.064700
     47 HAQ3        9.5900    0.8710    0.2380 hc        1 J60      0.064700
     48 HAR1        7.2110   -4.6190    2.7450 hc        1 J60      0.093700
     49 HAR2        6.9440   -3.3410    4.0080 hc        1 J60      0.093700
     50 HAR3        5.7930   -3.4860    2.6090 hc        1 J60      0.093700
     51 HAP         9.6160   -3.4130    2.3460 hn        1 J60      0.340700
     52 HAK        11.6170   -1.5160    1.7230 ha        1 J60      0.167000
     53 HAD        13.9340   -1.2530    1.0800 ha        1 J60      0.155000
     54 HAB        16.2110   -1.0180   -2.6120 ha        1 J60      0.173000
     55 HAC        14.1240   -1.0640   -3.9660 ha        1 J60      0.164000
     56 HAH        11.3200   -1.2250   -3.6900 hn        1 J60      0.360500
     57 HAX1        2.9230   -0.7580    1.8190 hn        1 J60      0.472800
     58 HAU2        6.2690   -0.3310   -0.6440 hn        1 J60      0.475800
@<TRIPOS>BOND
     1    1    2 1   
     2    1   30 1   
     3    1   31 1   
     4    1   32 1   
     5    2    3 1   
     6    2   33 1   
     7    2   34 1   
     8    3    4 1   
     9    3    6 1   
    10    3   57 1   
    11    4    5 1   
    12    4   35 1   
    13    4   36 1   
    14    5   39 1   
    15    5   40 1   
    16    5   41 1   
    17    6    7 1   
    18    6   37 1   
    19    6   38 1   
    20    7    8 1   
    21    7   42 1   
    22    7   43 1   
    23    8    9 1   
    24    8   44 1   
    25    8   58 1   
    26    9   10 2   
    27    9   11 1   
    28   11   12 1   
    29   11   14 2   
    30   12   13 1   
    31   12   17 2   
    32   13   45 1   
    33   13   46 1   
    34   13   47 1   
    35   14   15 1   
    36   14   16 1   
    37   15   48 1   
    38   15   49 1   
    39   15   50 1   
    40   16   17 1   
    41   16   51 1   
    42   17   18 1   
    43   18   19 2   
    44   18   52 1   
    45   19   20 1   
    46   19   28 1   
    47   20   21 ar  
    48   20   26 ar  
    49   21   22 ar  
    50   21   53 1   
    51   22   23 1   
    52   22   24 ar  
    53   24   25 ar  
    54   24   54 1   
    55   25   26 ar  
    56   25   55 1   
    57   26   27 1   
    58   27   28 1   
    59   27   56 1   
    60   28   29 2   
@<TRIPOS>SUBSTRUCTURE
     1 J60         1 TEMP              0 ****  ****    0 ROOT
