@<TRIPOS>MOLECULE
J67
   51    55     1     0     0
SMALL
bcc


@<TRIPOS>ATOM
      1 O1          0.0420    2.2520    0.8040 oh        1 J67     -0.316500
      2 N2          1.2890    2.0250    0.4920 n2        1 J67     -0.376200
      3 C3          2.0420    1.4560    1.3900 cc        1 J67      0.371900
      4 C4          1.6850    0.9920    2.8000 c         1 J67      0.600200
      5 O5          0.5850    1.0390    3.3560 o         1 J67     -0.575500
      6 N6          2.8690    0.4950    3.3970 n         1 J67     -0.378000
      7 C7          2.9280   -0.1440    4.6790 c3        1 J67      0.157300
      8 C8          2.6850   -1.6270    4.6700 ca        1 J67     -0.111300
      9 C9          1.4140   -2.1220    4.3740 ca        1 J67     -0.120000
     10 C10         1.1730   -3.5080    4.3940 ca        1 J67      0.101900
     11 F11        -0.0660   -3.9790    4.1130 f         1 J67     -0.136900
     12 C12         2.2080   -4.4120    4.7000 ca        1 J67     -0.122000
     13 C13         3.4780   -3.9230    4.9870 ca        1 J67     -0.160300
     14 C14         4.6140   -4.8380    5.2920 c3        1 J67      0.173700
     15 O15         5.8610   -4.1420    5.3160 os        1 J67     -0.420600
     16 C16         5.8020   -2.9160    6.0010 c3        1 J67      0.318200
     17 O17         4.9730   -2.0320    5.2480 os        1 J67     -0.356900
     18 C18         3.7100   -2.5350    4.9800 ca        1 J67      0.127100
     19 C19         3.9170    0.5140    2.4500 ca        1 J67      0.072600
     20 C20         5.2270    0.0650    2.5870 ca        1 J67     -0.162000
     21 C21         6.0930    0.2340    1.4990 ca        1 J67     -0.086000
     22 C22         5.6700    0.8220    0.3150 ca        1 J67     -0.154000
     23 C23         4.3430    1.2730    0.1530 ca        1 J67      0.019200
     24 C24         3.9340    1.9380   -1.0750 ce        1 J67     -0.108200
     25 C25         4.0500    1.4820   -2.3300 cf        1 J67     -0.093200
     26 C26         4.5550    0.1920   -2.7720 ca        1 J67     -0.065800
     27 C27         5.2810    0.1190   -3.9720 ca        1 J67     -0.114500
     28 C28         5.7530   -1.1060   -4.4360 ca        1 J67     -0.133000
     29 C29         5.4950   -2.2740   -3.7180 ca        1 J67     -0.126000
     30 C30         4.7660   -2.2120   -2.5310 ca        1 J67     -0.133000
     31 C31         4.2990   -0.9870   -2.0580 ca        1 J67     -0.114500
     32 C32         3.4700    1.1180    1.2220 ca        1 J67     -0.180900
     33 HO1        -0.3440    2.6640    0.0020 ho        1 J67      0.444000
     34 H7          2.1360    0.3390    5.3270 h1        1 J67      0.081200
     35 H7A         3.9440    0.0640    5.1260 h1        1 J67      0.081200
     36 H9          0.5980   -1.4230    4.1260 ha        1 J67      0.174000
     37 H12         2.0080   -5.4930    4.7030 ha        1 J67      0.153000
     38 H14         4.7510   -5.6070    4.4840 h1        1 J67      0.069700
     39 H14A        4.4580   -5.3450    6.2830 h1        1 J67      0.069700
     40 H16         6.8310   -2.4700    5.9530 h2        1 J67      0.075700
     41 H16A        5.4070   -3.0290    7.0440 h2        1 J67      0.075700
     42 H20         5.5700   -0.4210    3.5120 ha        1 J67      0.159000
     43 H21         7.1340   -0.1140    1.5910 ha        1 J67      0.137000
     44 H22         6.3720    0.9370   -0.5250 ha        1 J67      0.146000
     45 H24         3.4880    2.9380   -0.9110 ha        1 J67      0.140000
     46 H25         3.7260    2.1410   -3.1580 ha        1 J67      0.128000
     47 H27         5.4810    1.0370   -4.5440 ha        1 J67      0.137000
     48 H28         6.3260   -1.1530   -5.3730 ha        1 J67      0.132000
     49 H29         5.8650   -3.2410   -4.0880 ha        1 J67      0.131000
     50 H30         4.5580   -3.1310   -1.9630 ha        1 J67      0.132000
     51 H31         3.7270   -0.9380   -1.1190 ha        1 J67      0.137000
@<TRIPOS>BOND
     1    1    2 1   
     2    1   33 1   
     3    2    3 2   
     4    3    4 1   
     5    3   32 1   
     6    4    5 2   
     7    4    6 1   
     8    6    7 1   
     9    6   19 1   
    10    7    8 1   
    11    7   34 1   
    12    7   35 1   
    13    8    9 ar  
    14    8   18 ar  
    15    9   10 ar  
    16    9   36 1   
    17   10   11 1   
    18   10   12 ar  
    19   12   13 ar  
    20   12   37 1   
    21   13   14 1   
    22   13   18 ar  
    23   14   15 1   
    24   14   38 1   
    25   14   39 1   
    26   15   16 1   
    27   16   17 1   
    28   16   40 1   
    29   16   41 1   
    30   17   18 1   
    31   19   20 ar  
    32   19   32 ar  
    33   20   21 ar  
    34   20   42 1   
    35   21   22 ar  
    36   21   43 1   
    37   22   23 ar  
    38   22   44 1   
    39   23   24 1   
    40   23   32 ar  
    41   24   25 2   
    42   24   45 1   
    43   25   26 1   
    44   25   46 1   
    45   26   27 ar  
    46   26   31 ar  
    47   27   28 ar  
    48   27   47 1   
    49   28   29 ar  
    50   28   48 1   
    51   29   30 ar  
    52   29   49 1   
    53   30   31 ar  
    54   30   50 1   
    55   31   51 1   
@<TRIPOS>SUBSTRUCTURE
     1 J67         1 TEMP              0 ****  ****    0 ROOT
