@<TRIPOS>MOLECULE
J67
   51    55     1     0     0
SMALL
bcc


@<TRIPOS>ATOM
      1 O1          0.0190    2.1980    0.7090 oh        1 J67     -0.316500
      2 N2          1.2720    1.9800    0.4150 n2        1 J67     -0.376200
      3 C3          2.0200    1.4330    1.3300 cc        1 J67      0.371900
      4 C4          1.6510    0.9870    2.7430 c         1 J67      0.600200
      5 O5          0.5440    1.0310    3.2860 o         1 J67     -0.575500
      6 N6          2.8330    0.5120    3.3620 n         1 J67     -0.378000
      7 C7          2.8830   -0.1050    4.6540 c3        1 J67      0.157300
      8 C8          2.6550   -1.5920    4.6670 ca        1 J67     -0.111300
      9 C9          1.3930   -2.1040    4.3640 ca        1 J67     -0.120000
     10 C10         1.1660   -3.4920    4.4030 ca        1 J67      0.101900
     11 F11        -0.0650   -3.9810    4.1150 f         1 J67     -0.136900
     12 C12         2.2060   -4.3800    4.7350 ca        1 J67     -0.122000
     13 C13         3.4670   -3.8730    5.0300 ca        1 J67     -0.160300
     14 C14         4.6090   -4.7720    5.3620 c3        1 J67      0.173700
     15 O15         5.8490   -4.0620    5.3890 os        1 J67     -0.420600
     16 C16         5.7700   -2.8260    6.0540 c3        1 J67      0.318200
     17 O17         4.9400   -1.9630    5.2770 os        1 J67     -0.356900
     18 C18         3.6860   -2.4840    5.0030 ca        1 J67      0.127100
     19 C19         3.8910    0.5280    2.4270 ca        1 J67      0.072600
     20 C20         5.2050    0.0950    2.5860 ca        1 J67     -0.162000
     21 C21         6.0820    0.2550    1.5060 ca        1 J67     -0.086000
     22 C22         5.6670    0.8200    0.3080 ca        1 J67     -0.154000
     23 C23         4.3370    1.2550    0.1240 ca        1 J67      0.019200
     24 C24         3.9360    1.8960   -1.1200 ce        1 J67     -0.108200
     25 C25         4.0720    1.4220   -2.3650 cf        1 J67     -0.093200
     26 C26         4.5960    0.1300   -2.7810 ca        1 J67     -0.065800
     27 C27         5.3380    0.0460   -3.9710 ca        1 J67     -0.114500
     28 C28         5.8270   -1.1810   -4.4100 ca        1 J67     -0.133000
     29 C29         5.5740   -2.3400   -3.6770 ca        1 J67     -0.126000
     30 C30         4.8300   -2.2670   -2.5000 ca        1 J67     -0.133000
     31 C31         4.3440   -1.0400   -2.0520 ca        1 J67     -0.114500
     32 C32         3.4530    1.1070    1.1840 ca        1 J67     -0.180900
     33 HO1        -0.3610    2.5940   -0.1050 ho        1 J67      0.444000
     34 H7          3.8910    0.1200    5.1100 h1        1 J67      0.081200
     35 H7A         2.0790    0.3790    5.2850 h1        1 J67      0.081200
     36 H9          0.5730   -1.4170    4.0950 ha        1 J67      0.174000
     37 H12         2.0170   -5.4630    4.7530 ha        1 J67      0.153000
     38 H14         4.7640   -5.5520    4.5690 h1        1 J67      0.069700
     39 H14A        4.4470   -5.2640    6.3590 h1        1 J67      0.069700
     40 H16         6.7950   -2.3700    6.0110 h2        1 J67      0.075700
     41 H16A        5.3630   -2.9270    7.0940 h2        1 J67      0.075700
     42 H20         5.5420   -0.3740    3.5240 ha        1 J67      0.159000
     43 H21         7.1250   -0.0800    1.6170 ha        1 J67      0.137000
     44 H22         6.3780    0.9290   -0.5250 ha        1 J67      0.146000
     45 H24         3.4780    2.8930   -0.9760 ha        1 J67      0.140000
     46 H25         3.7510    2.0640   -3.2080 ha        1 J67      0.128000
     47 H27         5.5340    0.9570   -4.5550 ha        1 J67      0.137000
     48 H28         6.4130   -1.2360   -5.3400 ha        1 J67      0.132000
     49 H29         5.9580   -3.3090   -4.0270 ha        1 J67      0.131000
     50 H30         4.6250   -3.1790   -1.9200 ha        1 J67      0.132000
     51 H31         3.7600   -0.9830   -1.1210 ha        1 J67      0.137000
@<TRIPOS>BOND
     1    1    2 1   
     2    1   33 1   
     3    2    3 2   
     4    3    4 1   
     5    3   32 1   
     6    4    5 2   
     7    4    6 1   
     8    6    7 1   
     9    6   19 1   
    10    7    8 1   
    11    7   34 1   
    12    7   35 1   
    13    8    9 ar  
    14    8   18 ar  
    15    9   10 ar  
    16    9   36 1   
    17   10   11 1   
    18   10   12 ar  
    19   12   13 ar  
    20   12   37 1   
    21   13   14 1   
    22   13   18 ar  
    23   14   15 1   
    24   14   38 1   
    25   14   39 1   
    26   15   16 1   
    27   16   17 1   
    28   16   40 1   
    29   16   41 1   
    30   17   18 1   
    31   19   20 ar  
    32   19   32 ar  
    33   20   21 ar  
    34   20   42 1   
    35   21   22 ar  
    36   21   43 1   
    37   22   23 ar  
    38   22   44 1   
    39   23   24 1   
    40   23   32 ar  
    41   24   25 2   
    42   24   45 1   
    43   25   26 1   
    44   25   46 1   
    45   26   27 ar  
    46   26   31 ar  
    47   27   28 ar  
    48   27   47 1   
    49   28   29 ar  
    50   28   48 1   
    51   29   30 ar  
    52   29   49 1   
    53   30   31 ar  
    54   30   50 1   
    55   31   51 1   
@<TRIPOS>SUBSTRUCTURE
     1 J67         1 TEMP              0 ****  ****    0 ROOT
