@<TRIPOS>MOLECULE
J67
   51    55     1     0     0
SMALL
bcc


@<TRIPOS>ATOM
      1 O1          0.1010    2.3130    0.7770 oh        1 J67     -0.316500
      2 N2          1.3430    2.0610    0.4660 n2        1 J67     -0.376200
      3 C3          2.0870    1.4870    1.3680 cc        1 J67      0.371900
      4 C4          1.7240    1.0440    2.7830 c         1 J67      0.600200
      5 O5          0.6260    1.1170    3.3410 o         1 J67     -0.575500
      6 N6          2.9000    0.5320    3.3840 n         1 J67     -0.378000
      7 C7          2.9500   -0.0950    4.6720 c3        1 J67      0.157300
      8 C8          2.6800   -1.5740    4.6780 ca        1 J67     -0.111300
      9 C9          1.4010   -2.0490    4.3890 ca        1 J67     -0.120000
     10 C10         1.1350   -3.4300    4.4230 ca        1 J67      0.101900
     11 F11        -0.1130   -3.8820    4.1480 f         1 J67     -0.136900
     12 C12         2.1530   -4.3490    4.7360 ca        1 J67     -0.122000
     13 C13         3.4320   -3.8800    5.0170 ca        1 J67     -0.160300
     14 C14         4.5520   -4.8120    5.3300 c3        1 J67      0.173700
     15 O15         5.8120   -4.1380    5.3450 os        1 J67     -0.420600
     16 C16         5.7760   -2.9040    6.0180 c3        1 J67      0.318200
     17 O17         4.9610   -2.0140    5.2570 os        1 J67     -0.356900
     18 C18         3.6890   -2.4970    4.9960 ca        1 J67      0.127100
     19 C19         3.9460    0.5220    2.4340 ca        1 J67      0.072600
     20 C20         5.2480    0.0510    2.5740 ca        1 J67     -0.162000
     21 C21         6.1150    0.1920    1.4830 ca        1 J67     -0.086000
     22 C22         5.7010    0.7750    0.2930 ca        1 J67     -0.154000
     23 C23         4.3820    1.2490    0.1290 ca        1 J67      0.019200
     24 C24         3.9830    1.9080   -1.1060 ce        1 J67     -0.108200
     25 C25         4.0870    1.4360   -2.3550 cf        1 J67     -0.093200
     26 C26         4.5650    0.1320   -2.7840 ca        1 J67     -0.065800
     27 C27         5.2860    0.0310   -3.9850 ca        1 J67     -0.114500
     28 C28         5.7320   -1.2080   -4.4370 ca        1 J67     -0.133000
     29 C29         5.4550   -2.3630   -3.7040 ca        1 J67     -0.126000
     30 C30         4.7310   -2.2730   -2.5160 ca        1 J67     -0.133000
     31 C31         4.2890   -1.0340   -2.0570 ca        1 J67     -0.114500
     32 C32         3.5080    1.1210    1.2010 ca        1 J67     -0.180900
     33 HO1        -0.2790    2.7240   -0.0290 ho        1 J67      0.444000
     34 H7          3.9700    0.0990    5.1150 h1        1 J67      0.081200
     35 H7A         2.1680    0.4080    5.3160 h1        1 J67      0.081200
     36 H9          0.5960   -1.3370    4.1350 ha        1 J67      0.174000
     37 H12         1.9340   -5.4260    4.7500 ha        1 J67      0.153000
     38 H14         4.3890   -5.3060    6.3260 h1        1 J67      0.069700
     39 H14A        4.6750   -5.5920    4.5300 h1        1 J67      0.069700
     40 H16         6.8130   -2.4770    5.9640 h2        1 J67      0.075700
     41 H16A        5.3800   -3.0000    7.0620 h2        1 J67      0.075700
     42 H20         5.5840   -0.4320    3.5040 ha        1 J67      0.159000
     43 H21         7.1500   -0.1740    1.5770 ha        1 J67      0.137000
     44 H22         6.4040    0.8690   -0.5490 ha        1 J67      0.146000
     45 H24         3.5570    2.9180   -0.9510 ha        1 J67      0.140000
     46 H25         3.7730    2.0920   -3.1900 ha        1 J67      0.128000
     47 H27         5.5020    0.9380   -4.5680 ha        1 J67      0.137000
     48 H28         6.3020   -1.2760   -5.3750 ha        1 J67      0.132000
     49 H29         5.8040   -3.3410   -4.0650 ha        1 J67      0.131000
     50 H30         4.5060   -3.1810   -1.9380 ha        1 J67      0.132000
     51 H31         3.7200   -0.9640   -1.1160 ha        1 J67      0.137000
@<TRIPOS>BOND
     1    1    2 1   
     2    1   33 1   
     3    2    3 2   
     4    3    4 1   
     5    3   32 1   
     6    4    5 2   
     7    4    6 1   
     8    6    7 1   
     9    6   19 1   
    10    7    8 1   
    11    7   34 1   
    12    7   35 1   
    13    8    9 ar  
    14    8   18 ar  
    15    9   10 ar  
    16    9   36 1   
    17   10   11 1   
    18   10   12 ar  
    19   12   13 ar  
    20   12   37 1   
    21   13   14 1   
    22   13   18 ar  
    23   14   15 1   
    24   14   38 1   
    25   14   39 1   
    26   15   16 1   
    27   16   17 1   
    28   16   40 1   
    29   16   41 1   
    30   17   18 1   
    31   19   20 ar  
    32   19   32 ar  
    33   20   21 ar  
    34   20   42 1   
    35   21   22 ar  
    36   21   43 1   
    37   22   23 ar  
    38   22   44 1   
    39   23   24 1   
    40   23   32 ar  
    41   24   25 2   
    42   24   45 1   
    43   25   26 1   
    44   25   46 1   
    45   26   27 ar  
    46   26   31 ar  
    47   27   28 ar  
    48   27   47 1   
    49   28   29 ar  
    50   28   48 1   
    51   29   30 ar  
    52   29   49 1   
    53   30   31 ar  
    54   30   50 1   
    55   31   51 1   
@<TRIPOS>SUBSTRUCTURE
     1 J67         1 TEMP              0 ****  ****    0 ROOT
