@<TRIPOS>MOLECULE
J67
   51    55     1     0     0
SMALL
bcc


@<TRIPOS>ATOM
      1 O1         -1.5720   -3.7080    0.4960 oh        1 J67     -0.315500
      2 N2         -1.8610   -2.4410    0.3810 n2        1 J67     -0.380200
      3 C3         -0.9150   -1.5810    0.6320 cc        1 J67      0.374900
      4 C4          0.5260   -1.8410    1.0660 c         1 J67      0.599200
      5 O5          1.0910   -2.9290    1.2030 o         1 J67     -0.574500
      6 N6          1.1280   -0.5840    1.3150 n         1 J67     -0.378000
      7 C7          2.5120   -0.3930    1.6340 c3        1 J67      0.156300
      8 C8          3.4300   -0.2400    0.4530 ca        1 J67     -0.111300
      9 C9          3.6700   -1.3270   -0.3870 ca        1 J67     -0.120000
     10 C10         4.5490   -1.1980   -1.4770 ca        1 J67      0.101900
     11 F11         4.7830   -2.2620   -2.2830 f         1 J67     -0.136900
     12 C12         5.1880    0.0280   -1.7420 ca        1 J67     -0.122000
     13 C13         4.9440    1.1170   -0.9120 ca        1 J67     -0.159300
     14 C14         5.5750    2.4440   -1.1640 c3        1 J67      0.173700
     15 O15         5.0040    3.4640   -0.3420 os        1 J67     -0.420600
     16 C16         4.8180    3.0660    0.9930 c3        1 J67      0.318200
     17 O17         3.8090    2.0570    1.0130 os        1 J67     -0.356900
     18 C18         4.0750    0.9780    0.1850 ca        1 J67      0.127100
     19 C19         0.2240    0.4450    0.9700 ca        1 J67      0.075600
     20 C20         0.4220    1.8230    1.0030 ca        1 J67     -0.162000
     21 C21        -0.6530    2.6470    0.6500 ca        1 J67     -0.084000
     22 C22        -1.8790    2.1180    0.2720 ca        1 J67     -0.162000
     23 C23        -2.0960    0.7240    0.2160 ca        1 J67      0.022200
     24 C24        -3.3830    0.2050   -0.2220 ce        1 J67     -0.108200
     25 C25        -4.5550    0.7550    0.1340 cf        1 J67     -0.095200
     26 C26        -5.8610    0.2780   -0.2900 ca        1 J67     -0.058800
     27 C27        -6.9700    1.1320   -0.1640 ca        1 J67     -0.116500
     28 C28        -8.2350    0.7100   -0.5620 ca        1 J67     -0.132000
     29 C29        -8.4150   -0.5710   -1.0850 ca        1 J67     -0.125000
     30 C30        -7.3220   -1.4280   -1.2060 ca        1 J67     -0.132000
     31 C31        -6.0530   -1.0090   -0.8110 ca        1 J67     -0.116500
     32 C32        -1.0420   -0.1110    0.5660 ca        1 J67     -0.174900
     33 HO1        -2.4080   -4.1750    0.2830 ho        1 J67      0.444000
     34 H7          2.5970    0.5210    2.2920 h1        1 J67      0.081700
     35 H7A         2.8450   -1.3000    2.2220 h1        1 J67      0.081700
     36 H9          3.1680   -2.2910   -0.1930 ha        1 J67      0.174000
     37 H12         5.8650    0.1180   -2.6030 ha        1 J67      0.153000
     38 H14         6.6820    2.3980   -0.9750 h1        1 J67      0.069700
     39 H14A        5.3780    2.8010   -2.2110 h1        1 J67      0.069700
     40 H16         5.7630    2.6830    1.4600 h2        1 J67      0.075200
     41 H16A        4.3710    3.9430    1.5320 h2        1 J67      0.075200
     42 H20         1.3970    2.2530    1.2800 ha        1 J67      0.160000
     43 H21        -0.5140    3.7390    0.6720 ha        1 J67      0.137000
     44 H22        -2.7040    2.7930   -0.0060 ha        1 J67      0.139000
     45 H24        -3.3390   -0.6770   -0.8840 ha        1 J67      0.145000
     46 H25        -4.5750    1.6410    0.7960 ha        1 J67      0.128000
     47 H27        -6.8340    2.1430    0.2500 ha        1 J67      0.133000
     48 H28        -9.0950    1.3880   -0.4630 ha        1 J67      0.132000
     49 H29        -9.4150   -0.9040   -1.3980 ha        1 J67      0.132000
     50 H30        -7.4600   -2.4410   -1.6140 ha        1 J67      0.132000
     51 H31        -5.2000   -1.6980   -0.9030 ha        1 J67      0.133000
@<TRIPOS>BOND
     1    1    2 1   
     2    1   33 1   
     3    2    3 2   
     4    3    4 1   
     5    3   32 1   
     6    4    5 2   
     7    4    6 1   
     8    6    7 1   
     9    6   19 1   
    10    7    8 1   
    11    7   34 1   
    12    7   35 1   
    13    8    9 ar  
    14    8   18 ar  
    15    9   10 ar  
    16    9   36 1   
    17   10   11 1   
    18   10   12 ar  
    19   12   13 ar  
    20   12   37 1   
    21   13   14 1   
    22   13   18 ar  
    23   14   15 1   
    24   14   38 1   
    25   14   39 1   
    26   15   16 1   
    27   16   17 1   
    28   16   40 1   
    29   16   41 1   
    30   17   18 1   
    31   19   20 ar  
    32   19   32 ar  
    33   20   21 ar  
    34   20   42 1   
    35   21   22 ar  
    36   21   43 1   
    37   22   23 ar  
    38   22   44 1   
    39   23   24 1   
    40   23   32 ar  
    41   24   25 2   
    42   24   45 1   
    43   25   26 1   
    44   25   46 1   
    45   26   27 ar  
    46   26   31 ar  
    47   27   28 ar  
    48   27   47 1   
    49   28   29 ar  
    50   28   48 1   
    51   29   30 ar  
    52   29   49 1   
    53   30   31 ar  
    54   30   50 1   
    55   31   51 1   
@<TRIPOS>SUBSTRUCTURE
     1 J67         1 TEMP              0 ****  ****    0 ROOT
