@<TRIPOS>MOLECULE
J6Z
   17    16     1     0     0
SMALL
bcc


@<TRIPOS>ATOM
      1 C1          0.6420   -0.6730   -0.3830 c3        1 J6Z     -0.261900
      2 S1         -0.8850    0.1570    0.1160 s6        1 J6Z      1.420800
      3 C2          1.8470   -0.1510    0.3630 c3        1 J6Z     -0.032400
      4 O2         -1.9050   -0.5340   -0.5830 o         1 J6Z     -0.749867
      5 C3          0.5000   -2.1590   -0.1920 c3        1 J6Z     -0.051100
      6 O3         -0.9570    0.0130    1.5220 o         1 J6Z     -0.749867
      7 C4          2.3810    1.1280   -0.2330 c3        1 J6Z     -0.100100
      8 H1          0.7740   -0.4660   -1.4770 h1        1 J6Z      0.065700
      9 H2          1.5590    0.0240    1.4360 hc        1 J6Z      0.025200
     10 H2A         2.6630   -0.9230    0.3650 hc        1 J6Z      0.025200
     11 H3         -0.4150   -2.5260   -0.7190 hc        1 J6Z      0.022700
     12 H3A         1.3860   -2.7070   -0.5950 hc        1 J6Z      0.022700
     13 H3B         0.4060   -2.3990    0.8960 hc        1 J6Z      0.022700
     14 H4          2.7880    0.9450   -1.2570 hc        1 J6Z      0.029700
     15 H4A         1.5620    1.8880   -0.3090 hc        1 J6Z      0.029700
     16 H4B         3.2020    1.5400    0.4020 hc        1 J6Z      0.029700
     17 O31        -0.7220    1.4970   -0.3120 o         1 J6Z     -0.749867
@<TRIPOS>BOND
     1    1    2 1   
     2    1    3 1   
     3    1    5 1   
     4    1    8 1   
     5    2    4 1   
     6    2    6 1   
     7    2   17 1   
     8    3    7 1   
     9    3    9 1   
    10    3   10 1   
    11    5   11 1   
    12    5   12 1   
    13    5   13 1   
    14    7   14 1   
    15    7   15 1   
    16    7   16 1   
@<TRIPOS>SUBSTRUCTURE
     1 J6Z         1 TEMP              0 ****  ****    0 ROOT
