@<TRIPOS>MOLECULE
J6Z
   17    16     1     0     0
SMALL
bcc


@<TRIPOS>ATOM
      1 C1          2.3210   -0.0610   -0.2160 c3        1 J6Z     -0.096400
      2 S1         -0.7100    0.7200    1.1920 s6        1 J6Z      1.424800
      3 C2          1.9040   -0.1840    1.2370 c3        1 J6Z     -0.025400
      4 O2         -0.7340    0.8300   -0.2220 o         1 J6Z     -0.753533
      5 C3          3.1250   -1.2530   -0.6650 c3        1 J6Z     -0.083100
      6 O3         -1.0730   -0.5630    1.6700 o         1 J6Z     -0.753533
      7 C4          0.9960    0.9380    1.6580 c3        1 J6Z     -0.291600
      8 H1          1.3970    0.0460   -0.8500 hc        1 J6Z      0.054700
      9 H2          2.9260    0.8730   -0.3520 hc        1 J6Z      0.054700
     10 H2A         1.3740   -1.1630    1.3940 hc        1 J6Z      0.024700
     11 H3          4.0470   -1.3680   -0.0450 hc        1 J6Z      0.016367
     12 H3A         3.4320   -1.1370   -1.7330 hc        1 J6Z      0.016367
     13 H3B         2.5220   -2.1890   -0.5720 hc        1 J6Z      0.016367
     14 H4          2.8250   -0.2010    1.8790 hc        1 J6Z      0.024700
     15 H4A         1.0320    1.0390    2.7700 h1        1 J6Z      0.061700
     16 H4B         1.3600    1.9030    1.2340 h1        1 J6Z      0.061700
     17 O31        -1.3750    1.7830    1.8540 o         1 J6Z     -0.753533
@<TRIPOS>BOND
     1    1    3 1   
     2    1    5 1   
     3    1    8 1   
     4    1    9 1   
     5    2    4 1   
     6    2    6 1   
     7    2    7 1   
     8    2   17 1   
     9    3    7 1   
    10    3   10 1   
    11    3   14 1   
    12    5   11 1   
    13    5   12 1   
    14    5   13 1   
    15    7   15 1   
    16    7   16 1   
@<TRIPOS>SUBSTRUCTURE
     1 J6Z         1 TEMP              0 ****  ****    0 ROOT
