@<TRIPOS>MOLECULE
J6Z
   17    15     1     0     0
SMALL
bcc


@<TRIPOS>ATOM
      1 C1         -0.0920    0.0230   -0.4610 c3        1 J6Z     -0.296400
      2 S1         -1.8630   -0.0200   -0.5160 s4        1 J6Z      1.641500
      3 C2          0.3680    0.0130    0.9810 c3        1 J6Z     -0.044400
      4 O2         -2.4610    1.2310    0.0820 o         1 J6Z     -0.681900
      5 C3          0.4650   -1.1880   -1.1760 c3        1 J6Z     -0.050100
      6 O3         -2.3690    0.0640   -1.9370 o         1 J6Z     -0.681900
      7 C4          1.3290    1.1580    1.2120 c3        1 J6Z     -0.080100
      8 H1          0.2280    0.8350   -0.8980 h1        1 J6Z      0.065700
      9 H2          0.8180   -0.8340    1.1730 hc        1 J6Z      0.046200
     10 H2A        -0.4060    0.1120    1.5700 hc        1 J6Z      0.046200
     11 H3          0.0670   -2.0010   -0.7990 hc        1 J6Z      0.022033
     12 H3A         1.4380   -1.2170   -1.0620 hc        1 J6Z      0.022033
     13 H3B         0.2500   -1.1320   -2.1310 hc        1 J6Z      0.022033
     14 H4          1.6470    1.1350    2.1380 hc        1 J6Z      0.013367
     15 H4A         0.8700    2.0080    1.0440 hc        1 J6Z      0.013367
     16 H4B         2.0910    1.0730    0.6020 hc        1 J6Z      0.013367
     17 O31        -2.3780   -1.2590    0.1770 os        1 J6Z     -1.071000
@<TRIPOS>BOND
     1    1    2 1   
     2    1    3 1   
     3    1    5 1   
     4    1    8 1   
     5    2    4 1   
     6    2    6 1   
     7    3    7 1   
     8    3    9 1   
     9    3   10 1   
    10    5   11 1   
    11    5   12 1   
    12    5   13 1   
    13    7   14 1   
    14    7   15 1   
    15    7   16 1   
@<TRIPOS>SUBSTRUCTURE
     1 J6Z         1 TEMP              0 ****  ****    0 ROOT
