@<TRIPOS>MOLECULE
J6Z
   17    16     1     0     0
SMALL
bcc


@<TRIPOS>ATOM
      1 C1          2.3010   -0.0310   -0.2370 c3        1 J6Z     -0.096400
      2 S1         -0.7170    0.6450    1.2510 s6        1 J6Z      1.424800
      3 C2          1.9260   -0.1730    1.2250 c3        1 J6Z     -0.025400
      4 O2         -0.7800    0.7580   -0.1610 o         1 J6Z     -0.753533
      5 C3          3.1320   -1.1940   -0.7120 c3        1 J6Z     -0.083100
      6 O3         -1.0260   -0.6500    1.7340 o         1 J6Z     -0.753533
      7 C4          0.9930    0.9170    1.6750 c3        1 J6Z     -0.291600
      8 H1          1.3590    0.0480   -0.8470 hc        1 J6Z      0.054700
      9 H2          2.8720    0.9230   -0.3850 hc        1 J6Z      0.054700
     10 H2A         1.4320   -1.1690    1.3910 hc        1 J6Z      0.024700
     11 H3          4.0730   -1.2810   -0.1150 hc        1 J6Z      0.016367
     12 H3A         3.4080   -1.0640   -1.7860 hc        1 J6Z      0.016367
     13 H3B         2.5640   -2.1500   -0.6080 hc        1 J6Z      0.016367
     14 H4          2.8620   -0.1620    1.8440 hc        1 J6Z      0.024700
     15 H4A         1.0540    1.0160    2.7850 h1        1 J6Z      0.061700
     16 H4B         1.3140    1.8960    1.2460 h1        1 J6Z      0.061700
     17 O31        -1.3980    1.6840    1.9330 o         1 J6Z     -0.753533
@<TRIPOS>BOND
     1    1    3 1   
     2    1    5 1   
     3    1    8 1   
     4    1    9 1   
     5    2    4 1   
     6    2    6 1   
     7    2    7 1   
     8    2   17 1   
     9    3    7 1   
    10    3   10 1   
    11    3   14 1   
    12    5   11 1   
    13    5   12 1   
    14    5   13 1   
    15    7   15 1   
    16    7   16 1   
@<TRIPOS>SUBSTRUCTURE
     1 J6Z         1 TEMP              0 ****  ****    0 ROOT
