@<TRIPOS>MOLECULE
J71
   36    37     1     0     0
SMALL
bcc


@<TRIPOS>ATOM
      1 N1          0.0000   -0.2270   -0.1060 nb        1 J71     -0.816000
      2 C2          1.3290   -0.4680    0.0430 ca        1 J71      0.742900
      3 N3          2.0620   -0.4350    1.1650 nb        1 J71     -0.803000
      4 C4          1.4040   -0.1170    2.3490 ca        1 J71      0.781200
      5 C5         -0.0190    0.1760    2.3170 ca        1 J71     -0.533800
      6 C6         -0.6660    0.0940    1.0340 ca        1 J71      0.752600
      7 N7          2.1230   -0.1090    3.5080 nh        1 J71     -0.841900
      8 C8          4.1210   -0.3040    4.9280 ca        1 J71     -0.051300
      9 C9          4.9410   -1.3420    5.3850 ca        1 J71     -0.145000
     10 C10         5.5290   -1.2590    6.6440 ca        1 J71     -0.016000
     11 C11         5.3100   -0.1500    7.4700 ca        1 J71     -0.372500
     12 C12         4.4750    0.8730    7.0080 ca        1 J71     -0.016000
     13 C13         3.8870    0.8050    5.7470 ca        1 J71     -0.145000
     14 S14         6.0100   -0.0700    9.0120 sy        1 J71      1.526200
     15 O15         5.1910    0.7390    9.8260 o         1 J71     -0.654800
     16 O16         6.2780   -1.3860    9.4400 o         1 J71     -0.654800
     17 N17         7.3940    0.6880    8.7410 n3        1 J71     -1.027700
     18 N18        -0.8000    0.5380    3.4990 no        1 J71      0.349200
     19 O19        -0.2400    0.8510    4.5260 o         1 J71     -0.220000
     20 O20        -1.9990    0.5300    3.4310 o         1 J71     -0.220000
     21 O21        -2.0010    0.3710    1.0150 os        1 J71     -0.398100
     22 C22        -2.6870    0.3110   -0.2430 c3        1 J71      0.121700
     23 C23         3.5410   -0.3860    3.5440 c3        1 J71      0.254100
     24 H2          1.8790   -0.7270   -0.8900 h5        1 J71      0.063100
     25 HN7         1.6780    0.1410    4.3690 hn        1 J71      0.484800
     26 H9          5.1200   -2.2260    4.7540 ha        1 J71      0.147500
     27 H10         6.1600   -2.0890    7.0100 ha        1 J71      0.158000
     28 H12         4.2670    1.7390    7.6620 ha        1 J71      0.158000
     29 H13         3.2420    1.6290    5.4030 ha        1 J71      0.147500
     30 HN17        7.5020    1.6690    8.7990 hn        1 J71      0.448800
     31 HN1A        8.2410    0.2230    8.5290 hn        1 J71      0.448800
     32 H22        -3.7360    0.5740    0.0480 h1        1 J71      0.061367
     33 H22A       -2.6330   -0.7190   -0.6690 h1        1 J71      0.061367
     34 H22B       -2.2650    1.0590   -0.9550 h1        1 J71      0.061367
     35 H23         3.7260   -1.4140    3.1130 h1        1 J71      0.073700
     36 H23A        4.0870    0.3590    2.8890 h1        1 J71      0.073700
@<TRIPOS>BOND
     1    1    2 ar  
     2    1    6 ar  
     3    2    3 ar  
     4    2   24 1   
     5    3    4 ar  
     6    4    5 ar  
     7    4    7 1   
     8    5    6 ar  
     9    5   18 1   
    10    6   21 1   
    11    7   23 1   
    12    7   25 1   
    13    8    9 ar  
    14    8   13 ar  
    15    8   23 1   
    16    9   10 ar  
    17    9   26 1   
    18   10   11 ar  
    19   10   27 1   
    20   11   12 ar  
    21   11   14 1   
    22   12   13 ar  
    23   12   28 1   
    24   13   29 1   
    25   14   15 2   
    26   14   16 2   
    27   14   17 1   
    28   17   30 1   
    29   17   31 1   
    30   18   19 1   
    31   18   20 1   
    32   21   22 1   
    33   22   32 1   
    34   22   33 1   
    35   22   34 1   
    36   23   35 1   
    37   23   36 1   
@<TRIPOS>SUBSTRUCTURE
     1 J71         1 TEMP              0 ****  ****    0 ROOT
