@<TRIPOS>MOLECULE
J71
   36    37     1     0     0
SMALL
bcc


@<TRIPOS>ATOM
      1 N1         -5.2530   -1.3130    0.2230 nb        1 J71     -0.816000
      2 C2         -4.2540   -2.1870    0.5100 ca        1 J71      0.742900
      3 N3         -2.9300   -1.9790    0.4800 nb        1 J71     -0.803000
      4 C4         -2.4910   -0.7120    0.1120 ca        1 J71      0.781200
      5 C5         -3.4660    0.3090   -0.2320 ca        1 J71     -0.533800
      6 C6         -4.8520   -0.0690   -0.1460 ca        1 J71      0.752600
      7 N7         -1.1480   -0.4680    0.1060 nh        1 J71     -0.841900
      8 C8          1.2430   -0.9870    0.3450 ca        1 J71     -0.051300
      9 C9          2.1230   -1.2440    1.4020 ca        1 J71     -0.145000
     10 C10         3.4520   -0.8390    1.3140 ca        1 J71     -0.016000
     11 C11         3.9260   -0.1700    0.1800 ca        1 J71     -0.372500
     12 C12         3.0330    0.0960   -0.8630 ca        1 J71     -0.016000
     13 C13         1.7030   -0.3110   -0.7900 ca        1 J71     -0.145000
     14 S14         5.5410    0.3420    0.0930 sy        1 J71      1.526200
     15 O15         5.6030    1.4610   -0.7620 o         1 J71     -0.654800
     16 O16         6.0270    0.4850    1.4090 o         1 J71     -0.654800
     17 N17         6.2750   -0.8960   -0.6080 n3        1 J71     -1.027700
     18 N18        -3.1100    1.6650   -0.6470 no        1 J71      0.349200
     19 O19        -3.9650    2.5080   -0.6820 o         1 J71     -0.220000
     20 O20        -1.9710    1.9260   -0.9610 o         1 J71     -0.220000
     21 O21        -5.7590    0.8960   -0.4720 os        1 J71     -0.398100
     22 C22        -7.1530    0.5630   -0.4100 c3        1 J71      0.121700
     23 C23        -0.1730   -1.4820    0.4340 c3        1 J71      0.254100
     24 H2         -4.5790   -3.2090    0.8090 h5        1 J71      0.063100
     25 HN7        -0.8060    0.4290   -0.1780 hn        1 J71      0.484800
     26 H9          1.7670   -1.7630    2.3050 ha        1 J71      0.147500
     27 H10         4.1390   -1.0270    2.1580 ha        1 J71      0.158000
     28 H12         3.3860    0.6530   -1.7500 ha        1 J71      0.158000
     29 H13         1.0230   -0.0980   -1.6290 ha        1 J71      0.147500
     30 HN17        6.3990   -0.9780   -1.5850 hn        1 J71      0.448800
     31 HN1A        6.6820   -1.6460   -0.1080 hn        1 J71      0.448800
     32 H22        -7.3910   -0.2570   -1.1270 h1        1 J71      0.061367
     33 H22A       -7.4410    0.2810    0.6300 h1        1 J71      0.061367
     34 H22B       -7.6390    1.5250   -0.7180 h1        1 J71      0.061367
     35 H23        -0.3780   -1.8650    1.4770 h1        1 J71      0.073700
     36 H23A       -0.2860   -2.3560   -0.2760 h1        1 J71      0.073700
@<TRIPOS>BOND
     1    1    2 ar  
     2    1    6 ar  
     3    2    3 ar  
     4    2   24 1   
     5    3    4 ar  
     6    4    5 ar  
     7    4    7 1   
     8    5    6 ar  
     9    5   18 1   
    10    6   21 1   
    11    7   23 1   
    12    7   25 1   
    13    8    9 ar  
    14    8   13 ar  
    15    8   23 1   
    16    9   10 ar  
    17    9   26 1   
    18   10   11 ar  
    19   10   27 1   
    20   11   12 ar  
    21   11   14 1   
    22   12   13 ar  
    23   12   28 1   
    24   13   29 1   
    25   14   15 2   
    26   14   16 2   
    27   14   17 1   
    28   17   30 1   
    29   17   31 1   
    30   18   19 1   
    31   18   20 1   
    32   21   22 1   
    33   22   32 1   
    34   22   33 1   
    35   22   34 1   
    36   23   35 1   
    37   23   36 1   
@<TRIPOS>SUBSTRUCTURE
     1 J71         1 TEMP              0 ****  ****    0 ROOT
