@<TRIPOS>MOLECULE
J71
   37    38     1     0     0
SMALL
bcc


@<TRIPOS>ATOM
      1 N1          0.8710    0.5860    0.3610 nb        1 J71     -0.787000
      2 C2          1.9850   -0.1550    0.5670 ca        1 J71      0.745900
      3 N3          2.3130   -0.8860    1.6530 nb        1 J71     -0.797000
      4 C4          1.4090   -0.9020    2.6930 ca        1 J71      0.765200
      5 C5          0.2390   -0.0530    2.6400 ca        1 J71     -0.522800
      6 C6         -0.0070    0.6370    1.4020 ca        1 J71      0.754600
      7 N7          1.5960   -1.7940    3.7370 nh        1 J71     -0.841900
      8 C8          3.6330   -1.5380    5.1550 ca        1 J71      0.030700
      9 C9          5.0050   -1.8070    5.3120 ca        1 J71     -0.152500
     10 C10         5.7400   -1.1600    6.2870 ca        1 J71      0.018500
     11 C11         5.1430   -0.2120    7.1530 ca        1 J71     -0.573500
     12 C12         3.7620    0.0420    6.9810 ca        1 J71      0.018500
     13 C13         3.0210   -0.6010    6.0020 ca        1 J71     -0.152500
     14 S14         5.9680    0.4640    8.3330 sy        1 J71      1.498200
     15 O15         5.2190    1.0560    9.3260 o         1 J71     -0.567300
     16 O16         7.2050   -0.0890    8.5870 o         1 J71     -0.567300
     17 N17         6.5270    2.0530    7.3810 n4        1 J71     -0.785500
     18 N18        -0.6500    0.1470    3.7890 no        1 J71      0.347200
     19 O19        -1.7700    0.5270    3.6190 o         1 J71     -0.213000
     20 O20        -0.2110   -0.0510    4.9040 o         1 J71     -0.213000
     21 O21        -1.1460    1.3750    1.3390 os        1 J71     -0.399100
     22 C22        -1.4410    2.0750    0.1190 c3        1 J71      0.119700
     23 C23         2.8790   -2.3130    4.1060 c3        1 J71      0.227100
     24 H2          2.7200   -0.1720   -0.2710 h5        1 J71      0.075100
     25 HN7         0.9130   -1.7890    4.4690 hn        1 J71      0.463800
     26 H9          5.4950   -2.5460    4.6530 ha        1 J71      0.187000
     27 H10         6.8140   -1.3990    6.4110 ha        1 J71      0.170500
     28 H12         3.2560    0.7560    7.6600 ha        1 J71      0.170500
     29 H13         1.9420   -0.3640    5.9120 ha        1 J71      0.187000
     30 HN17        6.1820    2.0740    6.4280 hn        1 J71      0.454133
     31 HN1A        7.5430    2.1060    7.3500 hn        1 J71      0.454133
     32 H22        -0.6540    2.8370   -0.0900 h1        1 J71      0.070033
     33 H22A       -1.5390    1.3540   -0.7270 h1        1 J71      0.070033
     34 H22B       -2.4240    2.5570    0.3590 h1        1 J71      0.070033
     35 H23         3.5390   -2.4280    3.1950 h1        1 J71      0.109700
     36 H23A        2.7080   -3.3520    4.5300 h1        1 J71      0.109700
     37 H173        6.1860    2.8860    7.8580 hn        1 J71      0.454133
@<TRIPOS>BOND
     1    1    2 ar  
     2    1    6 ar  
     3    2    3 ar  
     4    2   24 1   
     5    3    4 ar  
     6    4    5 ar  
     7    4    7 1   
     8    5    6 ar  
     9    5   18 1   
    10    6   21 1   
    11    7   23 1   
    12    7   25 1   
    13    8    9 ar  
    14    8   13 ar  
    15    8   23 1   
    16    9   10 ar  
    17    9   26 1   
    18   10   11 ar  
    19   10   27 1   
    20   11   12 ar  
    21   11   14 1   
    22   12   13 ar  
    23   12   28 1   
    24   13   29 1   
    25   14   15 2   
    26   14   16 2   
    27   14   17 1   
    28   17   30 1   
    29   17   31 1   
    30   17   37 1   
    31   18   19 1   
    32   18   20 1   
    33   21   22 1   
    34   22   32 1   
    35   22   33 1   
    36   22   34 1   
    37   23   35 1   
    38   23   36 1   
@<TRIPOS>SUBSTRUCTURE
     1 J71         1 TEMP              0 ****  ****    0 ROOT
