@<TRIPOS>MOLECULE
J71
   37    38     1     0     0
SMALL
bcc


@<TRIPOS>ATOM
      1 N1          0.8710    0.6350    0.3690 nb        1 J71     -0.787000
      2 C2          1.9960   -0.0920    0.5640 ca        1 J71      0.745900
      3 N3          2.3340   -0.8390    1.6350 nb        1 J71     -0.797000
      4 C4          1.4270   -0.8910    2.6730 ca        1 J71      0.765200
      5 C5          0.2440   -0.0600    2.6330 ca        1 J71     -0.522800
      6 C6         -0.0100    0.6510    1.4080 ca        1 J71      0.754600
      7 N7          1.6270   -1.8010    3.6990 nu        1 J71     -0.841900
      8 C8          3.6560   -1.5390    5.1270 ca        1 J71      0.030700
      9 C9          5.0320   -1.7890    5.2800 ca        1 J71     -0.152500
     10 C10         5.7550   -1.1500    6.2710 ca        1 J71      0.018500
     11 C11         5.1390   -0.2300    7.1540 ca        1 J71     -0.573500
     12 C12         3.7550    0.0050    6.9840 ca        1 J71      0.018500
     13 C13         3.0270   -0.6300    5.9910 ca        1 J71     -0.152500
     14 S14         5.9520    0.4360    8.3500 sy        1 J71      1.497200
     15 O15         5.1910    0.9950    9.3530 o         1 J71     -0.567300
     16 O16         7.1970   -0.1010    8.5940 o         1 J71     -0.567300
     17 N17         6.4840    2.0530    7.4320 nz        1 J71     -0.785500
     18 N18        -0.6510    0.1020    3.7840 no        1 J71      0.347200
     19 O19        -1.7760    0.4680    3.6190 o         1 J71     -0.213000
     20 O20        -0.2110   -0.1110    4.8950 o         1 J71     -0.213000
     21 O21        -1.1610    1.3710    1.3580 os        1 J71     -0.399100
     22 C22        -1.4640    2.0910    0.1510 c3        1 J71      0.119700
     23 C23         2.9170   -2.3060    4.0600 c3        1 J71      0.227100
     24 H2          2.7330   -0.0800   -0.2720 h5        1 J71      0.075100
     25 HN7         0.9420   -1.8210    4.4290 hn        1 J71      0.463800
     26 H9          5.5360   -2.5050    4.6080 ha        1 J71      0.187500
     27 H10         6.8320   -1.3730    6.3920 ha        1 J71      0.170000
     28 H12         3.2360    0.6960    7.6770 ha        1 J71      0.170000
     29 H13         1.9440   -0.4100    5.9030 ha        1 J71      0.187500
     30 HN17        6.1400    2.0880    6.4780 hn        1 J71      0.454133
     31 HN1A        6.1290    2.8700    7.9250 hn        1 J71      0.454133
     32 H22        -2.4550    2.5520    0.3980 h1        1 J71      0.070033
     33 H22A       -0.6890    2.8690   -0.0410 h1        1 J71      0.070033
     34 H22B       -1.5490    1.3860   -0.7100 h1        1 J71      0.070033
     35 H23         2.7620   -3.3560    4.4630 h1        1 J71      0.109700
     36 H23A        3.5810   -2.3930    3.1490 h1        1 J71      0.109700
     37 H173        7.4990    2.1240    7.4040 hn        1 J71      0.454133
@<TRIPOS>BOND
     1    1    2 ar  
     2    1    6 ar  
     3    2    3 ar  
     4    2   24 1   
     5    3    4 ar  
     6    4    5 ar  
     7    4    7 1   
     8    5    6 ar  
     9    5   18 1   
    10    6   21 1   
    11    7   23 1   
    12    7   25 1   
    13    8    9 ar  
    14    8   13 ar  
    15    8   23 1   
    16    9   10 ar  
    17    9   26 1   
    18   10   11 ar  
    19   10   27 1   
    20   11   12 ar  
    21   11   14 1   
    22   12   13 ar  
    23   12   28 1   
    24   13   29 1   
    25   14   15 2   
    26   14   16 2   
    27   14   17 1   
    28   17   30 1   
    29   17   31 1   
    30   17   37 1   
    31   18   19 1   
    32   18   20 1   
    33   21   22 1   
    34   22   32 1   
    35   22   33 1   
    36   22   34 1   
    37   23   35 1   
    38   23   36 1   
@<TRIPOS>SUBSTRUCTURE
     1 J71         1 TEMP              0 ****  ****    0 ROOT
