@<TRIPOS>MOLECULE
J72
   37    40     1     0     0
SMALL
bcc


@<TRIPOS>ATOM
      1 O1          0.4420   -0.6820   -0.4310 oh        1 J72     -0.338500
      2 N2          1.7300   -0.6160   -0.2160 n2        1 J72     -0.356200
      3 C3          2.1190   -0.3950    1.0080 cc        1 J72      0.361900
      4 C4          3.6050   -0.3020    1.3630 c         1 J72      0.630200
      5 O5          4.5740   -0.3740    0.6050 o         1 J72     -0.570500
      6 N6          3.6900   -0.1360    2.7680 n         1 J72     -0.373000
      7 C7          4.9090    0.1330    3.4750 c3        1 J72      0.156300
      8 C8          5.2810    1.5850    3.5890 ca        1 J72     -0.114300
      9 C9          5.6880    2.2900    2.4560 ca        1 J72     -0.120000
     10 C10         6.0650    3.6410    2.5620 ca        1 J72      0.102900
     11 F11         6.4680    4.3160    1.4580 f         1 J72     -0.135900
     12 C12         6.0250    4.3020    3.8040 ca        1 J72     -0.120000
     13 C13         5.6120    3.6050    4.9340 ca        1 J72     -0.159300
     14 C14         5.5270    4.2650    6.2680 c3        1 J72      0.173700
     15 O15         4.8550    3.4390    7.2230 os        1 J72     -0.419600
     16 C16         5.2610    2.0950    7.1800 c3        1 J72      0.318200
     17 O17         4.8210    1.5440    5.9380 os        1 J72     -0.358900
     18 C18         5.2500    2.2500    4.8250 ca        1 J72      0.127100
     19 C19         2.3930   -0.0050    3.3110 ca        1 J72      0.061600
     20 C20         2.0020    0.2380    4.6260 ca        1 J72     -0.137000
     21 C21         0.6350    0.2810    4.9150 ca        1 J72     -0.121000
     22 C22        -0.3240    0.0900    3.9080 ca        1 J72      0.085900
     23 F23        -1.6430    0.1350    4.2190 f         1 J72     -0.139900
     24 C24         0.0600   -0.1440    2.5670 ca        1 J72     -0.087000
     25 C25         1.4070   -0.1870    2.2800 ca        1 J72     -0.187900
     26 HO1         0.3610   -0.8520   -1.3940 ho        1 J72      0.453000
     27 H7          4.8140   -0.3090    4.5100 h1        1 J72      0.082700
     28 H7A         5.7380   -0.4020    2.9230 h1        1 J72      0.082700
     29 H9          5.7170    1.7840    1.4760 ha        1 J72      0.173000
     30 H12         6.3130    5.3610    3.8710 ha        1 J72      0.154000
     31 H14         4.8970    5.1950    6.2280 h1        1 J72      0.070200
     32 H14A        6.5530    4.5110    6.6540 h1        1 J72      0.070200
     33 H16         4.6720    1.5550    7.9680 h2        1 J72      0.075700
     34 H16A        6.3710    1.9800    7.2860 h2        1 J72      0.075700
     35 H20         2.7460    0.4090    5.4200 ha        1 J72      0.165000
     36 H21         0.3030    0.4710    5.9470 ha        1 J72      0.153000
     37 H24        -0.6980   -0.2840    1.7820 ha        1 J72      0.167000
@<TRIPOS>BOND
     1    1    2 1   
     2    1   26 1   
     3    2    3 2   
     4    3    4 1   
     5    3   25 1   
     6    4    5 2   
     7    4    6 1   
     8    6    7 1   
     9    6   19 1   
    10    7    8 1   
    11    7   27 1   
    12    7   28 1   
    13    8    9 ar  
    14    8   18 ar  
    15    9   10 ar  
    16    9   29 1   
    17   10   11 1   
    18   10   12 ar  
    19   12   13 ar  
    20   12   30 1   
    21   13   14 1   
    22   13   18 ar  
    23   14   15 1   
    24   14   31 1   
    25   14   32 1   
    26   15   16 1   
    27   16   17 1   
    28   16   33 1   
    29   16   34 1   
    30   17   18 1   
    31   19   20 ar  
    32   19   25 ar  
    33   20   21 ar  
    34   20   35 1   
    35   21   22 ar  
    36   21   36 1   
    37   22   23 1   
    38   22   24 ar  
    39   24   25 ar  
    40   24   37 1   
@<TRIPOS>SUBSTRUCTURE
     1 J72         1 TEMP              0 ****  ****    0 ROOT
