@<TRIPOS>MOLECULE
J72
   37    40     1     0     0
SMALL
bcc


@<TRIPOS>ATOM
      1 O1         -4.3450   -2.8680   -0.8260 oh        1 J72     -0.338500
      2 N2         -3.1990   -3.0770   -0.2330 n2        1 J72     -0.356200
      3 C3         -2.5070   -2.0280    0.1130 cc        1 J72      0.361900
      4 C4         -1.1540   -2.1670    0.8150 c         1 J72      0.630200
      5 O5         -0.5460   -3.2020    1.0970 o         1 J72     -0.570500
      6 N6         -0.7040   -0.8580    1.1200 n         1 J72     -0.373000
      7 C7          0.5930   -0.5550    1.6530 c3        1 J72      0.156300
      8 C8          1.6800   -0.3610    0.6330 ca        1 J72     -0.114300
      9 C9          2.1480   -1.4500   -0.1020 ca        1 J72     -0.120000
     10 C10         3.1840   -1.2790   -1.0370 ca        1 J72      0.102900
     11 F11         3.6390   -2.3440   -1.7410 f         1 J72     -0.135900
     12 C12         3.7530   -0.0100   -1.2530 ca        1 J72     -0.120000
     13 C13         3.2840    1.0800   -0.5290 ca        1 J72     -0.159300
     14 C14         3.8340    2.4500   -0.7380 c3        1 J72      0.173700
     15 O15         3.0470    3.4410   -0.0730 os        1 J72     -0.419600
     16 C16         2.6750    3.0750    1.2310 c3        1 J72      0.318200
     17 O17         1.7660    1.9780    1.1360 os        1 J72     -0.358900
     18 C18         2.2570    0.9010    0.4160 ca        1 J72      0.127100
     19 C19        -1.5980    0.0910    0.5760 ca        1 J72      0.061600
     20 C20        -1.5220    1.4820    0.5740 ca        1 J72     -0.137000
     21 C21        -2.5710    2.2040   -0.0010 ca        1 J72     -0.121000
     22 C22        -3.6750    1.5480   -0.5690 ca        1 J72      0.085900
     23 F23        -4.6800    2.2750   -1.1170 f         1 J72     -0.139900
     24 C24        -3.7570    0.1350   -0.5850 ca        1 J72     -0.087000
     25 C25        -2.7230   -0.5780   -0.0180 ca        1 J72     -0.187900
     26 HO1        -4.7020   -3.7660   -0.9980 ho        1 J72      0.453000
     27 H7          0.5000    0.3790    2.2810 h1        1 J72      0.082700
     28 H7A         0.8860   -1.4190    2.3210 h1        1 J72      0.082700
     29 H9          1.7040   -2.4490    0.0540 ha        1 J72      0.173000
     30 H12         4.5560    0.1120   -1.9950 ha        1 J72      0.154000
     31 H14         4.8920    2.5120   -0.3660 h1        1 J72      0.070200
     32 H14A        3.7880    2.7520   -1.8190 h1        1 J72      0.070200
     33 H16         3.5570    2.7970    1.8650 h2        1 J72      0.075700
     34 H16A        2.0710    3.9260    1.6450 h2        1 J72      0.075700
     35 H20        -0.6510    2.0060    0.9980 ha        1 J72      0.165000
     36 H21        -2.5330    3.3040   -0.0140 ha        1 J72      0.153000
     37 H24        -4.6220   -0.3710   -1.0390 ha        1 J72      0.167000
@<TRIPOS>BOND
     1    1    2 1   
     2    1   26 1   
     3    2    3 2   
     4    3    4 1   
     5    3   25 1   
     6    4    5 2   
     7    4    6 1   
     8    6    7 1   
     9    6   19 1   
    10    7    8 1   
    11    7   27 1   
    12    7   28 1   
    13    8    9 ar  
    14    8   18 ar  
    15    9   10 ar  
    16    9   29 1   
    17   10   11 1   
    18   10   12 ar  
    19   12   13 ar  
    20   12   30 1   
    21   13   14 1   
    22   13   18 ar  
    23   14   15 1   
    24   14   31 1   
    25   14   32 1   
    26   15   16 1   
    27   16   17 1   
    28   16   33 1   
    29   16   34 1   
    30   17   18 1   
    31   19   20 ar  
    32   19   25 ar  
    33   20   21 ar  
    34   20   35 1   
    35   21   22 ar  
    36   21   36 1   
    37   22   23 1   
    38   22   24 ar  
    39   24   25 ar  
    40   24   37 1   
@<TRIPOS>SUBSTRUCTURE
     1 J72         1 TEMP              0 ****  ****    0 ROOT
