@<TRIPOS>MOLECULE
J72
   37    35     1     0     0
SMALL
bcc


@<TRIPOS>ATOM
      1 O1         -2.4970    2.0890   -4.1530 oh        1 J72     -0.210000
      2 N2         -1.8010    0.9450   -4.2590 n2        1 J72      0.017000
      3 C3         -1.4340    0.3210   -3.2130 c1        1 J72     -0.076000
      4 C4         -1.6940    0.7180   -1.8490 c1        1 J72      0.330000
      5 O5         -2.2480    1.6580   -1.5170 o         1 J72     -0.292000
      6 N6         -1.1080   -0.2660   -0.9820 n3        1 J72     -0.278000
      7 C7         -1.2430   -0.3150    0.5000 c3        1 J72      0.033000
      8 C8         -0.2620    0.7050    1.1470 c2        1 J72     -0.107000
      9 C9         -0.0040    1.9320    0.5060 c2        1 J72     -0.120000
     10 C10         0.7940    2.9130    1.1420 c1        1 J72      0.066000
     11 F11         0.8890    4.1340    0.6070 f         1 J72     -0.101000
     12 C12         1.3370    2.6660    2.4220 c1        1 J72     -0.120000
     13 C13         1.0880    1.4570    3.0640 c1        1 J72     -0.154000
     14 C14         1.5810    1.1420    4.4920 c3        1 J72      0.016000
     15 O15         1.1060    0.0440    5.0350 os        1 J72     -0.275000
     16 C16         0.8720   -1.0590    4.1910 c3        1 J72      0.096000
     17 O17         0.1150   -0.8370    3.0900 os        1 J72     -0.241000
     18 C18         0.2710    0.4550    2.4110 c1        1 J72      0.085000
     19 C19        -0.4720   -1.3100   -1.8350 c2        1 J72      0.072000
     20 C20         0.2070   -2.5090   -1.5110 c2        1 J72     -0.145000
     21 C21         0.7030   -3.3440   -2.5420 c1        1 J72     -0.125000
     22 C22         0.5200   -2.9810   -3.8810 c1        1 J72      0.051000
     23 F23         1.0780   -3.8570   -4.8570 f         1 J72     -0.105000
     24 C24        -0.1590   -1.7820   -4.2050 c1        1 J72     -0.087000
     25 C25        -0.6540   -0.9490   -3.1790 c1        1 J72     -0.076000
     26 HO1        -2.5310    2.4710   -4.9120 ho        1 J72      0.247000
     27 H7         -1.0400   -1.1930    0.8090 h1        1 J72      0.123000
     28 H7A        -2.0920   -0.1030    0.7320 h1        1 J72      0.123000
     29 H9         -0.4430    2.1410   -0.2990 ha        1 J72      0.175000
     30 H12         1.9300    3.3990    2.8910 ha        1 J72      0.153000
     31 H14         2.5660    1.0760    4.4710 h1        1 J72      0.109500
     32 H14A        1.3270    1.9310    5.1000 h1        1 J72      0.109500
     33 H16         1.8140   -1.4130    3.8630 h2        1 J72      0.115000
     34 H16A        0.3960   -1.7640    4.7440 h2        1 J72      0.115000
     35 H20         0.3320   -2.7580   -0.5810 ha        1 J72      0.159000
     36 H21         1.0360   -4.2190   -2.3290 ha        1 J72      0.151000
     37 H24        -0.2820   -1.5380   -5.1140 ha        1 J72      0.165000
@<TRIPOS>BOND
     1    1    2 1   
     2    1   26 1   
     3    2    3 1   
     4    3   25 1   
     5    4    5 1   
     6    4    6 1   
     7    6    7 1   
     8    6   19 1   
     9    7    8 1   
    10    7   27 1   
    11    7   28 1   
    12    8    9 1   
    13    8   18 1   
    14    9   10 1   
    15    9   29 1   
    16   10   11 1   
    17   12   13 1   
    18   12   30 1   
    19   13   14 1   
    20   14   15 1   
    21   14   31 1   
    22   14   32 1   
    23   15   16 1   
    24   16   17 1   
    25   16   33 1   
    26   16   34 1   
    27   17   18 1   
    28   19   20 1   
    29   19   25 1   
    30   20   21 1   
    31   20   35 1   
    32   21   36 1   
    33   22   23 1   
    34   22   24 1   
    35   24   37 1   
@<TRIPOS>SUBSTRUCTURE
     1 J72         1 TEMP              0 ****  ****    0 ROOT
