@<TRIPOS>MOLECULE
J72
   37    40     1     0     0
SMALL
bcc


@<TRIPOS>ATOM
      1 O1          0.4250   -0.6030   -0.4550 oh        1 J72     -0.338500
      2 N2          1.7130   -0.5650   -0.2320 n2        1 J72     -0.356200
      3 C3          2.0990   -0.3560    0.9950 cc        1 J72      0.361900
      4 C4          3.5840   -0.2960    1.3590 c         1 J72      0.630200
      5 O5          4.5560   -0.3870    0.6070 o         1 J72     -0.570500
      6 N6          3.6640   -0.1350    2.7660 n         1 J72     -0.373000
      7 C7          4.8830    0.1060    3.4810 c3        1 J72      0.156300
      8 C8          5.2860    1.5500    3.6000 ca        1 J72     -0.114300
      9 C9          5.7170    2.2480    2.4710 ca        1 J72     -0.120000
     10 C10         6.1220    3.5900    2.5830 ca        1 J72      0.102900
     11 F11         6.5470    4.2580    1.4830 f         1 J72     -0.135900
     12 C12         6.0880    4.2490    3.8260 ca        1 J72     -0.120000
     13 C13         5.6520    3.5590    4.9520 ca        1 J72     -0.159300
     14 C14         5.5720    4.2180    6.2870 c3        1 J72      0.173700
     15 O15         4.8760    3.4050    7.2350 os        1 J72     -0.419600
     16 C16         5.2530    2.0520    7.1920 c3        1 J72      0.318200
     17 O17         4.8090    1.5140    5.9460 os        1 J72     -0.358900
     18 C18         5.2610    2.2120    4.8380 ca        1 J72      0.127100
     19 C19         2.3660    0.0220    3.3000 ca        1 J72      0.061600
     20 C20         1.9720    0.2710    4.6130 ca        1 J72     -0.137000
     21 C21         0.6050    0.3430    4.8940 ca        1 J72     -0.121000
     22 C22        -0.3520    0.1750    3.8810 ca        1 J72      0.085900
     23 F23        -1.6720    0.2470    4.1840 f         1 J72     -0.139900
     24 C24         0.0360   -0.0640    2.5410 ca        1 J72     -0.087000
     25 C25         1.3840   -0.1360    2.2630 ca        1 J72     -0.187900
     26 HO1         0.3460   -0.7690   -1.4190 ho        1 J72      0.453000
     27 H7          5.7040   -0.4460    2.9320 h1        1 J72      0.082700
     28 H7A         4.7720   -0.3360    4.5140 h1        1 J72      0.082700
     29 H9          5.7400    1.7430    1.4900 ha        1 J72      0.173000
     30 H12         6.3980    5.3010    3.8970 ha        1 J72      0.154000
     31 H14         6.6010    4.4410    6.6790 h1        1 J72      0.070200
     32 H14A        4.9630    5.1610    6.2450 h1        1 J72      0.070200
     33 H16         6.3590    1.9130    7.3050 h2        1 J72      0.075700
     34 H16A        4.6470    1.5240    7.9750 h2        1 J72      0.075700
     35 H20         2.7150    0.4240    5.4120 ha        1 J72      0.165000
     36 H21         0.2700    0.5370    5.9250 ha        1 J72      0.153000
     37 H24        -0.7200   -0.1870    1.7510 ha        1 J72      0.167000
@<TRIPOS>BOND
     1    1    2 1   
     2    1   26 1   
     3    2    3 2   
     4    3    4 1   
     5    3   25 1   
     6    4    5 2   
     7    4    6 1   
     8    6    7 1   
     9    6   19 1   
    10    7    8 1   
    11    7   27 1   
    12    7   28 1   
    13    8    9 ar  
    14    8   18 ar  
    15    9   10 ar  
    16    9   29 1   
    17   10   11 1   
    18   10   12 ar  
    19   12   13 ar  
    20   12   30 1   
    21   13   14 1   
    22   13   18 ar  
    23   14   15 1   
    24   14   31 1   
    25   14   32 1   
    26   15   16 1   
    27   16   17 1   
    28   16   33 1   
    29   16   34 1   
    30   17   18 1   
    31   19   20 ar  
    32   19   25 ar  
    33   20   21 ar  
    34   20   35 1   
    35   21   22 ar  
    36   21   36 1   
    37   22   23 1   
    38   22   24 ar  
    39   24   25 ar  
    40   24   37 1   
@<TRIPOS>SUBSTRUCTURE
     1 J72         1 TEMP              0 ****  ****    0 ROOT
