@<TRIPOS>MOLECULE
J72
   37    40     1     0     0
SMALL
bcc


@<TRIPOS>ATOM
      1 O1          0.4410   -0.6400   -0.4490 oh        1 J72     -0.338500
      2 N2          1.7280   -0.5910   -0.2260 n2        1 J72     -0.356200
      3 C3          2.1120   -0.3750    1.0000 cc        1 J72      0.361900
      4 C4          3.5970   -0.3030    1.3640 c         1 J72      0.630200
      5 O5          4.5690   -0.3870    0.6120 o         1 J72     -0.570500
      6 N6          3.6760   -0.1370    2.7700 n         1 J72     -0.373000
      7 C7          4.8940    0.1160    3.4840 c3        1 J72      0.156300
      8 C8          5.2850    1.5630    3.5990 ca        1 J72     -0.114300
      9 C9          5.7090    2.2610    2.4680 ca        1 J72     -0.120000
     10 C10         6.1030    3.6070    2.5750 ca        1 J72      0.102900
     11 F11         6.5230    4.2750    1.4730 f         1 J72     -0.135900
     12 C12         6.0640    4.2690    3.8160 ca        1 J72     -0.120000
     13 C13         5.6330    3.5790    4.9440 ca        1 J72     -0.159300
     14 C14         5.5480    4.2420    6.2770 c3        1 J72      0.173700
     15 O15         4.8590    3.4260    7.2270 os        1 J72     -0.419600
     16 C16         5.2470    2.0770    7.1890 c3        1 J72      0.318200
     17 O17         4.8080    1.5310    5.9450 os        1 J72     -0.358900
     18 C18         5.2540    2.2290    4.8340 ca        1 J72      0.127100
     19 C19         2.3770    0.0100    3.3050 ca        1 J72      0.061600
     20 C20         1.9820    0.2580    4.6170 ca        1 J72     -0.137000
     21 C21         0.6140    0.3200    4.8990 ca        1 J72     -0.121000
     22 C22        -0.3420    0.1410    3.8860 ca        1 J72      0.085900
     23 F23        -1.6620    0.2030    4.1890 f         1 J72     -0.139900
     24 C24         0.0480   -0.0980    2.5460 ca        1 J72     -0.087000
     25 C25         1.3960   -0.1590    2.2680 ca        1 J72     -0.187900
     26 HO1         0.3630   -0.8090   -1.4130 ho        1 J72      0.453000
     27 H7          4.7870   -0.3240    4.5190 h1        1 J72      0.082700
     28 H7A         5.7190   -0.4310    2.9370 h1        1 J72      0.082700
     29 H9          5.7370    1.7540    1.4880 ha        1 J72      0.173000
     30 H12         6.3650    5.3250    3.8840 ha        1 J72      0.154000
     31 H14         6.5740    4.4750    6.6690 h1        1 J72      0.070200
     32 H14A        4.9310    5.1800    6.2320 h1        1 J72      0.070200
     33 H16         6.3540    1.9470    7.3030 h2        1 J72      0.075700
     34 H16A        4.6460    1.5460    7.9740 h2        1 J72      0.075700
     35 H20         2.7230    0.4200    5.4160 ha        1 J72      0.165000
     36 H21         0.2780    0.5140    5.9290 ha        1 J72      0.153000
     37 H24        -0.7080   -0.2280    1.7570 ha        1 J72      0.167000
@<TRIPOS>BOND
     1    1    2 1   
     2    1   26 1   
     3    2    3 2   
     4    3    4 1   
     5    3   25 1   
     6    4    5 2   
     7    4    6 1   
     8    6    7 1   
     9    6   19 1   
    10    7    8 1   
    11    7   27 1   
    12    7   28 1   
    13    8    9 ar  
    14    8   18 ar  
    15    9   10 ar  
    16    9   29 1   
    17   10   11 1   
    18   10   12 ar  
    19   12   13 ar  
    20   12   30 1   
    21   13   14 1   
    22   13   18 ar  
    23   14   15 1   
    24   14   31 1   
    25   14   32 1   
    26   15   16 1   
    27   16   17 1   
    28   16   33 1   
    29   16   34 1   
    30   17   18 1   
    31   19   20 ar  
    32   19   25 ar  
    33   20   21 ar  
    34   20   35 1   
    35   21   22 ar  
    36   21   36 1   
    37   22   23 1   
    38   22   24 ar  
    39   24   25 ar  
    40   24   37 1   
@<TRIPOS>SUBSTRUCTURE
     1 J72         1 TEMP              0 ****  ****    0 ROOT
