@<TRIPOS>MOLECULE
J73
   50    52     1     0     0
SMALL
bcc


@<TRIPOS>ATOM
      1 O42         0.2850   -0.7250   -0.3180 oh        1 J73     -0.606800
      2 C41         1.6680   -0.3910   -0.2600 c3        1 J73      0.120100
      3 C39         2.0240   -0.1960    1.1620 cc        1 J73      0.239600
      4 N38         3.3290    0.1280    1.6140 nc        1 J73     -0.353000
      5 N37         3.3270    0.2360    2.8790 nd        1 J73     -0.170800
      6 C40         1.2080   -0.2760    2.3050 cd        1 J73     -0.189600
      7 N36         2.0790    0.0150    3.3650 na        1 J73      0.042400
      8 C35         1.7170    0.0220    4.7680 c3        1 J73      0.056300
      9 C34         2.3300   -1.1280    5.5750 c3        1 J73     -0.051100
     10 C16         1.9070   -1.0240    6.9980 ca        1 J73     -0.113300
     11 C17         0.9390   -1.8930    7.5160 ca        1 J73     -0.102000
     12 C18         0.5510   -1.8120    8.8500 ca        1 J73     -0.158500
     13 C13         1.1390   -0.8360    9.6720 ca        1 J73      0.116100
     14 C14         2.1040    0.0450    9.1680 ca        1 J73     -0.158500
     15 C15         2.4840   -0.0600    7.8330 ca        1 J73     -0.102000
     16 O1          0.6550   -0.7790   10.9700 os        1 J73     -0.361900
     17 C1          1.5820   -0.3640   11.9700 c3        1 J73      0.304900
     18 C2          1.1110   -1.0130   13.2900 c3        1 J73      0.091100
     19 O2          2.1100   -0.8710   14.2860 oh        1 J73     -0.597800
     20 C3         -0.1510   -0.3260   13.8280 c3        1 J73      0.116100
     21 O3         -0.4780   -0.7720   15.1270 oh        1 J73     -0.594800
     22 C4          0.0310    1.2010   13.8200 c3        1 J73      0.085100
     23 O4         -1.1590    1.8550   14.2220 oh        1 J73     -0.594800
     24 C5          0.3600    1.6610   12.3920 c3        1 J73      0.147100
     25 O5          1.5830    1.0420   11.9680 os        1 J73     -0.421600
     26 C6          0.6140    3.1680   12.3470 c3        1 J73      0.134400
     27 O6          0.3500    3.5930   11.0200 oh        1 J73     -0.596800
     28 H42         0.0770   -0.8330   -1.2530 ho        1 J73      0.407000
     29 H411        2.2790   -1.2240   -0.7050 h1        1 J73      0.043200
     30 H412        1.8560    0.5540   -0.8420 h1        1 J73      0.043200
     31 H40         0.1490   -0.4930    2.4210 h4        1 J73      0.201000
     32 H351        2.0500    1.0010    5.2190 h1        1 J73      0.070200
     33 H352        0.5940   -0.0350    4.8250 h1        1 J73      0.070200
     34 H341        3.4500   -1.0830    5.5100 hc        1 J73      0.066200
     35 H342        2.0080   -2.1130    5.1450 hc        1 J73      0.066200
     36 H17         0.4800   -2.6530    6.8650 ha        1 J73      0.137000
     37 H15         3.2440    0.6270    7.4290 ha        1 J73      0.137000
     38 H18        -0.2110   -2.4870    9.2620 ha        1 J73      0.156000
     39 H14         2.5350    0.8230    9.8170 ha        1 J73      0.156000
     40 H1          2.6430   -0.6510   11.7230 h2        1 J73      0.086700
     41 H2          0.8980   -2.1030   13.1060 h1        1 J73      0.071700
     42 HA          2.8720   -1.3910   14.0030 ho        1 J73      0.415000
     43 H3         -1.0330   -0.6160   13.1890 h1        1 J73      0.105700
     44 HB          0.3130   -0.6760   15.6770 ho        1 J73      0.421000
     45 H4          0.8660    1.4820   14.5210 h1        1 J73      0.059700
     46 HC         -1.5210    1.3440   14.9610 ho        1 J73      0.421000
     47 H5         -0.4660    1.3790   11.6840 h1        1 J73      0.090700
     48 H61C        1.6790    3.3930   12.6220 h1        1 J73      0.046700
     49 H62C       -0.0870    3.6760   13.0630 h1        1 J73      0.046700
     50 H6          0.5230    4.5420   10.9980 ho        1 J73      0.401000
@<TRIPOS>BOND
     1    1    2 1   
     2    1   28 1   
     3    2    3 1   
     4    2   29 1   
     5    2   30 1   
     6    3    4 1   
     7    3    6 2   
     8    4    5 2   
     9    5    7 1   
    10    6    7 1   
    11    6   31 1   
    12    7    8 1   
    13    8    9 1   
    14    8   32 1   
    15    8   33 1   
    16    9   10 1   
    17    9   34 1   
    18    9   35 1   
    19   10   11 ar  
    20   10   15 ar  
    21   11   12 ar  
    22   11   36 1   
    23   12   13 ar  
    24   12   38 1   
    25   13   14 ar  
    26   13   16 1   
    27   14   15 ar  
    28   14   39 1   
    29   15   37 1   
    30   16   17 1   
    31   17   18 1   
    32   17   25 1   
    33   17   40 1   
    34   18   19 1   
    35   18   20 1   
    36   18   41 1   
    37   19   42 1   
    38   20   21 1   
    39   20   22 1   
    40   20   43 1   
    41   21   44 1   
    42   22   23 1   
    43   22   24 1   
    44   22   45 1   
    45   23   46 1   
    46   24   25 1   
    47   24   26 1   
    48   24   47 1   
    49   26   27 1   
    50   26   48 1   
    51   26   49 1   
    52   27   50 1   
@<TRIPOS>SUBSTRUCTURE
     1 J73         1 TEMP              0 ****  ****    0 ROOT
