@<TRIPOS>MOLECULE
J73
   50    48     1     0     0
SMALL
bcc


@<TRIPOS>ATOM
      1 O42        -3.0640    8.6260   -3.0730 oh        1 J73     -0.321000
      2 C41        -2.8880    7.3440   -3.6300 c3        1 J73      0.066000
      3 C39        -2.6410    6.3140   -2.4980 c2        1 J73     -0.211000
      4 N38        -2.7730    6.5410   -1.1870 n2        1 J73     -0.095000
      5 N37        -2.3710    5.4200   -0.5220 n2        1 J73      0.007000
      6 C40        -2.1480    5.0320   -2.6610 c1        1 J73     -0.119000
      7 N36        -1.9870    4.4930   -1.4480 n2        1 J73     -0.167000
      8 C35        -1.3560    3.2220   -1.1620 c2        1 J73     -0.005000
      9 C34        -2.3450    2.3150   -0.5260 c3        1 J73     -0.136000
     10 C16        -1.7280    0.9340   -0.3390 c2        1 J73     -0.113000
     11 C17        -1.7200    0.3450    0.9180 c2        1 J73     -0.095000
     12 C18        -1.2160   -0.9540    1.0810 c1        1 J73     -0.178000
     13 C13        -0.7200   -1.6570   -0.0250 c1        1 J73      0.084000
     14 C14        -0.7280   -1.0600   -1.2960 c1        1 J73     -0.152000
     15 C15        -1.2270    0.2250   -1.4570 c1        1 J73     -0.098000
     16 O1         -0.3610   -3.0120    0.1080 os        1 J73     -0.213000
     17 C1          0.8850   -3.1100    0.7460 c3        1 J73      0.119000
     18 C2          1.6290   -4.2840    0.1750 c3        1 J73     -0.022000
     19 O2          1.9560   -4.0070   -1.2100 oh        1 J73     -0.334000
     20 C3          2.8770   -4.5710    0.9120 c3        1 J73      0.042000
     21 O3          3.8240   -3.4940    0.6680 oh        1 J73     -0.336000
     22 C4          2.6500   -4.6940    2.3860 c3        1 J73      0.007000
     23 O4          1.9100   -5.8680    2.6380 oh        1 J73     -0.321000
     24 C5          1.8980   -3.5130    2.9500 c3        1 J73      0.007000
     25 O5          0.6670   -3.2310    2.2150 os        1 J73     -0.276000
     26 C6          2.7790   -2.3110    2.8940 c3        1 J73     -0.057000
     27 O6          2.8550   -1.7150    4.1840 oh        1 J73     -0.330000
     28 H42        -3.4560    9.1620   -3.6760 ho        1 J73      0.214000
     29 H411       -3.6830    7.0960   -4.1230 h1        1 J73      0.094000
     30 H412       -2.0950    7.3550   -4.2540 h1        1 J73      0.094000
     31 H40        -1.9580    4.6060   -3.4950 DU        1 J73      0.191000
     32 H351       -1.0470    2.8370   -1.9620 ha        1 J73      0.109500
     33 H352       -0.5900    3.3650   -0.5460 ha        1 J73      0.109500
     34 H341       -2.6070    2.6800    0.3540 hc        1 J73      0.106000
     35 H342       -3.1260    2.2450   -1.0920 hc        1 J73      0.106000
     36 H17        -2.0770    0.8520    1.7170 ha        1 J73      0.138000
     37 H15        -1.2320    0.6460   -2.3550 ha        1 J73      0.135000
     38 H18        -1.2100   -1.3730    1.9730 ha        1 J73      0.152000
     39 H14        -0.3680   -1.5700   -2.1010 ha        1 J73      0.149000
     40 H1          1.3980   -2.2930    0.5680 h2        1 J73      0.106000
     41 H2          1.0610   -5.0590    0.2130 h1        1 J73      0.129000
     42 HA          1.9510   -4.7660   -1.6730 ho        1 J73      0.224000
     43 H3          3.2620   -5.4220    0.5730 h1        1 J73      0.115000
     44 HB          4.4900   -3.7950    0.1750 ho        1 J73      0.228000
     45 H4          3.4820   -4.7590    2.8170 h1        1 J73      0.118000
     46 HC          2.3360   -6.3590    3.1880 ho        1 J73      0.212000
     47 H5          1.6690   -3.7000    3.8950 h1        1 J73      0.136000
     48 H61C        3.7030   -2.5850    2.5950 h1        1 J73      0.085500
     49 H62C        2.4190   -1.6820    2.2750 h1        1 J73      0.085500
     50 H6          3.0150   -0.8150    4.0950 ho        1 J73      0.209000
@<TRIPOS>BOND
     1    1    2 1   
     2    1   28 1   
     3    2    3 1   
     4    2   29 1   
     5    2   30 1   
     6    3    4 1   
     7    3    6 1   
     8    4    5 1   
     9    5    7 1   
    10    6    7 1   
    11    8    9 1   
    12    8   32 1   
    13    8   33 1   
    14    9   10 1   
    15    9   34 1   
    16    9   35 1   
    17   10   11 1   
    18   10   15 1   
    19   11   12 1   
    20   11   36 1   
    21   12   38 1   
    22   13   14 1   
    23   13   16 1   
    24   14   39 1   
    25   15   37 1   
    26   16   17 1   
    27   17   18 1   
    28   17   25 1   
    29   17   40 1   
    30   18   19 1   
    31   18   20 1   
    32   18   41 1   
    33   19   42 1   
    34   20   21 1   
    35   20   22 1   
    36   20   43 1   
    37   21   44 1   
    38   22   23 1   
    39   22   24 1   
    40   22   45 1   
    41   23   46 1   
    42   24   25 1   
    43   24   26 1   
    44   24   47 1   
    45   26   27 1   
    46   26   48 1   
    47   26   49 1   
    48   27   50 1   
@<TRIPOS>SUBSTRUCTURE
     1 J73         1 TEMP              0 ****  ****    0 ROOT
