@<TRIPOS>MOLECULE
J73
   50    52     1     0     0
SMALL
bcc


@<TRIPOS>ATOM
      1 O42         0.2880   -0.7290   -0.3170 oh        1 J73     -0.606800
      2 C41         1.6680   -0.3820   -0.2590 c3        1 J73      0.120100
      3 C39         2.0220   -0.1830    1.1630 cc        1 J73      0.239600
      4 N38         3.3240    0.1510    1.6160 nc        1 J73     -0.353000
      5 N37         3.3210    0.2580    2.8810 nd        1 J73     -0.170800
      6 C40         1.2070   -0.2700    2.3060 cd        1 J73     -0.189600
      7 N36         2.0750    0.0280    3.3660 na        1 J73      0.042400
      8 C35         1.7120    0.0310    4.7690 c3        1 J73      0.056300
      9 C34         2.3310   -1.1170    5.5750 c3        1 J73     -0.051100
     10 C16         1.9080   -1.0170    6.9980 ca        1 J73     -0.113300
     11 C17         0.9430   -1.8900    7.5140 ca        1 J73     -0.102000
     12 C18         0.5560   -1.8130    8.8480 ca        1 J73     -0.158500
     13 C13         1.1390   -0.8370    9.6720 ca        1 J73      0.116100
     14 C14         2.1000    0.0490    9.1700 ca        1 J73     -0.158500
     15 C15         2.4810   -0.0520    7.8350 ca        1 J73     -0.102000
     16 O1          0.6550   -0.7840   10.9710 os        1 J73     -0.361900
     17 C1          1.5810   -0.3690   11.9720 c3        1 J73      0.304900
     18 C2          1.1120   -1.0230   13.2890 c3        1 J73      0.091100
     19 O2          2.1110   -0.8810   14.2860 oh        1 J73     -0.597800
     20 C3         -0.1510   -0.3410   13.8300 c3        1 J73      0.116100
     21 O3         -0.4770   -0.7920   15.1280 oh        1 J73     -0.594800
     22 C4          0.0260    1.1860   13.8260 c3        1 J73      0.085100
     23 O4         -1.1660    1.8360   14.2300 oh        1 J73     -0.594800
     24 C5          0.3540    1.6510   12.3990 c3        1 J73      0.147100
     25 O5          1.5780    1.0360   11.9740 os        1 J73     -0.421600
     26 C6          0.6040    3.1590   12.3580 c3        1 J73      0.134400
     27 O6          0.3370    3.5870   11.0320 oh        1 J73     -0.596800
     28 H42         0.0810   -0.8390   -1.2520 ho        1 J73      0.407000
     29 H411        2.2870   -1.2090   -0.7040 h1        1 J73      0.043200
     30 H412        1.8480    0.5650   -0.8400 h1        1 J73      0.043200
     31 H40         0.1490   -0.4960    2.4220 h4        1 J73      0.201000
     32 H351        2.0400    1.0110    5.2220 h1        1 J73      0.070200
     33 H352        0.5900   -0.0330    4.8260 h1        1 J73      0.070200
     34 H341        3.4520   -1.0650    5.5100 hc        1 J73      0.066200
     35 H342        2.0150   -2.1030    5.1440 hc        1 J73      0.066200
     36 H17         0.4880   -2.6510    6.8620 ha        1 J73      0.137000
     37 H15         3.2380    0.6390    7.4320 ha        1 J73      0.137000
     38 H18        -0.2040   -2.4930    9.2600 ha        1 J73      0.156000
     39 H14         2.5290    0.8280    9.8200 ha        1 J73      0.156000
     40 H1          2.6430   -0.6530   11.7240 h2        1 J73      0.086700
     41 H2          0.9020   -2.1130   13.1020 h1        1 J73      0.071700
     42 HA          2.8740   -1.3980   14.0010 ho        1 J73      0.415000
     43 H3         -1.0330   -0.6310   13.1900 h1        1 J73      0.105700
     44 HB          0.3140   -0.6950   15.6780 ho        1 J73      0.421000
     45 H4          0.8610    1.4680   14.5270 h1        1 J73      0.059700
     46 HC         -1.5260    1.3220   14.9670 ho        1 J73      0.421000
     47 H5         -0.4720    1.3690   11.6900 h1        1 J73      0.090700
     48 H61C        1.6670    3.3860   12.6340 h1        1 J73      0.046700
     49 H62C       -0.0980    3.6630   13.0760 h1        1 J73      0.046700
     50 H6          0.5080    4.5360   11.0140 ho        1 J73      0.401000
@<TRIPOS>BOND
     1    1    2 1   
     2    1   28 1   
     3    2    3 1   
     4    2   29 1   
     5    2   30 1   
     6    3    4 1   
     7    3    6 2   
     8    4    5 2   
     9    5    7 1   
    10    6    7 1   
    11    6   31 1   
    12    7    8 1   
    13    8    9 1   
    14    8   32 1   
    15    8   33 1   
    16    9   10 1   
    17    9   34 1   
    18    9   35 1   
    19   10   11 ar  
    20   10   15 ar  
    21   11   12 ar  
    22   11   36 1   
    23   12   13 ar  
    24   12   38 1   
    25   13   14 ar  
    26   13   16 1   
    27   14   15 ar  
    28   14   39 1   
    29   15   37 1   
    30   16   17 1   
    31   17   18 1   
    32   17   25 1   
    33   17   40 1   
    34   18   19 1   
    35   18   20 1   
    36   18   41 1   
    37   19   42 1   
    38   20   21 1   
    39   20   22 1   
    40   20   43 1   
    41   21   44 1   
    42   22   23 1   
    43   22   24 1   
    44   22   45 1   
    45   23   46 1   
    46   24   25 1   
    47   24   26 1   
    48   24   47 1   
    49   26   27 1   
    50   26   48 1   
    51   26   49 1   
    52   27   50 1   
@<TRIPOS>SUBSTRUCTURE
     1 J73         1 TEMP              0 ****  ****    0 ROOT
