@<TRIPOS>MOLECULE
J73
   50    52     1     0     0
SMALL
bcc


@<TRIPOS>ATOM
      1 O42         8.7100    0.6840   -1.8090 oh        1 J73     -0.606800
      2 C41         8.7840    0.3020   -0.4400 c3        1 J73      0.120100
      3 C39         7.4000    0.1560    0.0620 cc        1 J73      0.239600
      4 N38         7.0740   -0.2380    1.3850 nc        1 J73     -0.353000
      5 N37         5.8130   -0.2710    1.5210 nd        1 J73     -0.170800
      6 C40         6.1820    0.3660   -0.6090 cd        1 J73     -0.189600
      7 N36         5.2080    0.0910    0.3620 na        1 J73      0.042400
      8 C35         3.7760    0.1300    0.1450 c3        1 J73      0.056300
      9 C34         3.1040   -1.2470    0.1650 c3        1 J73     -0.051100
     10 C16         1.6410   -1.0970   -0.0550 ca        1 J73     -0.113300
     11 C17         1.0700   -1.4320   -1.2890 ca        1 J73     -0.102000
     12 C18        -0.3000   -1.3100   -1.4950 ca        1 J73     -0.158500
     13 C13        -1.1070   -0.8330   -0.4490 ca        1 J73      0.116100
     14 C14        -0.5520   -0.4860    0.7880 ca        1 J73     -0.158500
     15 C15         0.8210   -0.6260    0.9770 ca        1 J73     -0.102000
     16 O1         -2.4520   -0.6800   -0.7530 os        1 J73     -0.361900
     17 C1         -3.3660   -0.8750    0.3220 c3        1 J73      0.304900
     18 C2         -4.6910   -1.3440   -0.3200 c3        1 J73      0.091100
     19 O2         -5.5790   -1.8100    0.6830 oh        1 J73     -0.597800
     20 C3         -5.4010   -0.1890   -1.0370 c3        1 J73      0.116100
     21 O3         -6.7010   -0.5500   -1.4540 oh        1 J73     -0.594800
     22 C4         -5.4590    1.0480   -0.1250 c3        1 J73      0.085100
     23 O4         -6.0250    2.1540   -0.8050 oh        1 J73     -0.594800
     24 C5         -4.0320    1.4330    0.2930 c3        1 J73      0.147100
     25 O5         -3.4440    0.3440    1.0170 os        1 J73     -0.421600
     26 C6         -4.0450    2.6210    1.2560 c3        1 J73      0.134400
     27 O6         -2.7810    3.2560    1.1480 oh        1 J73     -0.596800
     28 H42         9.6220    0.7840   -2.1070 ho        1 J73      0.407000
     29 H411        9.3370   -0.6740   -0.3460 h1        1 J73      0.043200
     30 H412        9.3290    1.0910    0.1470 h1        1 J73      0.043200
     31 H40         5.9640    0.6770   -1.6280 h4        1 J73      0.201000
     32 H351        3.3090    0.7740    0.9460 h1        1 J73      0.070200
     33 H352        3.6010    0.6200   -0.8540 h1        1 J73      0.070200
     34 H341        3.5510   -1.9030   -0.6290 hc        1 J73      0.066200
     35 H342        3.2880   -1.7450    1.1550 hc        1 J73      0.066200
     36 H17         1.7090   -1.8030   -2.1060 ha        1 J73      0.137000
     37 H15         1.2660   -0.3580    1.9480 ha        1 J73      0.137000
     38 H18        -0.7550   -1.5680   -2.4620 ha        1 J73      0.156000
     39 H14        -1.1920   -0.0860    1.5900 ha        1 J73      0.156000
     40 H1         -2.9900   -1.6150    1.0830 h2        1 J73      0.086700
     41 H2         -4.4700   -2.1660   -1.0550 h1        1 J73      0.071700
     42 HA         -5.1850   -2.6030    1.0680 ho        1 J73      0.415000
     43 H3         -4.8460    0.0560   -1.9870 h1        1 J73      0.105700
     44 HB         -7.1650   -0.9080   -0.6850 ho        1 J73      0.421000
     45 H4         -6.0800    0.8130    0.7850 h1        1 J73      0.059700
     46 HC         -6.7690    1.8110   -1.3220 ho        1 J73      0.421000
     47 H5         -3.4030    1.6640   -0.6100 h1        1 J73      0.090700
     48 H61C       -4.8610    3.3290    0.9470 h1        1 J73      0.046700
     49 H62C       -4.2150    2.2690    2.3080 h1        1 J73      0.046700
     50 H6         -2.7950    3.9950    1.7660 ho        1 J73      0.401000
@<TRIPOS>BOND
     1    1    2 1   
     2    1   28 1   
     3    2    3 1   
     4    2   29 1   
     5    2   30 1   
     6    3    4 1   
     7    3    6 2   
     8    4    5 2   
     9    5    7 1   
    10    6    7 1   
    11    6   31 1   
    12    7    8 1   
    13    8    9 1   
    14    8   32 1   
    15    8   33 1   
    16    9   10 1   
    17    9   34 1   
    18    9   35 1   
    19   10   11 ar  
    20   10   15 ar  
    21   11   12 ar  
    22   11   36 1   
    23   12   13 ar  
    24   12   38 1   
    25   13   14 ar  
    26   13   16 1   
    27   14   15 ar  
    28   14   39 1   
    29   15   37 1   
    30   16   17 1   
    31   17   18 1   
    32   17   25 1   
    33   17   40 1   
    34   18   19 1   
    35   18   20 1   
    36   18   41 1   
    37   19   42 1   
    38   20   21 1   
    39   20   22 1   
    40   20   43 1   
    41   21   44 1   
    42   22   23 1   
    43   22   24 1   
    44   22   45 1   
    45   23   46 1   
    46   24   25 1   
    47   24   26 1   
    48   24   47 1   
    49   26   27 1   
    50   26   48 1   
    51   26   49 1   
    52   27   50 1   
@<TRIPOS>SUBSTRUCTURE
     1 J73         1 TEMP              0 ****  ****    0 ROOT
