@<TRIPOS>MOLECULE
J74
   35    29     1     0     0
SMALL
bcc


@<TRIPOS>ATOM
      1 N1         -3.8480   -3.8070    2.5080 n1        1 J74     -0.207000
      2 C2         -3.0800   -4.2600    1.4770 c1        1 J74      0.057000
      3 N3         -1.8970   -3.6370    1.1770 n1        1 J74     -0.241000
      4 C4         -1.4940   -2.5790    1.8990 c1        1 J74      0.241000
      5 C5         -2.2610   -2.1290    2.9280 c1        1 J74     -0.325000
      6 C6         -3.4490   -2.7560    3.2270 c1        1 J74      0.118000
      7 N7         -0.2180   -1.9570    1.6230 n3        1 J74     -0.286000
      8 C8          1.4750    0.2800   -0.6270 c1        1 J74     -0.032000
      9 C9          2.3010    0.3260   -1.7710 c1        1 J74     -0.084000
     10 C10         2.4050    1.4970   -2.5040 c1        1 J74     -0.084000
     11 C11         1.6990    2.6200   -2.1150 c1        1 J74     -0.822000
     12 C12         0.8720    2.5730   -0.9710 c1        1 J74     -0.006000
     13 C13         0.7690    1.4040   -0.2400 c1        1 J74     -0.157000
     14 S14         1.7980    4.0970   -3.0680 s4        1 J74      2.082800
     15 O15         1.7110    5.2410   -2.2490 o         1 J74     -0.544400
     16 O16         3.0870    4.2640   -3.6300 o         1 J74     -0.544400
     17 N17         0.6110    4.1020   -4.2480 n2        1 J74     -0.953000
     18 N18        -1.7740   -1.0920    3.7760 no        1 J74      0.591000
     19 O19        -2.4860   -0.7290    4.9100 o         1 J74     -0.354500
     20 O20        -0.6900   -0.4890    3.4870 o         1 J74     -0.354500
     21 CL21       -4.4770   -2.1140    4.4700 cl        1 J74      0.081000
     22 C22         0.1120   -1.5690    0.2860 c3        1 J74     -0.022000
     23 C23         1.4850   -0.9470    0.2690 c3        1 J74     -0.150000
     24 H2         -3.3690   -5.0190    0.9570 ha        1 J74      0.207000
     25 HN7         0.4060   -1.9060    2.2730 hn        1 J74      0.266000
     26 H9          2.7960   -0.4610   -2.0430 ha        1 J74      0.149500
     27 H10         2.9620    1.5280   -3.2750 ha        1 J74      0.149500
     28 H12         0.3610    3.3870   -0.6900 ha        1 J74      0.156000
     29 H13         0.2100    1.3730    0.5370 ha        1 J74      0.144000
     30 HN17       -0.0560    4.7490   -4.2320 hn        1 J74      0.245000
     31 HN1A        0.6500    3.5040   -4.9380 hn        1 J74      0.245000
     32 H22        -0.5570   -0.9050   -0.0440 h1        1 J74      0.105000
     33 H22A        0.1040   -2.3400   -0.2830 h1        1 J74      0.105000
     34 H23         1.7350   -0.6830    1.1800 hc        1 J74      0.111000
     35 H23A        2.1070   -1.5680   -0.0590 hc        1 J74      0.111000
@<TRIPOS>BOND
     1    1    6 1   
     2    2    3 1   
     3    2   24 1   
     4    4    5 1   
     5    4    7 1   
     6    5   18 1   
     7    6   21 1   
     8    7   22 1   
     9    7   25 1   
    10    8   13 1   
    11    8   23 1   
    12    9   10 1   
    13    9   26 1   
    14   10   27 1   
    15   11   12 1   
    16   11   14 1   
    17   12   28 1   
    18   13   29 1   
    19   14   15 1   
    20   14   16 1   
    21   17   30 1   
    22   17   31 1   
    23   18   19 1   
    24   18   20 1   
    25   22   23 1   
    26   22   32 1   
    27   22   33 1   
    28   23   34 1   
    29   23   35 1   
@<TRIPOS>SUBSTRUCTURE
     1 J74         1 TEMP              0 ****  ****    0 ROOT
