@<TRIPOS>MOLECULE
J74
   35    36     1     0     0
SMALL
bcc


@<TRIPOS>ATOM
      1 N1         -0.0540   -0.3270   -0.0580 nb        1 J74     -0.733000
      2 C2          1.3060   -0.3570    0.0240 ca        1 J74      0.720900
      3 N3          2.0730   -0.2270    1.1170 nb        1 J74     -0.765000
      4 C4          1.4200   -0.0640    2.3300 ca        1 J74      0.763200
      5 C5         -0.0330   -0.0690    2.3550 ca        1 J74     -0.501800
      6 C6         -0.7150   -0.1760    1.1100 ca        1 J74      0.613300
      7 N7          2.1580    0.0460    3.4780 nh        1 J74     -0.846900
      8 C8          5.6770    0.1520    4.8130 ca        1 J74     -0.023300
      9 C9          6.4230    1.3190    5.0120 ca        1 J74     -0.151500
     10 C10         7.8140    1.2740    4.9630 ca        1 J74     -0.015000
     11 C11         8.4880    0.0730    4.7200 ca        1 J74     -0.379500
     12 C12         7.7330   -1.0880    4.5140 ca        1 J74     -0.015000
     13 C13         6.3430   -1.0540    4.5610 ca        1 J74     -0.151500
     14 S14        10.1790    0.0310    4.6350 sy        1 J74      1.527200
     15 O15        10.5520   -1.0580    3.8190 o         1 J74     -0.655800
     16 O16        10.6330    1.3150    4.2690 o         1 J74     -0.655800
     17 N17        10.6130   -0.2710    6.1460 n3        1 J74     -1.027700
     18 N18        -0.7650    0.0240    3.6320 no        1 J74      0.336200
     19 O19        -0.3920    0.8260    4.4530 o         1 J74     -0.204500
     20 O20        -1.6850   -0.7130    3.8490 o         1 J74     -0.204500
     21 CL21       -2.4130   -0.0730    1.0440 cl        1 J74     -0.084000
     22 C22         3.6030    0.0620    3.4680 c3        1 J74      0.215800
     23 C23         4.1900    0.1860    4.8790 c3        1 J74     -0.064100
     24 H2          1.8450   -0.4950   -0.9410 h5        1 J74      0.071100
     25 HN7         1.7060    0.3490    4.3150 hn        1 J74      0.468800
     26 H9          5.9120    2.2750    5.2040 ha        1 J74      0.143000
     27 H10         8.3970    2.2030    5.0990 ha        1 J74      0.156000
     28 H12         8.2520   -2.0380    4.2930 ha        1 J74      0.156000
     29 H13         5.7640   -1.9760    4.3980 ha        1 J74      0.143000
     30 HN17       10.8030    0.4340    6.8120 hn        1 J74      0.448800
     31 HN1A       10.7480   -1.1820    6.5050 hn        1 J74      0.448800
     32 H22         3.9730    0.9220    2.8380 h1        1 J74      0.068700
     33 H22A        3.9750   -0.8940    2.9970 h1        1 J74      0.068700
     34 H23         3.8290   -0.6610    5.5230 hc        1 J74      0.065200
     35 H23A        3.8460    1.1430    5.3560 hc        1 J74      0.065200
@<TRIPOS>BOND
     1    1    2 ar  
     2    1    6 ar  
     3    2    3 ar  
     4    2   24 1   
     5    3    4 ar  
     6    4    5 ar  
     7    4    7 1   
     8    5    6 ar  
     9    5   18 1   
    10    6   21 1   
    11    7   22 1   
    12    7   25 1   
    13    8    9 ar  
    14    8   13 ar  
    15    8   23 1   
    16    9   10 ar  
    17    9   26 1   
    18   10   11 ar  
    19   10   27 1   
    20   11   12 ar  
    21   11   14 1   
    22   12   13 ar  
    23   12   28 1   
    24   13   29 1   
    25   14   15 2   
    26   14   16 2   
    27   14   17 1   
    28   17   30 1   
    29   17   31 1   
    30   18   19 1   
    31   18   20 1   
    32   22   23 1   
    33   22   32 1   
    34   22   33 1   
    35   23   34 1   
    36   23   35 1   
@<TRIPOS>SUBSTRUCTURE
     1 J74         1 TEMP              0 ****  ****    0 ROOT
