@<TRIPOS>MOLECULE
J74
   36    37     1     0     0
SMALL
bcc


@<TRIPOS>ATOM
      1 N1         -0.0980    0.2280   -0.0310 nb        1 J74     -0.713000
      2 C2          1.2590    0.2020    0.0200 ca        1 J74      0.721900
      3 N3          2.0460    0.1310    1.1120 nb        1 J74     -0.774000
      4 C4          1.4100    0.0450    2.3330 ca        1 J74      0.753200
      5 C5         -0.0380    0.0290    2.3850 ca        1 J74     -0.482800
      6 C6         -0.7450    0.1490    1.1550 ca        1 J74      0.608300
      7 N7          2.1650   -0.0910    3.4840 nu        1 J74     -0.858900
      8 C8          5.7050   -0.2140    4.7510 ca        1 J74      0.072700
      9 C9          6.3450    1.0200    4.5400 ca        1 J74     -0.151500
     10 C10         7.7260    1.0910    4.4790 ca        1 J74      0.018000
     11 C11         8.5310   -0.0620    4.6310 ca        1 J74     -0.568500
     12 C12         7.8690   -1.2950    4.8390 ca        1 J74      0.018000
     13 C13         6.4880   -1.3710    4.9010 ca        1 J74     -0.151500
     14 S14        10.1150    0.0090    4.4700 sy        1 J74      1.496200
     15 O15        10.7480   -1.2010    4.2860 o         1 J74     -0.565800
     16 O16        10.6050    1.1790    3.9310 o         1 J74     -0.565800
     17 N17        10.5550    0.3120    6.3250 nz        1 J74     -0.786500
     18 N18        -0.7450   -0.1130    3.6750 no        1 J74      0.336200
     19 O19        -0.3590    0.5440    4.6120 o         1 J74     -0.195500
     20 O20        -1.6490   -0.8890    3.7780 o         1 J74     -0.195500
     21 Cl21       -2.4390    0.2360    1.1350 cl        1 J74     -0.059000
     22 C22         3.6040   -0.0320    3.4450 c3        1 J74      0.223800
     23 C23         4.2230   -0.2900    4.8280 c3        1 J74     -0.091100
     24 H2          1.7840    0.2600   -0.9610 h5        1 J74      0.077100
     25 HN7         1.7320    0.1460    4.3530 hn        1 J74      0.466800
     26 H9          5.7390    1.9340    4.4150 ha        1 J74      0.178000
     27 H10         8.2130    2.0670    4.2870 ha        1 J74      0.170000
     28 H12         8.4700   -2.2200    4.9330 ha        1 J74      0.170000
     29 H13         5.9980   -2.3490    5.0590 ha        1 J74      0.178000
     30 HN17        9.7330    0.3510    6.9190 hn        1 J74      0.455133
     31 HN1A       11.1570   -0.4330    6.6710 hn        1 J74      0.455133
     32 H22         3.9510    0.9780    3.0750 h1        1 J74      0.064200
     33 H22A        3.9810   -0.8120    2.7230 h1        1 J74      0.064200
     34 H23         3.8560    0.4780    5.5650 hc        1 J74      0.087700
     35 H23A        3.9020   -1.2990    5.2060 hc        1 J74      0.087700
     36 H173       11.0590    1.1910    6.4290 hn        1 J74      0.455133
@<TRIPOS>BOND
     1    1    2 ar  
     2    1    6 ar  
     3    2    3 ar  
     4    2   24 1   
     5    3    4 ar  
     6    4    5 ar  
     7    4    7 1   
     8    5    6 ar  
     9    5   18 1   
    10    6   21 1   
    11    7   22 1   
    12    7   25 1   
    13    8    9 ar  
    14    8   13 ar  
    15    8   23 1   
    16    9   10 ar  
    17    9   26 1   
    18   10   11 ar  
    19   10   27 1   
    20   11   12 ar  
    21   11   14 1   
    22   12   13 ar  
    23   12   28 1   
    24   13   29 1   
    25   14   15 2   
    26   14   16 2   
    27   14   17 1   
    28   17   30 1   
    29   17   31 1   
    30   17   36 1   
    31   18   19 1   
    32   18   20 1   
    33   22   23 1   
    34   22   32 1   
    35   22   33 1   
    36   23   34 1   
    37   23   35 1   
@<TRIPOS>SUBSTRUCTURE
     1 J74         1 TEMP              0 ****  ****    0 ROOT
