@<TRIPOS>MOLECULE
J74
   35    36     1     0     0
SMALL
bcc


@<TRIPOS>ATOM
      1 N1          4.8570   -2.2490   -0.3460 nb        1 J74     -0.733000
      2 C2          3.5240   -2.5320   -0.3840 ca        1 J74      0.720900
      3 N3          2.4930   -1.6840   -0.2440 nb        1 J74     -0.765000
      4 C4          2.8000   -0.3440   -0.0610 ca        1 J74      0.763200
      5 C5          4.1930    0.0670   -0.0570 ca        1 J74     -0.501800
      6 C6          5.1830   -0.9500   -0.1760 ca        1 J74      0.613300
      7 N7          1.7830    0.5650    0.0600 nh        1 J74     -0.846900
      8 C8         -1.9650    0.9140    0.1630 ca        1 J74     -0.023300
      9 C9         -2.7390    0.8900    1.3280 ca        1 J74     -0.151500
     10 C10        -4.0670    0.4740    1.2750 ca        1 J74     -0.015000
     11 C11        -4.6500    0.0770    0.0660 ca        1 J74     -0.379500
     12 C12        -3.8650    0.0970   -1.0930 ca        1 J74     -0.015000
     13 C13        -2.5370    0.5120   -1.0510 ca        1 J74     -0.151500
     14 S14        -6.2570   -0.4540    0.0130 sy        1 J74      1.527200
     15 O15        -6.3970   -1.3230   -1.0890 o         1 J74     -0.655800
     16 O16        -6.6000   -0.9460    1.2900 o         1 J74     -0.655800
     17 N17        -7.0770    0.8920   -0.2700 n3        1 J74     -1.027700
     18 N18         4.5590    1.4910    0.0570 no        1 J74      0.336200
     19 O19         3.9800    2.1720    0.8680 o         1 J74     -0.204500
     20 O20         5.3900    1.9550   -0.6720 o         1 J74     -0.204500
     21 CL21        6.8360   -0.5640   -0.0640 cl        1 J74     -0.084000
     22 C22         0.3920    0.1710    0.0670 c3        1 J74      0.215800
     23 C23        -0.5490    1.3730    0.2060 c3        1 J74     -0.064100
     24 H2          3.2620   -3.6030   -0.5370 h5        1 J74      0.071100
     25 HN7         1.9950    1.4870    0.3770 hn        1 J74      0.468800
     26 H9         -2.3000    1.1970    2.2890 ha        1 J74      0.143000
     27 H10        -4.6670    0.4360    2.2020 ha        1 J74      0.156000
     28 H12        -4.3040   -0.2400   -2.0490 ha        1 J74      0.156000
     29 H13        -1.9340    0.5220   -1.9710 ha        1 J74      0.143000
     30 HN17       -7.3010    1.2160   -1.1770 hn        1 J74      0.448800
     31 HN1A       -7.4390    1.4730    0.4430 hn        1 J74      0.448800
     32 H22         0.1610   -0.3680   -0.8970 h1        1 J74      0.068700
     33 H22A        0.2010   -0.5470    0.9160 h1        1 J74      0.068700
     34 H23        -0.3700    2.1020   -0.6300 hc        1 J74      0.065200
     35 H23A       -0.3470    1.9100    1.1710 hc        1 J74      0.065200
@<TRIPOS>BOND
     1    1    2 ar  
     2    1    6 ar  
     3    2    3 ar  
     4    2   24 1   
     5    3    4 ar  
     6    4    5 ar  
     7    4    7 1   
     8    5    6 ar  
     9    5   18 1   
    10    6   21 1   
    11    7   22 1   
    12    7   25 1   
    13    8    9 ar  
    14    8   13 ar  
    15    8   23 1   
    16    9   10 ar  
    17    9   26 1   
    18   10   11 ar  
    19   10   27 1   
    20   11   12 ar  
    21   11   14 1   
    22   12   13 ar  
    23   12   28 1   
    24   13   29 1   
    25   14   15 2   
    26   14   16 2   
    27   14   17 1   
    28   17   30 1   
    29   17   31 1   
    30   18   19 1   
    31   18   20 1   
    32   22   23 1   
    33   22   32 1   
    34   22   33 1   
    35   23   34 1   
    36   23   35 1   
@<TRIPOS>SUBSTRUCTURE
     1 J74         1 TEMP              0 ****  ****    0 ROOT
