@<TRIPOS>MOLECULE
J74
   36    37     1     0     0
SMALL
bcc


@<TRIPOS>ATOM
      1 N1         -0.1000    0.2240   -0.0290 nb        1 J74     -0.713000
      2 C2          1.2570    0.1990    0.0210 ca        1 J74      0.721900
      3 N3          2.0440    0.1290    1.1130 nb        1 J74     -0.774000
      4 C4          1.4100    0.0430    2.3350 ca        1 J74      0.753200
      5 C5         -0.0380    0.0260    2.3880 ca        1 J74     -0.482800
      6 C6         -0.7460    0.1450    1.1570 ca        1 J74      0.608300
      7 N7          2.1650   -0.0930    3.4850 nh        1 J74     -0.858900
      8 C8          5.7060   -0.2140    4.7500 ca        1 J74      0.072700
      9 C9          6.3450    1.0210    4.5400 ca        1 J74     -0.151500
     10 C10         7.7250    1.0930    4.4780 ca        1 J74      0.018000
     11 C11         8.5310   -0.0600    4.6300 ca        1 J74     -0.568500
     12 C12         7.8700   -1.2930    4.8370 ca        1 J74      0.018000
     13 C13         6.4890   -1.3710    4.8990 ca        1 J74     -0.151500
     14 S14        10.1160    0.0130    4.4680 sy        1 J74      1.496200
     15 O15        10.7490   -1.1970    4.2830 o         1 J74     -0.565800
     16 O16        10.6040    1.1830    3.9300 o         1 J74     -0.565800
     17 N17        10.5560    0.3150    6.3230 n4        1 J74     -0.786500
     18 N18        -0.7450   -0.1150    3.6780 no        1 J74      0.336200
     19 O19        -0.3580    0.5420    4.6140 o         1 J74     -0.195500
     20 O20        -1.6490   -0.8920    3.7820 o         1 J74     -0.195500
     21 CL21       -2.4410    0.2320    1.1390 cl        1 J74     -0.059000
     22 C22         3.6040   -0.0320    3.4460 c3        1 J74      0.223800
     23 C23         4.2240   -0.2910    4.8280 c3        1 J74     -0.091100
     24 H2          1.7820    0.2580   -0.9600 h5        1 J74      0.077100
     25 HN7         1.7320    0.1450    4.3540 hn        1 J74      0.466800
     26 H9          5.7380    1.9350    4.4150 ha        1 J74      0.178000
     27 H10         8.2120    2.0690    4.2860 ha        1 J74      0.170000
     28 H12         8.4720   -2.2180    4.9300 ha        1 J74      0.170000
     29 H13         6.0000   -2.3480    5.0570 ha        1 J74      0.178000
     30 HN17        9.7340    0.3520    6.9180 hn        1 J74      0.455133
     31 HN1A       11.0590    1.1940    6.4270 hn        1 J74      0.455133
     32 H22         3.9500    0.9780    3.0750 h1        1 J74      0.064200
     33 H22A        3.9810   -0.8120    2.7230 h1        1 J74      0.064200
     34 H23         3.8570    0.4770    5.5650 hc        1 J74      0.087700
     35 H23A        3.9040   -1.3000    5.2060 hc        1 J74      0.087700
     36 H173       11.1590   -0.4300    6.6680 hn        1 J74      0.455133
@<TRIPOS>BOND
     1    1    2 ar  
     2    1    6 ar  
     3    2    3 ar  
     4    2   24 1   
     5    3    4 ar  
     6    4    5 ar  
     7    4    7 1   
     8    5    6 ar  
     9    5   18 1   
    10    6   21 1   
    11    7   22 1   
    12    7   25 1   
    13    8    9 ar  
    14    8   13 ar  
    15    8   23 1   
    16    9   10 ar  
    17    9   26 1   
    18   10   11 ar  
    19   10   27 1   
    20   11   12 ar  
    21   11   14 1   
    22   12   13 ar  
    23   12   28 1   
    24   13   29 1   
    25   14   15 2   
    26   14   16 2   
    27   14   17 1   
    28   17   30 1   
    29   17   31 1   
    30   17   36 1   
    31   18   19 1   
    32   18   20 1   
    33   22   23 1   
    34   22   32 1   
    35   22   33 1   
    36   23   34 1   
    37   23   35 1   
@<TRIPOS>SUBSTRUCTURE
     1 J74         1 TEMP              0 ****  ****    0 ROOT
