@<TRIPOS>MOLECULE
J75
   47    49     1     0     0
SMALL
bcc


@<TRIPOS>ATOM
      1 N1         -0.0780    0.1300    0.0280 nb        1 J75     -0.818000
      2 C2          1.2620    0.1640    0.1230 ca        1 J75      0.745900
      3 N3          2.0340    0.1540    1.2280 nb        1 J75     -0.824000
      4 C4          1.3790    0.1080    2.4430 ca        1 J75      0.791200
      5 C5         -0.0750    0.0470    2.4840 ca        1 J75     -0.573800
      6 C6         -0.7880    0.0650    1.2140 ca        1 J75      0.789200
      7 N7          2.1360    0.1710    3.5830 nh        1 J75     -0.850900
      8 C8          4.2000    0.2180    4.9170 ca        1 J75     -0.048300
      9 C9          3.8460   -0.7360    5.8770 ca        1 J75     -0.146000
     10 C10         4.4690   -0.7330    7.1220 ca        1 J75     -0.016000
     11 C11         5.4570    0.2090    7.4310 ca        1 J75     -0.375500
     12 C12         5.7950    1.1640    6.4660 ca        1 J75     -0.016000
     13 C13         5.1740    1.1750    5.2200 ca        1 J75     -0.146000
     14 S14         6.2000    0.2190    8.9540 sy        1 J75      1.526200
     15 O15         6.6670    1.5260    9.2070 o         1 J75     -0.655800
     16 O16         5.3110   -0.3570    9.8840 o         1 J75     -0.655800
     17 N17         7.4530   -0.7570    8.7510 n3        1 J75     -1.027700
     18 N18        -0.7910   -0.0330    3.7530 no        1 J75      0.345200
     19 O19        -1.9040    0.4260    3.8530 o         1 J75     -0.240500
     20 O20        -0.2720   -0.5620    4.7080 o         1 J75     -0.240500
     21 N21        -2.1490   -0.0270    1.1430 nh        1 J75     -0.843900
     22 C22        -2.8670   -0.0120   -0.1140 c3        1 J75      0.264100
     23 C23        -4.3510   -0.1190    0.0750 ca        1 J75     -0.118300
     24 C24        -5.0400    0.8370    0.8300 ca        1 J75     -0.114000
     25 C25        -6.4240    0.7490    0.9720 ca        1 J75     -0.128000
     26 C26        -7.1260   -0.2900    0.3600 ca        1 J75     -0.118000
     27 C27        -6.4410   -1.2440   -0.3930 ca        1 J75     -0.128000
     28 C28        -5.0560   -1.1620   -0.5330 ca        1 J75     -0.114000
     29 C29         3.5800    0.2080    3.5490 c3        1 J75      0.255100
     30 H2          1.8120    0.2070   -0.8440 h5        1 J75      0.058100
     31 HN7         1.7060    0.0390    4.4750 hn        1 J75      0.474800
     32 H9          3.0790   -1.4940    5.6550 ha        1 J75      0.147500
     33 H10         4.1680   -1.4720    7.8860 ha        1 J75      0.157000
     34 H12         6.5510    1.9330    6.7080 ha        1 J75      0.157000
     35 H13         5.4490    1.9390    4.4770 ha        1 J75      0.147500
     36 HN17        7.4240   -1.7290    8.9290 hn        1 J75      0.448300
     37 HN1A        8.3470   -0.4480    8.4620 hn        1 J75      0.448300
     38 HN21       -2.6990    0.0190    1.9750 hn        1 J75      0.475800
     39 H22        -2.6400    0.9500   -0.6650 h1        1 J75      0.068700
     40 H22A       -2.4980   -0.8650   -0.7550 h1        1 J75      0.068700
     41 H24        -4.4920    1.6630    1.3080 ha        1 J75      0.137500
     42 H25        -6.9620    1.5010    1.5680 ha        1 J75      0.137000
     43 H26        -8.2180   -0.3580    0.4730 ha        1 J75      0.136000
     44 H27        -6.9920   -2.0640   -0.8750 ha        1 J75      0.137000
     45 H28        -4.5190   -1.9200   -1.1230 ha        1 J75      0.137500
     46 H29         3.9730   -0.6950    2.9920 h1        1 J75      0.072700
     47 H29A        3.9050    1.1260    2.9750 h1        1 J75      0.072700
@<TRIPOS>BOND
     1    1    2 ar  
     2    1    6 ar  
     3    2    3 ar  
     4    2   30 1   
     5    3    4 ar  
     6    4    5 ar  
     7    4    7 1   
     8    5    6 ar  
     9    5   18 1   
    10    6   21 1   
    11    7   29 1   
    12    7   31 1   
    13    8    9 ar  
    14    8   13 ar  
    15    8   29 1   
    16    9   10 ar  
    17    9   32 1   
    18   10   11 ar  
    19   10   33 1   
    20   11   12 ar  
    21   11   14 1   
    22   12   13 ar  
    23   12   34 1   
    24   13   35 1   
    25   14   15 2   
    26   14   16 2   
    27   14   17 1   
    28   17   36 1   
    29   17   37 1   
    30   18   19 1   
    31   18   20 1   
    32   21   22 1   
    33   21   38 1   
    34   22   23 1   
    35   22   39 1   
    36   22   40 1   
    37   23   24 ar  
    38   23   28 ar  
    39   24   25 ar  
    40   24   41 1   
    41   25   26 ar  
    42   25   42 1   
    43   26   27 ar  
    44   26   43 1   
    45   27   28 ar  
    46   27   44 1   
    47   28   45 1   
    48   29   46 1   
    49   29   47 1   
@<TRIPOS>SUBSTRUCTURE
     1 J75         1 TEMP              0 ****  ****    0 ROOT
