@<TRIPOS>MOLECULE
J75
   48    50     1     0     0
SMALL
bcc


@<TRIPOS>ATOM
      1 N1         -0.0740    0.6560    0.1470 nb        1 J75     -0.786000
      2 C2          1.2140    0.9700    0.3200 ca        1 J75      0.747900
      3 N3          1.9290    1.0090    1.4730 nb        1 J75     -0.827000
      4 C4          1.2650    0.6660    2.6190 ca        1 J75      0.771200
      5 C5         -0.1360    0.2950    2.5790 ca        1 J75     -0.556800
      6 C6         -0.8020    0.3130    1.2820 ca        1 J75      0.784200
      7 N7          1.9850    0.6010    3.8120 nu        1 J75     -0.862900
      8 C8          4.0690    0.6590    5.1360 ca        1 J75      0.058700
      9 C9          3.5900   -0.2890    6.0540 ca        1 J75     -0.151000
     10 C10         4.2960   -0.5550    7.2150 ca        1 J75      0.018500
     11 C11         5.5150    0.0990    7.5090 ca        1 J75     -0.575500
     12 C12         5.9850    1.0480    6.5680 ca        1 J75      0.018500
     13 C13         5.2810    1.3210    5.4100 ca        1 J75     -0.151000
     14 S14         6.2770   -0.1460    8.8840 sy        1 J75      1.498200
     15 O15         7.2560    0.7730    9.1950 o         1 J75     -0.567800
     16 O16         5.5570   -0.8000    9.8590 o         1 J75     -0.567800
     17 N17         7.4010   -1.6090    8.3000 nz        1 J75     -0.785500
     18 N18        -0.8540   -0.1010    3.7900 no        1 J75      0.346200
     19 O19        -0.5330    0.3570    4.8620 o         1 J75     -0.233500
     20 O20        -1.7650   -0.8870    3.7190 o         1 J75     -0.233500
     21 N21        -2.1270    0.0440    1.1370 nu        1 J75     -0.822900
     22 C22        -2.8030    0.0790   -0.1460 c3        1 J75      0.260100
     23 C23        -4.2650   -0.2260   -0.0180 ca        1 J75     -0.130300
     24 C24        -5.2110    0.7280   -0.4060 ca        1 J75     -0.112000
     25 C25        -6.5720    0.4320   -0.3260 ca        1 J75     -0.126000
     26 C26        -6.9910   -0.8120    0.1480 ca        1 J75     -0.110000
     27 C27        -6.0480   -1.7630    0.5400 ca        1 J75     -0.126000
     28 C28        -4.6870   -1.4730    0.4560 ca        1 J75     -0.112000
     29 C29         3.3720    0.9930    3.8490 c3        1 J75      0.223100
     30 H2          1.7780    1.2440   -0.6020 h5        1 J75      0.069100
     31 HN7         1.4700    0.8000    4.6470 hn        1 J75      0.458800
     32 H9          2.6470   -0.8340    5.8660 ha        1 J75      0.183500
     33 H10         3.8880   -1.2840    7.9430 ha        1 J75      0.169500
     34 H12         6.9230    1.5960    6.7790 ha        1 J75      0.169500
     35 H13         5.6660    2.0720    4.6970 ha        1 J75      0.183500
     36 HN17        8.3830   -1.3640    8.4090 hn        1 J75      0.453800
     37 HN1A        7.2450   -1.8530    7.3270 hn        1 J75      0.453800
     38 HN21       -2.6620   -0.2840    1.9160 hn        1 J75      0.478800
     39 H22        -2.6580    1.0990   -0.6070 h1        1 J75      0.074200
     40 H22A       -2.3260   -0.6800   -0.8360 h1        1 J75      0.074200
     41 H24        -4.8850    1.7110   -0.7780 ha        1 J75      0.136500
     42 H25        -7.3140    1.1820   -0.6360 ha        1 J75      0.141500
     43 H26        -8.0650   -1.0430    0.2120 ha        1 J75      0.142000
     44 H27        -6.3770   -2.7440    0.9130 ha        1 J75      0.141500
     45 H28        -3.9460   -2.2280    0.7560 ha        1 J75      0.136500
     46 H29         3.9330    0.4560    3.0220 h1        1 J75      0.095200
     47 H29A        3.4850    2.1040    3.6580 h1        1 J75      0.095200
     48 H173        7.2220   -2.4370    8.8650 hn        1 J75      0.453800
@<TRIPOS>BOND
     1    1    2 ar  
     2    1    6 ar  
     3    2    3 ar  
     4    2   30 1   
     5    3    4 ar  
     6    4    5 ar  
     7    4    7 1   
     8    5    6 ar  
     9    5   18 1   
    10    6   21 1   
    11    7   29 1   
    12    7   31 1   
    13    8    9 ar  
    14    8   13 ar  
    15    8   29 1   
    16    9   10 ar  
    17    9   32 1   
    18   10   11 ar  
    19   10   33 1   
    20   11   12 ar  
    21   11   14 1   
    22   12   13 ar  
    23   12   34 1   
    24   13   35 1   
    25   14   15 2   
    26   14   16 2   
    27   14   17 1   
    28   17   36 1   
    29   17   37 1   
    30   17   48 1   
    31   18   19 1   
    32   18   20 1   
    33   21   22 1   
    34   21   38 1   
    35   22   23 1   
    36   22   39 1   
    37   22   40 1   
    38   23   24 ar  
    39   23   28 ar  
    40   24   25 ar  
    41   24   41 1   
    42   25   26 ar  
    43   25   42 1   
    44   26   27 ar  
    45   26   43 1   
    46   27   28 ar  
    47   27   44 1   
    48   28   45 1   
    49   29   46 1   
    50   29   47 1   
@<TRIPOS>SUBSTRUCTURE
     1 J75         1 TEMP              0 ****  ****    0 ROOT
