@<TRIPOS>MOLECULE
J75
   47    40     1     0     0
SMALL
bcc


@<TRIPOS>ATOM
      1 N1         -0.5130    0.0070   -3.4840 n1        1 J75     -0.292000
      2 C2          0.8490    0.0120   -3.4750 c1        1 J75      0.083000
      3 N3          1.5230    0.0710   -2.2910 n1        1 J75     -0.298000
      4 C4          0.8430    0.1240   -1.1280 c1        1 J75      0.270000
      5 C5         -0.5260    0.1190   -1.1360 c1        1 J75     -0.398000
      6 C6         -1.1980    0.0600   -2.3180 c1        1 J75      0.268000
      7 N7          1.5550    0.0660    0.1210 n3        1 J75     -0.295000
      8 C8          3.4960    0.0660    1.5620 c1        1 J75     -0.041000
      9 C9          3.7780   -1.1640    2.1250 c1        1 J75     -0.101000
     10 C10         4.3140   -1.2390    3.4160 c1        1 J75     -0.101000
     11 C11         4.5620   -0.0820    4.1310 c1        1 J75     -0.820000
     12 C12         4.2800    1.1560    3.5670 c1        1 J75     -0.014000
     13 C13         3.7450    1.2300    2.2780 c1        1 J75     -0.150000
     14 S14         5.1090   -0.1870    5.8550 s4        1 J75      2.081800
     15 O15         4.6890    0.9690    6.6090 o         1 J75     -0.543400
     16 O16         4.4260   -1.2420    6.5580 o         1 J75     -0.543400
     17 N17         6.7370   -0.3840    5.9220 n2        1 J75     -0.954000
     18 N18        -1.2370    0.2630    0.0680 no        1 J75      0.600000
     19 O19        -2.3710   -0.4670    0.2810 o         1 J75     -0.390500
     20 O20        -0.8110    1.0100    0.9480 o         1 J75     -0.390500
     21 N21        -2.6290    0.0940   -2.3280 n3        1 J75     -0.288000
     22 C22        -3.3330    0.0040   -3.5570 c3        1 J75      0.020000
     23 C23        -4.8320   -0.0030   -3.2840 c2        1 J75     -0.111000
     24 C24        -5.5500    1.1820   -3.3390 c2        1 J75     -0.110000
     25 C25        -6.9290    1.1740   -3.1240 c1        1 J75     -0.130000
     26 C26        -7.5800   -0.0160   -2.8560 c1        1 J75     -0.101000
     27 C27        -6.8600   -1.2030   -2.8020 c1        1 J75     -0.101000
     28 C28        -5.4820   -1.1940   -3.0160 c1        1 J75     -0.118000
     29 C29         2.9910    0.1460    0.1300 c3        1 J75      0.011000
     30 H2          1.3480   -0.0270   -4.3260 ha        1 J75      0.195000
     31 HN7         1.1040   -0.0750    0.8950 hn        1 J75      0.270000
     32 H9          3.6020   -1.9860    1.6180 ha        1 J75      0.144000
     33 H10         4.5130   -2.1130    3.8140 ha        1 J75      0.144000
     34 H12         4.4580    1.9880    4.0800 ha        1 J75      0.157000
     35 H13         3.5420    2.1170    1.8730 ha        1 J75      0.150000
     36 HN17        7.0900   -1.2030    6.1300 hn        1 J75      0.243500
     37 HN1A        7.2960    0.3460    5.8160 hn        1 J75      0.243500
     38 HN21       -3.0870    0.0980   -1.5430 hn        1 J75      0.271000
     39 H22        -3.0810   -0.8250   -4.0210 h1        1 J75      0.108000
     40 H22A       -3.1090    0.7680   -4.1140 h1        1 J75      0.108000
     41 H24        -5.0880    2.0250   -3.5290 ha        1 J75      0.136000
     42 H25        -7.4390    2.0170   -3.1630 ha        1 J75      0.136000
     43 H26        -8.5430   -0.0230   -2.7070 ha        1 J75      0.144000
     44 H27        -7.3200   -2.0450   -2.6120 ha        1 J75      0.144000
     45 H28        -4.9700   -2.0380   -2.9770 ha        1 J75      0.139000
     46 H29         3.2760    1.0050   -0.2750 h1        1 J75      0.112000
     47 H29A        3.3620   -0.5990   -0.3890 h1        1 J75      0.112000
@<TRIPOS>BOND
     1    1    6 1   
     2    2    3 1   
     3    2   30 1   
     4    4    5 1   
     5    4    7 1   
     6    5   18 1   
     7    6   21 1   
     8    7   29 1   
     9    7   31 1   
    10    8   13 1   
    11    8   29 1   
    12    9   10 1   
    13    9   32 1   
    14   10   33 1   
    15   11   12 1   
    16   11   14 1   
    17   12   34 1   
    18   13   35 1   
    19   14   15 1   
    20   14   16 1   
    21   17   36 1   
    22   17   37 1   
    23   18   19 1   
    24   18   20 1   
    25   21   22 1   
    26   21   38 1   
    27   22   23 1   
    28   22   39 1   
    29   22   40 1   
    30   23   24 1   
    31   23   28 1   
    32   24   25 1   
    33   24   41 1   
    34   25   42 1   
    35   26   27 1   
    36   26   43 1   
    37   27   44 1   
    38   28   45 1   
    39   29   46 1   
    40   29   47 1   
@<TRIPOS>SUBSTRUCTURE
     1 J75         1 TEMP              0 ****  ****    0 ROOT
