@<TRIPOS>MOLECULE
J75
   47    49     1     0     0
SMALL
bcc


@<TRIPOS>ATOM
      1 N1          3.2420   -2.3900    0.1070 nb        1 J75     -0.818000
      2 C2          2.1200   -3.1300    0.1390 ca        1 J75      0.745900
      3 N3          0.8370   -2.7220    0.1380 nb        1 J75     -0.824000
      4 C4          0.6170   -1.3590    0.1020 ca        1 J75      0.791200
      5 C5          1.7460   -0.4420    0.0440 ca        1 J75     -0.573800
      6 C6          3.0840   -1.0160    0.0520 ca        1 J75      0.789200
      7 N7         -0.6770   -0.9150    0.1730 nh        1 J75     -0.850900
      8 C8         -3.1260   -1.1120    0.2280 ca        1 J75     -0.048300
      9 C9         -3.4330   -0.1280   -0.7180 ca        1 J75     -0.146000
     10 C10        -4.6850    0.4820   -0.7050 ca        1 J75     -0.016000
     11 C11        -5.6530    0.1190    0.2380 ca        1 J75     -0.375500
     12 C12        -5.3310   -0.8590    1.1850 ca        1 J75     -0.016000
     13 C13        -4.0810   -1.4710    1.1870 ca        1 J75     -0.146000
     14 S14        -7.1690    0.8760    0.2590 sy        1 J75      1.526200
     15 O15        -7.6890    0.7830    1.5680 o         1 J75     -0.655800
     16 O16        -7.0320    2.1590   -0.3080 o         1 J75     -0.655800
     17 N17        -8.0440   -0.0410   -0.7200 n3        1 J75     -1.027700
     18 N18         1.5420    1.0020   -0.0260 no        1 J75      0.345200
     19 O19         2.3670    1.7540    0.4350 o         1 J75     -0.240500
     20 O20         0.5480    1.4480   -0.5470 o         1 J75     -0.240500
     21 N21         4.2080   -0.2450   -0.0390 nh        1 J75     -0.843900
     22 C22         5.5420   -0.8060   -0.0330 c3        1 J75      0.264100
     23 C23         6.6050    0.2480   -0.1360 ca        1 J75     -0.118300
     24 C24         6.6960    1.2590    0.8270 ca        1 J75     -0.114000
     25 C25         7.7080    2.2140    0.7420 ca        1 J75     -0.128000
     26 C26         8.6330    2.1630   -0.3010 ca        1 J75     -0.118000
     27 C27         8.5440    1.1550   -1.2620 ca        1 J75     -0.128000
     28 C28         7.5300    0.2010   -1.1830 ca        1 J75     -0.114000
     29 C29        -1.8020   -1.8210    0.2080 c3        1 J75      0.255100
     30 H2          2.2730   -4.2330    0.1740 h5        1 J75      0.058100
     31 HN7        -0.8790    0.0550    0.0490 hn        1 J75      0.474800
     32 H9         -2.6920    0.1680   -1.4770 ha        1 J75      0.147500
     33 H10        -4.9140    1.2770   -1.4370 ha        1 J75      0.157000
     34 H12        -6.0750   -1.1320    1.9550 ha        1 J75      0.157000
     35 H13        -3.8440   -2.2330    1.9440 ha        1 J75      0.147500
     36 HN17       -8.5770   -0.8150   -0.4150 hn        1 J75      0.448300
     37 HN1A       -8.1340    0.1260   -1.6900 hn        1 J75      0.448300
     38 HN21        4.1380    0.7500    0.0150 hn        1 J75      0.475800
     39 H22         5.7000   -1.3880    0.9240 h1        1 J75      0.068700
     40 H22A        5.6360   -1.5330   -0.8920 h1        1 J75      0.068700
     41 H24         5.9730    1.2990    1.6560 ha        1 J75      0.137500
     42 H25         7.7750    3.0090    1.4990 ha        1 J75      0.137000
     43 H26         9.4310    2.9160   -0.3670 ha        1 J75      0.136000
     44 H27         9.2720    1.1130   -2.0850 ha        1 J75      0.137000
     45 H28         7.4600   -0.5890   -1.9460 ha        1 J75      0.137500
     46 H29        -1.7790   -2.4950   -0.7000 h1        1 J75      0.072700
     47 H29A       -1.7080   -2.4800    1.1210 h1        1 J75      0.072700
@<TRIPOS>BOND
     1    1    2 ar  
     2    1    6 ar  
     3    2    3 ar  
     4    2   30 1   
     5    3    4 ar  
     6    4    5 ar  
     7    4    7 1   
     8    5    6 ar  
     9    5   18 1   
    10    6   21 1   
    11    7   29 1   
    12    7   31 1   
    13    8    9 ar  
    14    8   13 ar  
    15    8   29 1   
    16    9   10 ar  
    17    9   32 1   
    18   10   11 ar  
    19   10   33 1   
    20   11   12 ar  
    21   11   14 1   
    22   12   13 ar  
    23   12   34 1   
    24   13   35 1   
    25   14   15 2   
    26   14   16 2   
    27   14   17 1   
    28   17   36 1   
    29   17   37 1   
    30   18   19 1   
    31   18   20 1   
    32   21   22 1   
    33   21   38 1   
    34   22   23 1   
    35   22   39 1   
    36   22   40 1   
    37   23   24 ar  
    38   23   28 ar  
    39   24   25 ar  
    40   24   41 1   
    41   25   26 ar  
    42   25   42 1   
    43   26   27 ar  
    44   26   43 1   
    45   27   28 ar  
    46   27   44 1   
    47   28   45 1   
    48   29   46 1   
    49   29   47 1   
@<TRIPOS>SUBSTRUCTURE
     1 J75         1 TEMP              0 ****  ****    0 ROOT
