@<TRIPOS>MOLECULE
J75
   48    50     1     0     0
SMALL
bcc


@<TRIPOS>ATOM
      1 N1         -0.0570    0.5480    0.1230 nb        1 J75     -0.786000
      2 C2          1.2380    0.8360    0.2840 ca        1 J75      0.747900
      3 N3          1.9540    0.9010    1.4360 nb        1 J75     -0.827000
      4 C4          1.2820    0.6190    2.5940 ca        1 J75      0.771200
      5 C5         -0.1280    0.2830    2.5670 ca        1 J75     -0.556800
      6 C6         -0.7930    0.2680    1.2700 ca        1 J75      0.784200
      7 N7          2.0000    0.5820    3.7890 nh        1 J75     -0.862900
      8 C8          4.0850    0.6390    5.1120 ca        1 J75      0.058700
      9 C9          3.5820   -0.2610    6.0650 ca        1 J75     -0.151000
     10 C10         4.2820   -0.5000    7.2370 ca        1 J75      0.018500
     11 C11         5.5170    0.1340    7.5060 ca        1 J75     -0.575500
     12 C12         6.0100    1.0340    6.5290 ca        1 J75      0.018500
     13 C13         5.3140    1.2800    5.3610 ca        1 J75     -0.151000
     14 S14         6.2730   -0.0760    8.8900 sy        1 J75      1.498200
     15 O15         7.2740    0.8290    9.1660 o         1 J75     -0.567800
     16 O16         5.5360   -0.6740    9.8890 o         1 J75     -0.567800
     17 N17         7.3590   -1.5890    8.3630 n4        1 J75     -0.785500
     18 N18        -0.8560   -0.0470    3.7920 no        1 J75      0.346200
     19 O19        -0.5240    0.4440    4.8460 o         1 J75     -0.233500
     20 O20        -1.7860   -0.8120    3.7500 o         1 J75     -0.233500
     21 N21        -2.1250    0.0270    1.1350 nh        1 J75     -0.822900
     22 C22        -2.8000    0.0300   -0.1500 c3        1 J75      0.260100
     23 C23        -4.2700   -0.2310   -0.0110 ca        1 J75     -0.130300
     24 C24        -5.1910    0.7320   -0.4350 ca        1 J75     -0.112000
     25 C25        -6.5590    0.4750   -0.3440 ca        1 J75     -0.126000
     26 C26        -7.0100   -0.7380    0.1760 ca        1 J75     -0.110000
     27 C27        -6.0920   -1.6980    0.6040 ca        1 J75     -0.126000
     28 C28        -4.7240   -1.4470    0.5100 ca        1 J75     -0.112000
     29 C29         3.3960    0.9400    3.8130 c3        1 J75      0.223100
     30 H2          1.8090    1.0590   -0.6460 h5        1 J75      0.069100
     31 HN7         1.4900    0.8270    4.6160 hn        1 J75      0.458800
     32 H9          2.6260   -0.7890    5.8980 ha        1 J75      0.183500
     33 H10         3.8550   -1.1890    7.9910 ha        1 J75      0.169500
     34 H12         6.9620    1.5660    6.7200 ha        1 J75      0.169500
     35 H13         5.7170    1.9930    4.6210 ha        1 J75      0.183500
     36 HN17        7.1590   -2.3900    8.9600 hn        1 J75      0.453800
     37 HN1A        7.1970   -1.8670    7.4010 hn        1 J75      0.453800
     38 HN21       -2.6680   -0.2570    1.9250 hn        1 J75      0.478800
     39 H22        -2.3440   -0.7670   -0.8090 h1        1 J75      0.074200
     40 H22A       -2.6290    1.0280   -0.6500 h1        1 J75      0.074200
     41 H24        -4.8390    1.6920   -0.8440 ha        1 J75      0.136500
     42 H25        -7.2820    1.2320   -0.6830 ha        1 J75      0.141500
     43 H26        -8.0900   -0.9380    0.2480 ha        1 J75      0.142000
     44 H27        -6.4470   -2.6550    1.0140 ha        1 J75      0.141500
     45 H28        -4.0030   -2.2100    0.8390 ha        1 J75      0.136500
     46 H29         3.9430    0.3570    3.0080 h1        1 J75      0.095200
     47 H29A        3.5370    2.0400    3.5790 h1        1 J75      0.095200
     48 H173        8.3470   -1.3650    8.4650 hn        1 J75      0.453800
@<TRIPOS>BOND
     1    1    2 ar  
     2    1    6 ar  
     3    2    3 ar  
     4    2   30 1   
     5    3    4 ar  
     6    4    5 ar  
     7    4    7 1   
     8    5    6 ar  
     9    5   18 1   
    10    6   21 1   
    11    7   29 1   
    12    7   31 1   
    13    8    9 ar  
    14    8   13 ar  
    15    8   29 1   
    16    9   10 ar  
    17    9   32 1   
    18   10   11 ar  
    19   10   33 1   
    20   11   12 ar  
    21   11   14 1   
    22   12   13 ar  
    23   12   34 1   
    24   13   35 1   
    25   14   15 2   
    26   14   16 2   
    27   14   17 1   
    28   17   36 1   
    29   17   37 1   
    30   17   48 1   
    31   18   19 1   
    32   18   20 1   
    33   21   22 1   
    34   21   38 1   
    35   22   23 1   
    36   22   39 1   
    37   22   40 1   
    38   23   24 ar  
    39   23   28 ar  
    40   24   25 ar  
    41   24   41 1   
    42   25   26 ar  
    43   25   42 1   
    44   26   27 ar  
    45   26   43 1   
    46   27   28 ar  
    47   27   44 1   
    48   28   45 1   
    49   29   46 1   
    50   29   47 1   
@<TRIPOS>SUBSTRUCTURE
     1 J75         1 TEMP              0 ****  ****    0 ROOT
