@<TRIPOS>MOLECULE
J77
   54    56     1     0     0
SMALL
bcc


@<TRIPOS>ATOM
      1 C1         -0.2880   -1.3510   -0.4210 c3        1 J77     -0.138400
      2 C2          1.1430   -0.9470   -0.3790 ca        1 J77      0.311600
      3 C3          1.8690   -1.0100    0.8290 ca        1 J77     -0.184300
      4 C4          3.2060   -0.6220    0.8210 ca        1 J77     -0.224300
      5 C5          3.7690   -0.1840   -0.4130 ca        1 J77      0.545200
      6 N4          2.9670   -0.1560   -1.5580 nb        1 J77     -0.345000
      7 N3          1.7590   -0.5160   -1.5330 nb        1 J77     -0.289000
      8 N6          5.1500    0.1370   -0.4770 nh        1 J77     -0.724300
      9 C7          5.7250    0.2750   -1.8100 c3        1 J77      0.185300
     10 C8          7.2470    0.4170   -1.7770 c3        1 J77     -0.079900
     11 C9          7.6750    1.5600   -0.8680 c3        1 J77     -0.065700
     12 C10         7.0780    1.3520    0.5150 c3        1 J77     -0.079900
     13 C11         5.5600    1.1960    0.4400 c3        1 J77      0.185300
     14 C12         9.1910    1.6430   -0.8170 c3        1 J77     -0.083400
     15 C13         9.6480    2.9800   -0.2590 c3        1 J77      0.127400
     16 O14        11.0820    2.9390   -0.2900 os        1 J77     -0.325900
     17 C15        11.7310    4.0590    0.1760 ca        1 J77      0.163100
     18 C16        13.1390    3.9790    0.1380 ca        1 J77     -0.203000
     19 C17        13.8920    5.0540    0.5850 ca        1 J77     -0.036500
     20 C18        13.2590    6.2100    1.0710 ca        1 J77     -0.174600
     21 C19        11.8630    6.2800    1.1050 ca        1 J77     -0.036500
     22 C20        11.0920    5.2090    0.6590 ca        1 J77     -0.203000
     23 C21        14.0950    7.3230    1.5340 c         1 J77      0.652700
     24 O22        15.3290    7.3860    1.5580 o         1 J77     -0.551000
     25 O23        13.3910    8.4070    1.9890 os        1 J77     -0.444900
     26 C24        14.1730    9.5230    2.4520 c3        1 J77      0.140400
     27 C25        13.1860   10.5760    2.8930 c3        1 J77     -0.101100
     28 H11        -0.6350   -1.6530    0.5970 hc        1 J77      0.053700
     29 H12        -0.4310   -2.2140   -1.1190 hc        1 J77      0.053700
     30 H13        -0.9250   -0.5030   -0.7800 hc        1 J77      0.053700
     31 H3          1.3900   -1.3620    1.7530 ha        1 J77      0.148000
     32 H4          3.8090   -0.6710    1.7370 ha        1 J77      0.152000
     33 H71         5.4660   -0.6510   -2.3980 h1        1 J77      0.046950
     34 H72         5.2930    1.1650   -2.3530 h1        1 J77      0.046950
     35 H81         7.7150   -0.5380   -1.4230 hc        1 J77      0.052700
     36 H82         7.5990    0.6060   -2.8240 hc        1 J77      0.052700
     37 H9          7.2700    2.5220   -1.2930 hc        1 J77      0.050700
     38 H101        7.3040    2.2320    1.1710 hc        1 J77      0.052700
     39 H102        7.5330    0.4430    0.9890 hc        1 J77      0.052700
     40 H111        5.1130    2.1870    0.1330 h1        1 J77      0.046950
     41 H112        5.1740    0.9490    1.4680 h1        1 J77      0.046950
     42 H121        9.6040    0.8140   -0.1860 hc        1 J77      0.061700
     43 H122        9.6120    1.5170   -1.8490 hc        1 J77      0.061700
     44 H131        9.3030    3.1220    0.7990 h1        1 J77      0.042200
     45 H132        9.2850    3.8300   -0.8930 h1        1 J77      0.042200
     46 H16        13.6180    3.0670   -0.2450 ha        1 J77      0.149000
     47 H17        14.9940    5.0130    0.5640 ha        1 J77      0.157500
     48 H19        11.3720    7.1910    1.4870 ha        1 J77      0.157500
     49 H20         9.9970    5.2800    0.6920 ha        1 J77      0.149000
     50 H241       14.8220    9.8820    1.6110 h1        1 J77      0.052700
     51 H242       14.8260    9.1790    3.2970 h1        1 J77      0.052700
     52 H251       13.7460   11.4670    3.2630 hc        1 J77      0.047367
     53 H252       12.5360   10.1860    3.7130 hc        1 J77      0.047367
     54 H253       12.5320   10.8820    2.0420 hc        1 J77      0.047367
@<TRIPOS>BOND
     1    1    2 1   
     2    1   28 1   
     3    1   29 1   
     4    1   30 1   
     5    2    3 ar  
     6    2    7 ar  
     7    3    4 ar  
     8    3   31 1   
     9    4    5 ar  
    10    4   32 1   
    11    5    6 ar  
    12    5    8 1   
    13    6    7 ar  
    14    8    9 1   
    15    8   13 1   
    16    9   10 1   
    17    9   33 1   
    18    9   34 1   
    19   10   11 1   
    20   10   35 1   
    21   10   36 1   
    22   11   12 1   
    23   11   14 1   
    24   11   37 1   
    25   12   13 1   
    26   12   38 1   
    27   12   39 1   
    28   13   40 1   
    29   13   41 1   
    30   14   15 1   
    31   14   42 1   
    32   14   43 1   
    33   15   16 1   
    34   15   44 1   
    35   15   45 1   
    36   16   17 1   
    37   17   18 ar  
    38   17   22 ar  
    39   18   19 ar  
    40   18   46 1   
    41   19   20 ar  
    42   19   47 1   
    43   20   21 ar  
    44   20   23 1   
    45   21   22 ar  
    46   21   48 1   
    47   22   49 1   
    48   23   24 2   
    49   23   25 1   
    50   25   26 1   
    51   26   27 1   
    52   26   50 1   
    53   26   51 1   
    54   27   52 1   
    55   27   53 1   
    56   27   54 1   
@<TRIPOS>SUBSTRUCTURE
     1 J77         1 TEMP              0 ****  ****    0 ROOT
