@<TRIPOS>MOLECULE
J77
   54    52     1     0     0
SMALL
bcc


@<TRIPOS>ATOM
      1 C1         -8.8320   -2.3610    1.7130 c3        1 J77     -0.162000
      2 C2         -7.3040   -2.4390    1.7910 c2        1 J77     -0.111000
      3 C3         -6.6890   -3.6420    2.0880 c2        1 J77     -0.119000
      4 C4         -5.3270   -3.7340    2.0760 c1        1 J77     -0.159000
      5 C5         -4.5570   -2.6160    1.7640 c1        1 J77      0.024000
      6 N4         -5.1590   -1.4410    1.4740 n1        1 J77     -0.083000
      7 N3         -6.5520   -1.3480    1.4870 n1        1 J77     -0.026000
      8 N6         -3.0990   -2.7090    1.7720 n3        1 J77     -0.215000
      9 C7         -2.5970   -2.6990    0.3750 c3        1 J77     -0.051500
     10 C8         -1.0710   -2.6440    0.3030 c3        1 J77     -0.158500
     11 C9         -0.4980   -1.5220    1.1270 c3        1 J77     -0.105000
     12 C10        -1.0120   -1.5390    2.5390 c3        1 J77     -0.158500
     13 C11        -2.5320   -1.5980    2.6020 c3        1 J77     -0.051500
     14 C12         1.0350   -1.6550    1.1540 c3        1 J77     -0.162000
     15 C13         1.6740   -0.3890    0.5430 c3        1 J77     -0.022000
     16 O14         2.9980   -0.6900    0.1160 os        1 J77     -0.210000
     17 C15         3.6380    0.3800   -0.6000 c2        1 J77      0.118000
     18 C16         3.3670    0.5720   -1.9550 c2        1 J77     -0.228000
     19 C17         4.0470    1.5500   -2.6690 c1        1 J77     -0.031000
     20 C18         5.0050    2.3440   -2.0300 c1        1 J77     -0.154000
     21 C19         5.2760    2.1550   -0.6810 c1        1 J77     -0.042000
     22 C20         4.5910    1.1710    0.0370 c1        1 J77     -0.177000
     23 C21         5.7080    3.4370   -2.7970 c2        1 J77      0.353000
     24 O22         6.8380    3.2550   -3.2070 o         1 J77     -0.362000
     25 O23         4.9640    4.6170   -3.2270 os        1 J77     -0.283000
     26 C24         5.8110    5.6930   -3.7170 c3        1 J77     -0.010000
     27 C25         5.0280    7.0130   -3.6880 c3        1 J77     -0.219000
     28 H11        -9.0910   -1.4930    1.4190 hc        1 J77      0.092667
     29 H12        -9.2260   -2.5390    2.6310 hc        1 J77      0.092667
     30 H13        -9.1600   -3.0280    1.0850 hc        1 J77      0.092667
     31 H3         -7.2230   -4.4160    2.3050 ha        1 J77      0.148000
     32 H4         -4.8810   -4.6060    2.2920 ha        1 J77      0.152000
     33 H71        -2.9630   -1.9150   -0.0910 h1        1 J77      0.086250
     34 H72        -2.9180   -3.5400   -0.0940 h1        1 J77      0.086250
     35 H81        -0.7950   -2.5170   -0.6620 hc        1 J77      0.092000
     36 H82        -0.7020   -3.5050    0.6350 hc        1 J77      0.092000
     37 H9         -0.7400   -0.6540    0.7080 hc        1 J77      0.090000
     38 H101       -0.7040   -0.7170    3.0030 hc        1 J77      0.092000
     39 H102       -0.6490   -2.3140    2.9960 hc        1 J77      0.092000
     40 H111       -2.8940   -0.7530    2.2870 h1        1 J77      0.086250
     41 H112       -2.8110   -1.7360    3.5630 h1        1 J77      0.086250
     42 H121        1.3310   -1.7550    2.0560 hc        1 J77      0.100000
     43 H122        1.3150   -2.4720    0.6130 hc        1 J77      0.100000
     44 H131        1.1380   -0.0900   -0.2340 h1        1 J77      0.082500
     45 H132        1.7010    0.3210    1.2130 h1        1 J77      0.082500
     46 H16         2.6970    0.0170   -2.4030 ha        1 J77      0.143000
     47 H17         3.8450    1.6910   -3.6760 ha        1 J77      0.156000
     48 H19         5.9390    2.7050   -0.2370 ha        1 J77      0.160000
     49 H20         4.7830    1.0360    0.9980 ha        1 J77      0.156000
     50 H241        6.5980    5.7690   -3.1500 h1        1 J77      0.092000
     51 H242        6.0840    5.5000   -4.6190 h1        1 J77      0.092000
     52 H251        4.6030    7.1190   -2.8230 hc        1 J77      0.086667
     53 H252        5.6140    7.7280   -3.8370 hc        1 J77      0.086667
     54 H253        4.3590    7.0020   -4.3700 hc        1 J77      0.086667
@<TRIPOS>BOND
     1    1    2 1   
     2    1   28 1   
     3    1   29 1   
     4    1   30 1   
     5    2    3 1   
     6    2    7 1   
     7    3    4 1   
     8    3   31 1   
     9    4   32 1   
    10    5    6 1   
    11    5    8 1   
    12    8    9 1   
    13    8   13 1   
    14    9   10 1   
    15    9   33 1   
    16    9   34 1   
    17   10   11 1   
    18   10   35 1   
    19   10   36 1   
    20   11   12 1   
    21   11   14 1   
    22   11   37 1   
    23   12   13 1   
    24   12   38 1   
    25   12   39 1   
    26   13   40 1   
    27   13   41 1   
    28   14   15 1   
    29   14   42 1   
    30   14   43 1   
    31   15   16 1   
    32   15   44 1   
    33   15   45 1   
    34   16   17 1   
    35   17   18 1   
    36   17   22 1   
    37   18   19 1   
    38   18   46 1   
    39   19   47 1   
    40   20   21 1   
    41   20   23 1   
    42   21   48 1   
    43   22   49 1   
    44   23   24 1   
    45   23   25 1   
    46   25   26 1   
    47   26   27 1   
    48   26   50 1   
    49   26   51 1   
    50   27   52 1   
    51   27   53 1   
    52   27   54 1   
@<TRIPOS>SUBSTRUCTURE
     1 J77         1 TEMP              0 ****  ****    0 ROOT
