@<TRIPOS>MOLECULE
J77
   54    56     1     0     0
SMALL
bcc


@<TRIPOS>ATOM
      1 C1         -0.2900   -1.3500   -0.4060 c3        1 J77     -0.138400
      2 C2          1.1420   -0.9470   -0.3660 ca        1 J77      0.311600
      3 C3          1.8690   -1.0090    0.8400 ca        1 J77     -0.184300
      4 C4          3.2060   -0.6210    0.8300 ca        1 J77     -0.224300
      5 C5          3.7670   -0.1830   -0.4050 ca        1 J77      0.545200
      6 N4          2.9630   -0.1560   -1.5480 nb        1 J77     -0.345000
      7 N3          1.7550   -0.5150   -1.5220 nb        1 J77     -0.289000
      8 N6          5.1490    0.1380   -0.4710 nh        1 J77     -0.724300
      9 C7          5.7220    0.2750   -1.8050 c3        1 J77      0.185300
     10 C8          7.2430    0.4170   -1.7750 c3        1 J77     -0.079900
     11 C9          7.6720    1.5600   -0.8670 c3        1 J77     -0.065700
     12 C10         7.0780    1.3520    0.5170 c3        1 J77     -0.079900
     13 C11         5.5600    1.1960    0.4440 c3        1 J77      0.185300
     14 C12         9.1880    1.6430   -0.8180 c3        1 J77     -0.083400
     15 C13         9.6460    2.9790   -0.2610 c3        1 J77      0.127400
     16 O14        11.0810    2.9390   -0.2960 os        1 J77     -0.325900
     17 C15        11.7310    4.0590    0.1690 ca        1 J77      0.163100
     18 C16        13.1390    3.9800    0.1270 ca        1 J77     -0.203000
     19 C17        13.8930    5.0550    0.5720 ca        1 J77     -0.036500
     20 C18        13.2600    6.2100    1.0610 ca        1 J77     -0.174600
     21 C19        11.8640    6.2800    1.0990 ca        1 J77     -0.036500
     22 C20        11.0930    5.2080    0.6550 ca        1 J77     -0.203000
     23 C21        14.0980    7.3230    1.5220 c         1 J77      0.652700
     24 O22        15.3320    7.3870    1.5420 o         1 J77     -0.551000
     25 O23        13.3950    8.4060    1.9800 os        1 J77     -0.444900
     26 C24        14.1780    9.5230    2.4420 c3        1 J77      0.140400
     27 C25        13.1910   10.5740    2.8870 c3        1 J77     -0.101100
     28 H11        -0.9270   -0.5020   -0.7640 hc        1 J77      0.053700
     29 H12        -0.6350   -1.6510    0.6130 hc        1 J77      0.053700
     30 H13        -0.4340   -2.2130   -1.1030 hc        1 J77      0.053700
     31 H3          1.3920   -1.3610    1.7650 ha        1 J77      0.148000
     32 H4          3.8110   -0.6700    1.7450 ha        1 J77      0.152000
     33 H71         5.4610   -0.6510   -2.3920 h1        1 J77      0.046950
     34 H72         5.2880    1.1650   -2.3480 h1        1 J77      0.046950
     35 H81         7.7120   -0.5380   -1.4210 hc        1 J77      0.052700
     36 H82         7.5940    0.6050   -2.8220 hc        1 J77      0.052700
     37 H9          7.2670    2.5220   -1.2910 hc        1 J77      0.050700
     38 H101        7.5340    0.4440    0.9910 hc        1 J77      0.052700
     39 H102        7.3050    2.2320    1.1720 hc        1 J77      0.052700
     40 H111        5.1760    0.9490    1.4730 h1        1 J77      0.046950
     41 H112        5.1120    2.1870    0.1380 h1        1 J77      0.046950
     42 H121        9.6020    0.8130   -0.1880 hc        1 J77      0.061700
     43 H122        9.6080    1.5170   -1.8510 hc        1 J77      0.061700
     44 H131        9.3040    3.1200    0.7980 h1        1 J77      0.042200
     45 H132        9.2820    3.8300   -0.8940 h1        1 J77      0.042200
     46 H16        13.6170    3.0680   -0.2590 ha        1 J77      0.149000
     47 H17        14.9950    5.0140    0.5480 ha        1 J77      0.157500
     48 H19        11.3740    7.1900    1.4830 ha        1 J77      0.157500
     49 H20         9.9980    5.2790    0.6910 ha        1 J77      0.149000
     50 H241       14.8340    9.1780    3.2840 h1        1 J77      0.052700
     51 H242       14.8240    9.8820    1.5990 h1        1 J77      0.052700
     52 H251       12.5340   10.8810    2.0390 hc        1 J77      0.047367
     53 H252       13.7530   11.4650    3.2560 hc        1 J77      0.047367
     54 H253       12.5450   10.1830    3.7090 hc        1 J77      0.047367
@<TRIPOS>BOND
     1    1    2 1   
     2    1   28 1   
     3    1   29 1   
     4    1   30 1   
     5    2    3 ar  
     6    2    7 ar  
     7    3    4 ar  
     8    3   31 1   
     9    4    5 ar  
    10    4   32 1   
    11    5    6 ar  
    12    5    8 1   
    13    6    7 ar  
    14    8    9 1   
    15    8   13 1   
    16    9   10 1   
    17    9   33 1   
    18    9   34 1   
    19   10   11 1   
    20   10   35 1   
    21   10   36 1   
    22   11   12 1   
    23   11   14 1   
    24   11   37 1   
    25   12   13 1   
    26   12   38 1   
    27   12   39 1   
    28   13   40 1   
    29   13   41 1   
    30   14   15 1   
    31   14   42 1   
    32   14   43 1   
    33   15   16 1   
    34   15   44 1   
    35   15   45 1   
    36   16   17 1   
    37   17   18 ar  
    38   17   22 ar  
    39   18   19 ar  
    40   18   46 1   
    41   19   20 ar  
    42   19   47 1   
    43   20   21 ar  
    44   20   23 1   
    45   21   22 ar  
    46   21   48 1   
    47   22   49 1   
    48   23   24 2   
    49   23   25 1   
    50   25   26 1   
    51   26   27 1   
    52   26   50 1   
    53   26   51 1   
    54   27   52 1   
    55   27   53 1   
    56   27   54 1   
@<TRIPOS>SUBSTRUCTURE
     1 J77         1 TEMP              0 ****  ****    0 ROOT
