@<TRIPOS>MOLECULE
J77
   54    56     1     0     0
SMALL
bcc


@<TRIPOS>ATOM
      1 C1         -0.2960   -1.3340   -0.4300 c3        1 J77     -0.138400
      2 C2          1.1370   -0.9340   -0.3840 ca        1 J77      0.311600
      3 C3          1.8580   -0.9910    0.8260 ca        1 J77     -0.184300
      4 C4          3.1960   -0.6060    0.8210 ca        1 J77     -0.224300
      5 C5          3.7640   -0.1770   -0.4140 ca        1 J77      0.545200
      6 N4          2.9670   -0.1550   -1.5610 nb        1 J77     -0.345000
      7 N3          1.7580   -0.5110   -1.5390 nb        1 J77     -0.289000
      8 N6          5.1470    0.1410   -0.4740 nh        1 J77     -0.724300
      9 C7          5.7270    0.2690   -1.8060 c3        1 J77      0.185300
     10 C8          7.2490    0.4080   -1.7680 c3        1 J77     -0.079900
     11 C9          7.6760    1.5550   -0.8640 c3        1 J77     -0.065700
     12 C10         7.0740    1.3570    0.5180 c3        1 J77     -0.079900
     13 C11         5.5560    1.2040    0.4380 c3        1 J77      0.185300
     14 C12         9.1920    1.6350   -0.8080 c3        1 J77     -0.083400
     15 C13         9.6500    2.9730   -0.2530 c3        1 J77      0.127400
     16 O14        11.0840    2.9310   -0.2840 os        1 J77     -0.325900
     17 C15        11.7340    4.0510    0.1800 ca        1 J77      0.163100
     18 C16        13.1420    3.9720    0.1410 ca        1 J77     -0.203000
     19 C17        13.8950    5.0470    0.5850 ca        1 J77     -0.036500
     20 C18        13.2630    6.2050    1.0700 ca        1 J77     -0.174600
     21 C19        11.8670    6.2750    1.1050 ca        1 J77     -0.036500
     22 C20        11.0960    5.2030    0.6620 ca        1 J77     -0.203000
     23 C21        14.1000    7.3170    1.5300 c         1 J77      0.652700
     24 O22        15.3340    7.3810    1.5520 o         1 J77     -0.551000
     25 O23        13.3970    8.4020    1.9850 os        1 J77     -0.444900
     26 C24        14.1790    9.5190    2.4460 c3        1 J77      0.140400
     27 C25        13.1920   10.5720    2.8880 c3        1 J77     -0.101100
     28 H11        -0.4370   -2.2010   -1.1230 hc        1 J77      0.053700
     29 H12        -0.6470   -1.6290    0.5880 hc        1 J77      0.053700
     30 H13        -0.9290   -0.4880   -0.7970 hc        1 J77      0.053700
     31 H3          1.3750   -1.3360    1.7500 ha        1 J77      0.148000
     32 H4          3.7960   -0.6510    1.7400 ha        1 J77      0.152000
     33 H71         5.2990    1.1570   -2.3560 h1        1 J77      0.046950
     34 H72         5.4680   -0.6590   -2.3890 h1        1 J77      0.046950
     35 H81         7.7140   -0.5460   -1.4070 hc        1 J77      0.052700
     36 H82         7.6060    0.5900   -2.8140 hc        1 J77      0.052700
     37 H9          7.2750    2.5160   -1.2960 hc        1 J77      0.050700
     38 H101        7.2990    2.2400    1.1690 hc        1 J77      0.052700
     39 H102        7.5250    0.4500    0.9990 hc        1 J77      0.052700
     40 H111        5.1120    2.1940    0.1230 h1        1 J77      0.046950
     41 H112        5.1650    0.9630    1.4660 h1        1 J77      0.046950
     42 H121        9.6160    1.5050   -1.8380 hc        1 J77      0.061700
     43 H122        9.6010    0.8070   -0.1730 hc        1 J77      0.061700
     44 H131        9.3050    3.1170    0.8050 h1        1 J77      0.042200
     45 H132        9.2870    3.8230   -0.8890 h1        1 J77      0.042200
     46 H16        13.6210    3.0590   -0.2420 ha        1 J77      0.149000
     47 H17        14.9970    5.0060    0.5630 ha        1 J77      0.157500
     48 H19        11.3770    7.1860    1.4860 ha        1 J77      0.157500
     49 H20        10.0000    5.2740    0.6950 ha        1 J77      0.149000
     50 H241       14.8340    9.1760    3.2890 h1        1 J77      0.052700
     51 H242       14.8260    9.8770    1.6020 h1        1 J77      0.052700
     52 H251       13.7530   11.4630    3.2560 hc        1 J77      0.047367
     53 H252       12.5450   10.1820    3.7100 hc        1 J77      0.047367
     54 H253       12.5360   10.8770    2.0380 hc        1 J77      0.047367
@<TRIPOS>BOND
     1    1    2 1   
     2    1   28 1   
     3    1   29 1   
     4    1   30 1   
     5    2    3 ar  
     6    2    7 ar  
     7    3    4 ar  
     8    3   31 1   
     9    4    5 ar  
    10    4   32 1   
    11    5    6 ar  
    12    5    8 1   
    13    6    7 ar  
    14    8    9 1   
    15    8   13 1   
    16    9   10 1   
    17    9   33 1   
    18    9   34 1   
    19   10   11 1   
    20   10   35 1   
    21   10   36 1   
    22   11   12 1   
    23   11   14 1   
    24   11   37 1   
    25   12   13 1   
    26   12   38 1   
    27   12   39 1   
    28   13   40 1   
    29   13   41 1   
    30   14   15 1   
    31   14   42 1   
    32   14   43 1   
    33   15   16 1   
    34   15   44 1   
    35   15   45 1   
    36   16   17 1   
    37   17   18 ar  
    38   17   22 ar  
    39   18   19 ar  
    40   18   46 1   
    41   19   20 ar  
    42   19   47 1   
    43   20   21 ar  
    44   20   23 1   
    45   21   22 ar  
    46   21   48 1   
    47   22   49 1   
    48   23   24 2   
    49   23   25 1   
    50   25   26 1   
    51   26   27 1   
    52   26   50 1   
    53   26   51 1   
    54   27   52 1   
    55   27   53 1   
    56   27   54 1   
@<TRIPOS>SUBSTRUCTURE
     1 J77         1 TEMP              0 ****  ****    0 ROOT
