@<TRIPOS>MOLECULE
J77
   54    56     1     0     0
SMALL
bcc


@<TRIPOS>ATOM
      1 C1          1.7050   -0.2070   -9.7170 c3        1 J77     -0.138400
      2 C2          1.1900   -0.0680   -8.3270 ca        1 J77      0.311600
      3 C3          1.3890    1.1260   -7.6050 ca        1 J77     -0.184300
      4 C4          0.8900    1.2100   -6.3090 ca        1 J77     -0.224300
      5 C5          0.2010    0.0790   -5.7820 ca        1 J77      0.545200
      6 N4          0.0540   -1.0620   -6.5760 nb        1 J77     -0.345000
      7 N3          0.5090   -1.1180   -7.7510 nb        1 J77     -0.289000
      8 N6         -0.3950    0.1600   -4.4960 nh        1 J77     -0.724300
      9 C7         -1.3370   -0.8980   -4.1480 c3        1 J77      0.185300
     10 C8         -2.0730   -0.6160   -2.8390 c3        1 J77     -0.079900
     11 C9         -1.0970   -0.3470   -1.7030 c3        1 J77     -0.065700
     12 C10        -0.1620    0.7840   -2.1020 c3        1 J77     -0.079900
     13 C11         0.5410    0.4750   -3.4230 c3        1 J77      0.185300
     14 C12        -1.8580   -0.0200   -0.4300 c3        1 J77     -0.083400
     15 C13        -0.9610   -0.1360    0.7900 c3        1 J77      0.127400
     16 O14        -1.8000    0.1670    1.9140 os        1 J77     -0.325900
     17 C15        -1.1970    0.1260    3.1500 ca        1 J77      0.163100
     18 C16        -2.0500    0.4360    4.2300 ca        1 J77     -0.203000
     19 C17        -1.5440    0.4240    5.5210 ca        1 J77     -0.036500
     20 C18        -0.1940    0.1050    5.7500 ca        1 J77     -0.174600
     21 C19         0.6430   -0.2020    4.6740 ca        1 J77     -0.036500
     22 C20         0.1490   -0.1940    3.3710 ca        1 J77     -0.203000
     23 C21         0.2980    0.1050    7.1320 c         1 J77      0.652700
     24 O22        -0.3340    0.3580    8.1630 o         1 J77     -0.551000
     25 O23         1.6240   -0.2190    7.2580 os        1 J77     -0.444900
     26 C24         2.1490   -0.2320    8.5980 c3        1 J77      0.140400
     27 C25         3.6040   -0.6130    8.4760 c3        1 J77     -0.101100
     28 H11         2.2460    0.7220  -10.0220 hc        1 J77      0.053700
     29 H12         2.4090   -1.0730   -9.7910 hc        1 J77      0.053700
     30 H13         0.8610   -0.3810  -10.4310 hc        1 J77      0.053700
     31 H3          1.9230    1.9730   -8.0600 ha        1 J77      0.148000
     32 H4          1.0120    2.1290   -5.7190 ha        1 J77      0.152000
     33 H71        -0.8170   -1.8960   -4.0600 h1        1 J77      0.046950
     34 H72        -2.0970   -0.9730   -4.9760 h1        1 J77      0.046950
     35 H81        -2.7060   -1.5090   -2.5980 hc        1 J77      0.052700
     36 H82        -2.7550    0.2650   -2.9630 hc        1 J77      0.052700
     37 H9         -0.4830   -1.2770   -1.5340 hc        1 J77      0.050700
     38 H101       -0.7430    1.7390   -2.1930 hc        1 J77      0.052700
     39 H102        0.6240    0.9330   -1.3170 hc        1 J77      0.052700
     40 H111        1.2590   -0.3810   -3.2540 h1        1 J77      0.046950
     41 H112        1.1450    1.3750   -3.7270 h1        1 J77      0.046950
     42 H121       -2.7220   -0.7270   -0.3140 hc        1 J77      0.061700
     43 H122       -2.2820    1.0160   -0.4860 hc        1 J77      0.061700
     44 H131       -0.1160    0.6000    0.7480 h1        1 J77      0.042200
     45 H132       -0.5540   -1.1760    0.8980 h1        1 J77      0.042200
     46 H16        -3.1030    0.6830    4.0330 ha        1 J77      0.149000
     47 H17        -2.1930    0.6640    6.3790 ha        1 J77      0.157500
     48 H19         1.7010   -0.4520    4.8600 ha        1 J77      0.157500
     49 H20         0.8200   -0.4380    2.5370 ha        1 J77      0.149000
     50 H241        1.5690   -0.9770    9.2040 h1        1 J77      0.052700
     51 H242        2.0170    0.7870    9.0460 h1        1 J77      0.052700
     52 H251        4.0590   -0.6370    9.4950 hc        1 J77      0.047367
     53 H252        3.7090   -1.6190    8.0040 hc        1 J77      0.047367
     54 H253        4.1530    0.1290    7.8490 hc        1 J77      0.047367
@<TRIPOS>BOND
     1    1    2 1   
     2    1   28 1   
     3    1   29 1   
     4    1   30 1   
     5    2    3 ar  
     6    2    7 ar  
     7    3    4 ar  
     8    3   31 1   
     9    4    5 ar  
    10    4   32 1   
    11    5    6 ar  
    12    5    8 1   
    13    6    7 ar  
    14    8    9 1   
    15    8   13 1   
    16    9   10 1   
    17    9   33 1   
    18    9   34 1   
    19   10   11 1   
    20   10   35 1   
    21   10   36 1   
    22   11   12 1   
    23   11   14 1   
    24   11   37 1   
    25   12   13 1   
    26   12   38 1   
    27   12   39 1   
    28   13   40 1   
    29   13   41 1   
    30   14   15 1   
    31   14   42 1   
    32   14   43 1   
    33   15   16 1   
    34   15   44 1   
    35   15   45 1   
    36   16   17 1   
    37   17   18 ar  
    38   17   22 ar  
    39   18   19 ar  
    40   18   46 1   
    41   19   20 ar  
    42   19   47 1   
    43   20   21 ar  
    44   20   23 1   
    45   21   22 ar  
    46   21   48 1   
    47   22   49 1   
    48   23   24 2   
    49   23   25 1   
    50   25   26 1   
    51   26   27 1   
    52   26   50 1   
    53   26   51 1   
    54   27   52 1   
    55   27   53 1   
    56   27   54 1   
@<TRIPOS>SUBSTRUCTURE
     1 J77         1 TEMP              0 ****  ****    0 ROOT
