@<TRIPOS>MOLECULE
J78
   57    59     1     0     0
SMALL
bcc


@<TRIPOS>ATOM
      1 C1         -0.3510    0.0010    0.3120 c3        1 J78     -0.138400
      2 C2          1.1270    0.1090    0.1770 ca        1 J78      0.309600
      3 C3          1.9630   -0.0650    1.3000 ca        1 J78     -0.184300
      4 C4          3.3400    0.0470    1.1260 ca        1 J78     -0.226300
      5 C5          3.8290    0.3290   -0.1820 ca        1 J78      0.547200
      6 N4          2.9200    0.4850   -1.2320 nb        1 J78     -0.346000
      7 N3          1.6760    0.3760   -1.0580 nb        1 J78     -0.289000
      8 N6          5.2290    0.3640   -0.4140 nh        1 J78     -0.725300
      9 C7          5.6590    0.3640   -1.8080 c3        1 J78      0.185300
     10 C8          7.1710    0.1950   -1.9520 c3        1 J78     -0.079900
     11 C9          7.9250    1.2370   -1.1390 c3        1 J78     -0.065700
     12 C10         7.4660    1.1720    0.3090 c3        1 J78     -0.079900
     13 C11         5.9500    1.3270    0.4120 c3        1 J78      0.185300
     14 C12         9.4230    1.0120   -1.2620 c3        1 J78     -0.075400
     15 C13        10.2170    2.2070   -0.7800 c3        1 J78     -0.086400
     16 C14        11.7030    1.9550   -0.9680 c3        1 J78      0.127400
     17 O15        12.3610    3.1230   -0.4570 os        1 J78     -0.326900
     18 C16        13.7350    3.1250   -0.5250 ca        1 J78      0.163100
     19 C17        14.3470    4.2890   -0.0150 ca        1 J78     -0.202500
     20 C18        15.7290    4.3940   -0.0350 ca        1 J78     -0.036500
     21 C19        16.5120    3.3510   -0.5580 ca        1 J78     -0.174600
     22 C20        15.8970    2.2000   -1.0610 ca        1 J78     -0.036500
     23 C21        14.5090    2.0800   -1.0480 ca        1 J78     -0.202500
     24 C22        17.9710    3.5050   -0.5580 c         1 J78      0.652700
     25 O23        18.6330    4.4630   -0.1450 o         1 J78     -0.551000
     26 O24        18.6510    2.4390   -1.0880 os        1 J78     -0.444900
     27 C25        20.0860    2.5490   -1.1090 c3        1 J78      0.140400
     28 C26        20.5970    1.2720   -1.7300 c3        1 J78     -0.101100
     29 H11        -0.8460    0.9510   -0.0130 hc        1 J78      0.053367
     30 H12        -0.6280   -0.2010    1.3750 hc        1 J78      0.053367
     31 H13        -0.7420   -0.8310   -0.3250 hc        1 J78      0.053367
     32 H3          1.5360   -0.2870    2.2870 ha        1 J78      0.147000
     33 H4          4.0240   -0.0970    1.9730 ha        1 J78      0.152000
     34 H71         5.1520   -0.4980   -2.3280 h1        1 J78      0.046950
     35 H72         5.3520    1.3160   -2.3300 h1        1 J78      0.046950
     36 H81         7.4760   -0.8310   -1.6210 hc        1 J78      0.051700
     37 H82         7.4270    0.2960   -3.0380 hc        1 J78      0.051700
     38 H9          7.6770    2.2570   -1.5480 hc        1 J78      0.053700
     39 H101        7.7820    0.1960    0.7610 hc        1 J78      0.051700
     40 H102        7.9400    1.9960    0.9020 hc        1 J78      0.051700
     41 H111        5.6780    2.3850    0.1210 h1        1 J78      0.046950
     42 H112        5.6470    1.1770    1.4850 h1        1 J78      0.046950
     43 H121        9.6740    0.8120   -2.3390 hc        1 J78      0.044200
     44 H122        9.7150    0.1010   -0.6780 hc        1 J78      0.044200
     45 H131        9.9210    3.1270   -1.3470 hc        1 J78      0.059200
     46 H132       10.0100    2.4030    0.3040 hc        1 J78      0.059200
     47 H141       12.0390    1.0540   -0.3910 h1        1 J78      0.042700
     48 H142       11.9590    1.8270   -2.0530 h1        1 J78      0.042700
     49 H17        13.7200    5.0960    0.3900 ha        1 J78      0.149500
     50 H18        16.2280    5.2950    0.3580 ha        1 J78      0.157500
     51 H20        16.5170    1.3850   -1.4700 ha        1 J78      0.157500
     52 H21        14.0410    1.1700   -1.4470 ha        1 J78      0.149500
     53 H251       20.3690    3.4510   -1.7110 h1        1 J78      0.052700
     54 H252       20.4520    2.6810   -0.0580 h1        1 J78      0.052700
     55 H261       20.1980    1.1510   -2.7660 hc        1 J78      0.047367
     56 H262       21.7120    1.3080   -1.7690 hc        1 J78      0.047367
     57 H263       20.2810    0.3880   -1.1270 hc        1 J78      0.047367
@<TRIPOS>BOND
     1    1    2 1   
     2    1   29 1   
     3    1   30 1   
     4    1   31 1   
     5    2    3 ar  
     6    2    7 ar  
     7    3    4 ar  
     8    3   32 1   
     9    4    5 ar  
    10    4   33 1   
    11    5    6 ar  
    12    5    8 1   
    13    6    7 ar  
    14    8    9 1   
    15    8   13 1   
    16    9   10 1   
    17    9   34 1   
    18    9   35 1   
    19   10   11 1   
    20   10   36 1   
    21   10   37 1   
    22   11   12 1   
    23   11   14 1   
    24   11   38 1   
    25   12   13 1   
    26   12   39 1   
    27   12   40 1   
    28   13   41 1   
    29   13   42 1   
    30   14   15 1   
    31   14   43 1   
    32   14   44 1   
    33   15   16 1   
    34   15   45 1   
    35   15   46 1   
    36   16   17 1   
    37   16   47 1   
    38   16   48 1   
    39   17   18 1   
    40   18   19 ar  
    41   18   23 ar  
    42   19   20 ar  
    43   19   49 1   
    44   20   21 ar  
    45   20   50 1   
    46   21   22 ar  
    47   21   24 1   
    48   22   23 ar  
    49   22   51 1   
    50   23   52 1   
    51   24   25 2   
    52   24   26 1   
    53   26   27 1   
    54   27   28 1   
    55   27   53 1   
    56   27   54 1   
    57   28   55 1   
    58   28   56 1   
    59   28   57 1   
@<TRIPOS>SUBSTRUCTURE
     1 J78         1 TEMP              0 ****  ****    0 ROOT
