@<TRIPOS>MOLECULE
J78
   57    59     1     0     0
SMALL
bcc


@<TRIPOS>ATOM
      1 C1         -0.3510    0.0040    0.3130 c3        1 J78     -0.138400
      2 C2          1.1270    0.1110    0.1770 ca        1 J78      0.309600
      3 C3          1.9640   -0.0760    1.2960 ca        1 J78     -0.184300
      4 C4          3.3400    0.0350    1.1220 ca        1 J78     -0.226300
      5 C5          3.8290    0.3310   -0.1840 ca        1 J78      0.546200
      6 N4          2.9170    0.5000   -1.2310 nb        1 J78     -0.346000
      7 N3          1.6740    0.3910   -1.0550 nb        1 J78     -0.289000
      8 N6          5.2280    0.3660   -0.4180 nh        1 J78     -0.725300
      9 C7          5.6550    0.3810   -1.8120 c3        1 J78      0.185300
     10 C8          7.1670    0.2120   -1.9610 c3        1 J78     -0.079900
     11 C9          7.9230    1.2440   -1.1380 c3        1 J78     -0.065700
     12 C10         7.4670    1.1630    0.3100 c3        1 J78     -0.079900
     13 C11         5.9510    1.3190    0.4170 c3        1 J78      0.185300
     14 C12         9.4220    1.0190   -1.2660 c3        1 J78     -0.075400
     15 C13        10.2170    2.2070   -0.7710 c3        1 J78     -0.086400
     16 C14        11.7030    1.9560   -0.9650 c3        1 J78      0.127400
     17 O15        12.3630    3.1180   -0.4420 os        1 J78     -0.326900
     18 C16        13.7370    3.1190   -0.5130 ca        1 J78      0.163100
     19 C17        14.3510    4.2780    0.0080 ca        1 J78     -0.202500
     20 C18        15.7330    4.3820   -0.0140 ca        1 J78     -0.036500
     21 C19        16.5140    3.3440   -0.5490 ca        1 J78     -0.174600
     22 C20        15.8970    2.2000   -1.0640 ca        1 J78     -0.036500
     23 C21        14.5090    2.0800   -1.0490 ca        1 J78     -0.202500
     24 C22        17.9730    3.4970   -0.5510 c         1 J78      0.652700
     25 O23        18.6370    4.4500   -0.1290 o         1 J78     -0.551000
     26 O24        18.6510    2.4380   -1.0950 os        1 J78     -0.444900
     27 C25        20.0860    2.5460   -1.1180 c3        1 J78      0.140400
     28 C26        20.5950    1.2760   -1.7550 c3        1 J78     -0.101100
     29 H11        -0.7460   -0.8180   -0.3350 hc        1 J78      0.053367
     30 H12        -0.8450    0.9600    0.0040 hc        1 J78      0.053367
     31 H13        -0.6270   -0.2140    1.3740 hc        1 J78      0.053367
     32 H3          1.5380   -0.3090    2.2820 ha        1 J78      0.147000
     33 H4          4.0260   -0.1200    1.9660 ha        1 J78      0.152000
     34 H71         5.3490    1.3390   -2.3240 h1        1 J78      0.046950
     35 H72         5.1470   -0.4740   -2.3410 h1        1 J78      0.046950
     36 H81         7.4210    0.3250   -3.0460 hc        1 J78      0.051700
     37 H82         7.4720   -0.8190   -1.6410 hc        1 J78      0.051700
     38 H9          7.6760    2.2690   -1.5350 hc        1 J78      0.053700
     39 H101        7.9430    1.9800    0.9120 hc        1 J78      0.051700
     40 H102        7.7830    0.1820    0.7510 hc        1 J78      0.051700
     41 H111        5.6800    2.3800    0.1390 h1        1 J78      0.046950
     42 H112        5.6500    1.1580    1.4900 h1        1 J78      0.046950
     43 H121        9.6710    0.8310   -2.3450 hc        1 J78      0.044200
     44 H122        9.7130    0.1010   -0.6920 hc        1 J78      0.044200
     45 H131        9.9220    3.1340   -1.3280 hc        1 J78      0.059200
     46 H132       10.0130    2.3910    0.3160 hc        1 J78      0.059200
     47 H141       12.0390    1.0490   -0.3980 h1        1 J78      0.042700
     48 H142       11.9570    1.8400   -2.0510 h1        1 J78      0.042700
     49 H17        13.7250    5.0800    0.4230 ha        1 J78      0.149500
     50 H18        16.2330    5.2790    0.3890 ha        1 J78      0.157500
     51 H20        16.5160    1.3890   -1.4830 ha        1 J78      0.157500
     52 H21        14.0400    1.1750   -1.4570 ha        1 J78      0.149500
     53 H251       20.4540    2.6660   -0.0660 h1        1 J78      0.052700
     54 H252       20.3680    3.4560   -1.7100 h1        1 J78      0.052700
     55 H261       20.1940    1.1680   -2.7910 hc        1 J78      0.047367
     56 H262       20.2790    0.3850   -1.1610 hc        1 J78      0.047367
     57 H263       21.7100    1.3120   -1.7960 hc        1 J78      0.047367
@<TRIPOS>BOND
     1    1    2 1   
     2    1   29 1   
     3    1   30 1   
     4    1   31 1   
     5    2    3 ar  
     6    2    7 ar  
     7    3    4 ar  
     8    3   32 1   
     9    4    5 ar  
    10    4   33 1   
    11    5    6 ar  
    12    5    8 1   
    13    6    7 ar  
    14    8    9 1   
    15    8   13 1   
    16    9   10 1   
    17    9   34 1   
    18    9   35 1   
    19   10   11 1   
    20   10   36 1   
    21   10   37 1   
    22   11   12 1   
    23   11   14 1   
    24   11   38 1   
    25   12   13 1   
    26   12   39 1   
    27   12   40 1   
    28   13   41 1   
    29   13   42 1   
    30   14   15 1   
    31   14   43 1   
    32   14   44 1   
    33   15   16 1   
    34   15   45 1   
    35   15   46 1   
    36   16   17 1   
    37   16   47 1   
    38   16   48 1   
    39   17   18 1   
    40   18   19 ar  
    41   18   23 ar  
    42   19   20 ar  
    43   19   49 1   
    44   20   21 ar  
    45   20   50 1   
    46   21   22 ar  
    47   21   24 1   
    48   22   23 ar  
    49   22   51 1   
    50   23   52 1   
    51   24   25 2   
    52   24   26 1   
    53   26   27 1   
    54   27   28 1   
    55   27   53 1   
    56   27   54 1   
    57   28   55 1   
    58   28   56 1   
    59   28   57 1   
@<TRIPOS>SUBSTRUCTURE
     1 J78         1 TEMP              0 ****  ****    0 ROOT
