@<TRIPOS>MOLECULE
J78
   57    55     1     0     0
SMALL
bcc


@<TRIPOS>ATOM
      1 C1         -7.9160   -3.2880    2.1260 c3        1 J78     -0.163000
      2 C2         -6.4060   -3.2810    2.2130 c2        1 J78     -0.108000
      3 C3         -5.7220   -4.4620    2.3580 c2        1 J78     -0.123000
      4 C4         -4.3630   -4.4580    2.3950 c1        1 J78     -0.153000
      5 C5         -3.6780   -3.2750    2.2880 c1        1 J78      0.013000
      6 N4         -4.3550   -2.1100    2.1440 n1        1 J78     -0.081000
      7 N3         -5.7270   -2.1130    2.1070 n1        1 J78     -0.029000
      8 N6         -2.2590   -3.2710    2.3220 n3        1 J78     -0.201000
      9 C7         -1.7380   -2.8370    1.0140 c3        1 J78     -0.058500
     10 C8         -1.9860   -1.3690    0.7490 c3        1 J78     -0.185000
     11 C9         -1.5160   -0.5070    1.8640 c3        1 J78     -0.103000
     12 C10        -2.0460   -0.9500    3.1790 c3        1 J78     -0.185000
     13 C11        -1.7970   -2.4200    3.4330 c3        1 J78     -0.058500
     14 C12         0.0480   -0.5460    1.9090 c3        1 J78     -0.156000
     15 C13         0.5840    0.8610    2.0640 c3        1 J78     -0.165000
     16 C14         1.6570    1.1110    1.0220 c3        1 J78     -0.023000
     17 O15         1.5900    2.4510    0.5910 os        1 J78     -0.210000
     18 C16         2.4030    2.7330   -0.5220 c2        1 J78      0.119000
     19 C17         3.6440    3.3260   -0.3400 c2        1 J78     -0.177000
     20 C18         4.3980    3.7090   -1.4380 c1        1 J78     -0.042000
     21 C19         3.9120    3.4990   -2.7190 c1        1 J78     -0.154000
     22 C20         2.6730    2.9070   -2.9020 c1        1 J78     -0.031000
     23 C21         1.9180    2.5240   -1.8040 c1        1 J78     -0.229000
     24 C22         4.7240    3.9440   -3.9180 c2        1 J78      0.353000
     25 O23         4.7410    5.1150   -4.2400 o         1 J78     -0.362000
     26 O24         5.4510    2.9990   -4.6630 os        1 J78     -0.283000
     27 C25         6.0430    3.5250   -5.8280 c3        1 J78     -0.010000
     28 C26         6.6860    2.4050   -6.6170 c3        1 J78     -0.219000
     29 H11        -8.2910   -3.6040    2.9750 hc        1 J78      0.093000
     30 H12        -8.1990   -3.8850    1.4010 hc        1 J78      0.093000
     31 H13        -8.2370   -2.3790    1.9450 hc        1 J78      0.093000
     32 H3         -6.2100   -5.3030    2.4350 ha        1 J78      0.148000
     33 H4         -3.8750   -5.2970    2.4990 ha        1 J78      0.153000
     34 H71        -2.1710   -3.3620    0.3100 h1        1 J78      0.098000
     35 H72        -0.7730   -3.0050    0.9860 h1        1 J78      0.098000
     36 H81        -1.5170   -1.1110   -0.0700 hc        1 J78      0.094000
     37 H82        -2.9450   -1.2280    0.6230 hc        1 J78      0.094000
     38 H9         -1.8060    0.4100    1.6980 hc        1 J78      0.088000
     39 H101       -1.6140   -0.4300    3.8850 hc        1 J78      0.094000
     40 H102       -3.0100   -0.7830    3.2050 hc        1 J78      0.094000
     41 H111       -2.2670   -2.6830    4.2480 h1        1 J78      0.098000
     42 H112       -0.8380   -2.5610    3.5610 h1        1 J78      0.098000
     43 H121        0.3880   -0.9350    1.0800 hc        1 J78      0.084500
     44 H122        0.3380   -1.0910    2.6670 hc        1 J78      0.084500
     45 H131       -0.1450    1.5030    1.9420 hc        1 J78      0.100000
     46 H132        0.9660    0.9680    2.9580 hc        1 J78      0.100000
     47 H141        1.5160    0.5140    0.2580 h1        1 J78      0.082000
     48 H142        2.5390    0.9380    1.4140 h1        1 J78      0.082000
     49 H17         3.9850    3.4730    0.5620 ha        1 J78      0.156000
     50 H18         5.2710    4.1260   -1.3090 ha        1 J78      0.160000
     51 H20         2.3310    2.7600   -3.8050 ha        1 J78      0.155000
     52 H21         1.0450    2.1070   -1.9330 ha        1 J78      0.142000
     53 H251        5.3570    3.9590   -6.3770 h1        1 J78      0.092000
     54 H252        6.7250    4.1820   -5.5800 h1        1 J78      0.092000
     55 H261        7.1580    1.8030   -6.0040 hc        1 J78      0.086333
     56 H262        7.3230    2.7820   -7.2600 hc        1 J78      0.086333
     57 H263        5.9930    1.9050   -7.0970 hc        1 J78      0.086333
@<TRIPOS>BOND
     1    1    2 1   
     2    1   29 1   
     3    1   30 1   
     4    1   31 1   
     5    2    3 1   
     6    2    7 1   
     7    3    4 1   
     8    3   32 1   
     9    4   33 1   
    10    5    6 1   
    11    5    8 1   
    12    8    9 1   
    13    8   13 1   
    14    9   10 1   
    15    9   34 1   
    16    9   35 1   
    17   10   11 1   
    18   10   36 1   
    19   10   37 1   
    20   11   12 1   
    21   11   14 1   
    22   11   38 1   
    23   12   13 1   
    24   12   39 1   
    25   12   40 1   
    26   13   41 1   
    27   13   42 1   
    28   14   15 1   
    29   14   43 1   
    30   14   44 1   
    31   15   16 1   
    32   15   45 1   
    33   15   46 1   
    34   16   17 1   
    35   16   47 1   
    36   16   48 1   
    37   17   18 1   
    38   18   19 1   
    39   18   23 1   
    40   19   20 1   
    41   19   49 1   
    42   20   50 1   
    43   21   22 1   
    44   21   24 1   
    45   22   51 1   
    46   23   52 1   
    47   24   25 1   
    48   24   26 1   
    49   26   27 1   
    50   27   28 1   
    51   27   53 1   
    52   27   54 1   
    53   28   55 1   
    54   28   56 1   
    55   28   57 1   
@<TRIPOS>SUBSTRUCTURE
     1 J78         1 TEMP              0 ****  ****    0 ROOT
