@<TRIPOS>MOLECULE
J78
   57    59     1     0     0
SMALL
bcc


@<TRIPOS>ATOM
      1 C1         -0.3520    0.0040    0.3110 c3        1 J78     -0.138400
      2 C2          1.1260    0.1110    0.1770 ca        1 J78      0.309600
      3 C3          1.9620   -0.0660    1.2990 ca        1 J78     -0.184300
      4 C4          3.3380    0.0440    1.1270 ca        1 J78     -0.226300
      5 C5          3.8290    0.3290   -0.1810 ca        1 J78      0.546200
      6 N4          2.9200    0.4870   -1.2310 nb        1 J78     -0.346000
      7 N3          1.6760    0.3790   -1.0570 nb        1 J78     -0.289000
      8 N6          5.2290    0.3630   -0.4130 nh        1 J78     -0.725300
      9 C7          5.6590    0.3650   -1.8060 c3        1 J78      0.185300
     10 C8          7.1710    0.1960   -1.9510 c3        1 J78     -0.079900
     11 C9          7.9250    1.2360   -1.1360 c3        1 J78     -0.065700
     12 C10         7.4660    1.1680    0.3120 c3        1 J78     -0.079900
     13 C11         5.9500    1.3250    0.4150 c3        1 J78      0.185300
     14 C12         9.4230    1.0110   -1.2600 c3        1 J78     -0.075400
     15 C13        10.2170    2.2040   -0.7740 c3        1 J78     -0.086400
     16 C14        11.7040    1.9530   -0.9650 c3        1 J78      0.127400
     17 O15        12.3620    3.1200   -0.4510 os        1 J78     -0.326900
     18 C16        13.7360    3.1230   -0.5210 ca        1 J78      0.163100
     19 C17        14.3480    4.2860   -0.0100 ca        1 J78     -0.202500
     20 C18        15.7300    4.3920   -0.0320 ca        1 J78     -0.036500
     21 C19        16.5130    3.3500   -0.5580 ca        1 J78     -0.174600
     22 C20        15.8980    2.2010   -1.0630 ca        1 J78     -0.036500
     23 C21        14.5100    2.0790   -1.0480 ca        1 J78     -0.202500
     24 C22        17.9710    3.5050   -0.5610 c         1 J78      0.652700
     25 O23        18.6340    4.4630   -0.1460 o         1 J78     -0.551000
     26 O24        18.6510    2.4420   -1.0950 os        1 J78     -0.444900
     27 C25        20.0860    2.5530   -1.1180 c3        1 J78      0.140400
     28 C26        20.5970    1.2780   -1.7440 c3        1 J78     -0.101100
     29 H11        -0.6290   -0.2030    1.3740 hc        1 J78      0.053367
     30 H12        -0.8450    0.9560   -0.0090 hc        1 J78      0.053367
     31 H13        -0.7440   -0.8250   -0.3300 hc        1 J78      0.053367
     32 H3          1.5340   -0.2900    2.2860 ha        1 J78      0.147000
     33 H4          4.0230   -0.1020    1.9730 ha        1 J78      0.152000
     34 H71         5.1520   -0.4950   -2.3280 h1        1 J78      0.046950
     35 H72         5.3530    1.3190   -2.3270 h1        1 J78      0.046950
     36 H81         7.4270    0.2980   -3.0370 hc        1 J78      0.051700
     37 H82         7.4760   -0.8320   -1.6210 hc        1 J78      0.051700
     38 H9          7.6770    2.2570   -1.5430 hc        1 J78      0.052700
     39 H101        7.7810    0.1910    0.7630 hc        1 J78      0.051700
     40 H102        7.9400    1.9910    0.9060 hc        1 J78      0.051700
     41 H111        5.6470    1.1730    1.4880 h1        1 J78      0.046950
     42 H112        5.6780    2.3830    0.1260 h1        1 J78      0.046950
     43 H121        9.6740    0.8130   -2.3360 hc        1 J78      0.044200
     44 H122        9.7150    0.0980   -0.6760 hc        1 J78      0.044200
     45 H131       10.0110    2.3980    0.3100 hc        1 J78      0.059200
     46 H132        9.9210    3.1260   -1.3390 hc        1 J78      0.059200
     47 H141       12.0400    1.0510   -0.3900 h1        1 J78      0.042700
     48 H142       11.9580    1.8280   -2.0500 h1        1 J78      0.042700
     49 H17        13.7210    5.0910    0.3980 ha        1 J78      0.149500
     50 H18        16.2290    5.2930    0.3630 ha        1 J78      0.157500
     51 H20        16.5170    1.3870   -1.4750 ha        1 J78      0.157500
     52 H21        14.0420    1.1700   -1.4480 ha        1 J78      0.149500
     53 H251       20.3670    3.4570   -1.7180 h1        1 J78      0.052700
     54 H252       20.4540    2.6810   -0.0670 h1        1 J78      0.052700
     55 H261       20.2820    0.3910   -1.1430 hc        1 J78      0.047367
     56 H262       21.7110    1.3150   -1.7850 hc        1 J78      0.047367
     57 H263       20.1960    1.1600   -2.7790 hc        1 J78      0.047367
@<TRIPOS>BOND
     1    1    2 1   
     2    1   29 1   
     3    1   30 1   
     4    1   31 1   
     5    2    3 ar  
     6    2    7 ar  
     7    3    4 ar  
     8    3   32 1   
     9    4    5 ar  
    10    4   33 1   
    11    5    6 ar  
    12    5    8 1   
    13    6    7 ar  
    14    8    9 1   
    15    8   13 1   
    16    9   10 1   
    17    9   34 1   
    18    9   35 1   
    19   10   11 1   
    20   10   36 1   
    21   10   37 1   
    22   11   12 1   
    23   11   14 1   
    24   11   38 1   
    25   12   13 1   
    26   12   39 1   
    27   12   40 1   
    28   13   41 1   
    29   13   42 1   
    30   14   15 1   
    31   14   43 1   
    32   14   44 1   
    33   15   16 1   
    34   15   45 1   
    35   15   46 1   
    36   16   17 1   
    37   16   47 1   
    38   16   48 1   
    39   17   18 1   
    40   18   19 ar  
    41   18   23 ar  
    42   19   20 ar  
    43   19   49 1   
    44   20   21 ar  
    45   20   50 1   
    46   21   22 ar  
    47   21   24 1   
    48   22   23 ar  
    49   22   51 1   
    50   23   52 1   
    51   24   25 2   
    52   24   26 1   
    53   26   27 1   
    54   27   28 1   
    55   27   53 1   
    56   27   54 1   
    57   28   55 1   
    58   28   56 1   
    59   28   57 1   
@<TRIPOS>SUBSTRUCTURE
     1 J78         1 TEMP              0 ****  ****    0 ROOT
