@<TRIPOS>MOLECULE
J78
   57    59     1     0     0
SMALL
bcc


@<TRIPOS>ATOM
      1 C1         -0.5310   -0.1400  -10.7530 c3        1 J78     -0.138400
      2 C2         -0.3420   -0.1740   -9.2770 ca        1 J78      0.309600
      3 C3         -0.6870   -1.3240   -8.5370 ca        1 J78     -0.184300
      4 C4         -0.4940   -1.3090   -7.1590 ca        1 J78     -0.226300
      5 C5          0.0460   -0.1280   -6.5700 ca        1 J78      0.547200
      6 N4          0.3570    0.9610   -7.3890 nb        1 J78     -0.346000
      7 N3          0.1800    0.9280   -8.6370 nb        1 J78     -0.289000
      8 N6          0.3370   -0.1080   -5.1810 nh        1 J78     -0.725300
      9 C7          1.1500    1.0040   -4.7020 c3        1 J78      0.185300
     10 C8          1.5780    0.8300   -3.2460 c3        1 J78     -0.079900
     11 C9          0.3800    0.5880   -2.3410 c3        1 J78     -0.065700
     12 C10        -0.4120   -0.6010   -2.8630 c3        1 J78     -0.079900
     13 C11        -0.8080   -0.3970   -4.3240 c3        1 J78      0.185300
     14 C12         0.8410    0.3680   -0.9090 c3        1 J78     -0.075400
     15 C13        -0.3000    0.4780    0.0780 c3        1 J78     -0.086400
     16 C14         0.2170    0.3000    1.4950 c3        1 J78      0.127400
     17 O15        -0.9370    0.3920    2.3420 os        1 J78     -0.326900
     18 C16        -0.7100    0.2610    3.6930 ca        1 J78      0.163100
     19 C17        -1.8670    0.3590    4.4950 ca        1 J78     -0.202500
     20 C18        -1.7500    0.2400    5.8720 ca        1 J78     -0.036500
     21 C19        -0.4930    0.0250    6.4610 ca        1 J78     -0.174600
     22 C20         0.6480   -0.0710    5.6590 ca        1 J78     -0.036500
     23 C21         0.5470    0.0460    4.2740 ca        1 J78     -0.202500
     24 C22        -0.4180   -0.0950    7.9210 c         1 J78      0.652700
     25 O23        -1.3440   -0.0320    8.7370 o         1 J78     -0.551000
     26 O24         0.8470   -0.3020    8.4060 os        1 J78     -0.444900
     27 C25         0.9680   -0.4240    9.8350 c3        1 J78      0.140400
     28 C26         2.4340   -0.6420   10.1170 c3        1 J78     -0.101100
     29 H11        -0.9750   -1.1020  -11.1070 hc        1 J78      0.053367
     30 H12        -1.2140    0.6970  -11.0430 hc        1 J78      0.053367
     31 H13         0.4490    0.0140  -11.2700 hc        1 J78      0.053367
     32 H3         -1.0950   -2.2120   -9.0400 ha        1 J78      0.147000
     33 H4         -0.7360   -2.1910   -6.5500 ha        1 J78      0.152000
     34 H71         0.5980    1.9850   -4.7990 h1        1 J78      0.046950
     35 H72         2.0750    1.0610   -5.3420 h1        1 J78      0.046950
     36 H81         2.1160    1.7610   -2.9310 hc        1 J78      0.051700
     37 H82         2.2940   -0.0280   -3.1560 hc        1 J78      0.051700
     38 H9         -0.2810    1.5000   -2.3720 hc        1 J78      0.053700
     39 H101        0.1980   -1.5350   -2.7590 hc        1 J78      0.051700
     40 H102       -1.3500   -0.7330   -2.2650 hc        1 J78      0.051700
     41 H111       -1.5670    0.4390   -4.3770 h1        1 J78      0.046950
     42 H112       -1.3050   -1.3370   -4.6940 h1        1 J78      0.046950
     43 H121        1.6230    1.1330   -0.6570 hc        1 J78      0.044200
     44 H122        1.3230   -0.6420   -0.8220 hc        1 J78      0.044200
     45 H131       -1.0780   -0.3020   -0.1320 hc        1 J78      0.059200
     46 H132       -0.7990    1.4780   -0.0120 hc        1 J78      0.059200
     47 H141        0.9450    1.1100    1.7660 h1        1 J78      0.042700
     48 H142        0.6990   -0.7030    1.6280 h1        1 J78      0.042700
     49 H17        -2.8420    0.5280    4.0180 ha        1 J78      0.149500
     50 H18        -2.6420    0.3130    6.5170 ha        1 J78      0.157500
     51 H20         1.6310   -0.2390    6.1270 ha        1 J78      0.157500
     52 H21         1.4530   -0.0310    3.6580 ha        1 J78      0.149500
     53 H251        0.3410   -1.2900   10.1760 h1        1 J78      0.052700
     54 H252        0.5830    0.5160   10.3100 h1        1 J78      0.052700
     55 H261        2.5800   -0.7440   11.2190 hc        1 J78      0.047367
     56 H262        2.7980   -1.5690    9.6130 hc        1 J78      0.047367
     57 H263        3.0380    0.2200    9.7460 hc        1 J78      0.047367
@<TRIPOS>BOND
     1    1    2 1   
     2    1   29 1   
     3    1   30 1   
     4    1   31 1   
     5    2    3 ar  
     6    2    7 ar  
     7    3    4 ar  
     8    3   32 1   
     9    4    5 ar  
    10    4   33 1   
    11    5    6 ar  
    12    5    8 1   
    13    6    7 ar  
    14    8    9 1   
    15    8   13 1   
    16    9   10 1   
    17    9   34 1   
    18    9   35 1   
    19   10   11 1   
    20   10   36 1   
    21   10   37 1   
    22   11   12 1   
    23   11   14 1   
    24   11   38 1   
    25   12   13 1   
    26   12   39 1   
    27   12   40 1   
    28   13   41 1   
    29   13   42 1   
    30   14   15 1   
    31   14   43 1   
    32   14   44 1   
    33   15   16 1   
    34   15   45 1   
    35   15   46 1   
    36   16   17 1   
    37   16   47 1   
    38   16   48 1   
    39   17   18 1   
    40   18   19 ar  
    41   18   23 ar  
    42   19   20 ar  
    43   19   49 1   
    44   20   21 ar  
    45   20   50 1   
    46   21   22 ar  
    47   21   24 1   
    48   22   23 ar  
    49   22   51 1   
    50   23   52 1   
    51   24   25 2   
    52   24   26 1   
    53   26   27 1   
    54   27   28 1   
    55   27   53 1   
    56   27   54 1   
    57   28   55 1   
    58   28   56 1   
    59   28   57 1   
@<TRIPOS>SUBSTRUCTURE
     1 J78         1 TEMP              0 ****  ****    0 ROOT
