@<TRIPOS>MOLECULE
J80
   60    62     1     0     0
SMALL
bcc


@<TRIPOS>ATOM
      1 C1         -0.2690   -1.3440   -0.4510 c3        1 J80     -0.138400
      2 C2          1.1670   -0.9570   -0.4150 ca        1 J80      0.309600
      3 C3          1.8960   -1.0200    0.7900 ca        1 J80     -0.184300
      4 C4          3.2370   -0.6460    0.7760 ca        1 J80     -0.226300
      5 C5          3.8010   -0.2230   -0.4630 ca        1 J80      0.547200
      6 N4          2.9960   -0.1940   -1.6050 nb        1 J80     -0.346000
      7 N3          1.7840   -0.5400   -1.5740 nb        1 J80     -0.289000
      8 N6          5.1860    0.0810   -0.5330 nh        1 J80     -0.724300
      9 C7          5.7560    0.2150   -1.8690 c3        1 J80      0.185800
     10 C8          7.2790    0.3390   -1.8440 c3        1 J80     -0.078900
     11 C9          7.7280    1.4720   -0.9340 c3        1 J80     -0.066700
     12 C10         7.1370    1.2660    0.4520 c3        1 J80     -0.078900
     13 C11         5.6170    1.1290    0.3860 c3        1 J80      0.185800
     14 C12         9.2460    1.5410   -0.8910 c3        1 J80     -0.075400
     15 C13         9.7430    2.8570   -0.3300 c3        1 J80     -0.078400
     16 C14        11.2560    2.9020   -0.3260 c3        1 J80     -0.086400
     17 C15        11.7390    4.2290    0.2340 c3        1 J80      0.127400
     18 O16        13.1720    4.1620    0.2050 os        1 J80     -0.325900
     19 C17        13.8400    5.2700    0.6720 ca        1 J80      0.163100
     20 C18        15.2470    5.1690    0.6310 ca        1 J80     -0.203000
     21 C19        16.0170    6.2310    1.0780 ca        1 J80     -0.036500
     22 C20        15.4040    7.3960    1.5680 ca        1 J80     -0.174600
     23 C21        14.0090    7.4880    1.6060 ca        1 J80     -0.036500
     24 C22        13.2210    6.4290    1.1600 ca        1 J80     -0.203000
     25 C23        16.2590    8.4940    2.0310 c         1 J80      0.652700
     26 O24        17.4940    8.5380    2.0520 o         1 J80     -0.551000
     27 O25        15.5730    9.5890    2.4900 os        1 J80     -0.444900
     28 C26        16.3740   10.6910    2.9540 c3        1 J80      0.140400
     29 C27        15.4040   11.7580    3.4000 c3        1 J80     -0.101100
     30 H11        -0.4240   -2.2100   -1.1430 hc        1 J80      0.053367
     31 H12        -0.8970   -0.4920   -0.8130 hc        1 J80      0.053367
     32 H13        -0.6160   -1.6360    0.5700 hc        1 J80      0.053367
     33 H3          1.4150   -1.3600    1.7180 ha        1 J80      0.147000
     34 H4          3.8420   -0.6960    1.6910 ha        1 J80      0.152000
     35 H71         5.4820   -0.7060   -2.4570 h1        1 J80      0.045950
     36 H72         5.3310    1.1120   -2.4070 h1        1 J80      0.045950
     37 H81         7.7380   -0.6230   -1.4970 hc        1 J80      0.051200
     38 H82         7.6270    0.5270   -2.8920 hc        1 J80      0.051200
     39 H9          7.3320    2.4420   -1.3510 hc        1 J80      0.050700
     40 H101        7.3780    2.1400    1.1090 hc        1 J80      0.051200
     41 H102        7.5830    0.3500    0.9190 hc        1 J80      0.051200
     42 H111        5.2340    0.8830    1.4160 h1        1 J80      0.045950
     43 H112        5.1800    2.1280    0.0860 h1        1 J80      0.045950
     44 H121        9.6470    1.4110   -1.9310 hc        1 J80      0.046200
     45 H122        9.6430    0.6930   -0.2740 hc        1 J80      0.046200
     46 H131        9.3600    2.9920    0.7170 hc        1 J80      0.041700
     47 H132        9.3410    3.7050   -0.9440 hc        1 J80      0.041700
     48 H141       11.6510    2.7720   -1.3670 hc        1 J80      0.059700
     49 H142       11.6690    2.0640    0.2930 hc        1 J80      0.059700
     50 H151       11.3930    4.3730    1.2910 h1        1 J80      0.042200
     51 H152       11.3920    5.0870   -0.4000 h1        1 J80      0.042200
     52 H18        15.7110    4.2500    0.2440 ha        1 J80      0.149500
     53 H19        17.1190    6.1720    1.0550 ha        1 J80      0.157500
     54 H21        13.5340    8.4050    1.9910 ha        1 J80      0.157500
     55 H22        12.1270    6.5170    1.1960 ha        1 J80      0.149500
     56 H261       17.0230   10.3340    3.7960 h1        1 J80      0.052700
     57 H262       17.0260   11.0410    2.1120 h1        1 J80      0.052700
     58 H271       14.7530   12.0770    2.5510 hc        1 J80      0.047033
     59 H272       14.7500   11.3770    4.2200 hc        1 J80      0.047033
     60 H273       15.9800   12.6390    3.7710 hc        1 J80      0.047033
@<TRIPOS>BOND
     1    1    2 1   
     2    1   30 1   
     3    1   31 1   
     4    1   32 1   
     5    2    3 ar  
     6    2    7 ar  
     7    3    4 ar  
     8    3   33 1   
     9    4    5 ar  
    10    4   34 1   
    11    5    6 ar  
    12    5    8 1   
    13    6    7 ar  
    14    8    9 1   
    15    8   13 1   
    16    9   10 1   
    17    9   35 1   
    18    9   36 1   
    19   10   11 1   
    20   10   37 1   
    21   10   38 1   
    22   11   12 1   
    23   11   14 1   
    24   11   39 1   
    25   12   13 1   
    26   12   40 1   
    27   12   41 1   
    28   13   42 1   
    29   13   43 1   
    30   14   15 1   
    31   14   44 1   
    32   14   45 1   
    33   15   16 1   
    34   15   46 1   
    35   15   47 1   
    36   16   17 1   
    37   16   48 1   
    38   16   49 1   
    39   17   18 1   
    40   17   50 1   
    41   17   51 1   
    42   18   19 1   
    43   19   20 ar  
    44   19   24 ar  
    45   20   21 ar  
    46   20   52 1   
    47   21   22 ar  
    48   21   53 1   
    49   22   23 ar  
    50   22   25 1   
    51   23   24 ar  
    52   23   54 1   
    53   24   55 1   
    54   25   26 2   
    55   25   27 1   
    56   27   28 1   
    57   28   29 1   
    58   28   56 1   
    59   28   57 1   
    60   29   58 1   
    61   29   59 1   
    62   29   60 1   
@<TRIPOS>SUBSTRUCTURE
     1 J80         1 TEMP              0 ****  ****    0 ROOT
