@<TRIPOS>MOLECULE
J80
   60    62     1     0     0
SMALL
bcc


@<TRIPOS>ATOM
      1 C1         -0.2710   -1.3380   -0.4630 c3        1 J80     -0.138400
      2 C2          1.1650   -0.9520   -0.4220 ca        1 J80      0.309600
      3 C3          1.8870   -1.0040    0.7890 ca        1 J80     -0.184300
      4 C4          3.2280   -0.6330    0.7790 ca        1 J80     -0.226300
      5 C5          3.8010   -0.2230   -0.4600 ca        1 J80      0.547200
      6 N4          3.0030   -0.2050   -1.6080 nb        1 J80     -0.346000
      7 N3          1.7900   -0.5480   -1.5810 nb        1 J80     -0.289000
      8 N6          5.1860    0.0790   -0.5250 nh        1 J80     -0.724300
      9 C7          5.7650    0.1970   -1.8590 c3        1 J80      0.185800
     10 C8          7.2880    0.3200   -1.8250 c3        1 J80     -0.078900
     11 C9          7.7330    1.4620   -0.9240 c3        1 J80     -0.066700
     12 C10         7.1330    1.2700    0.4590 c3        1 J80     -0.078900
     13 C11         5.6130    1.1350    0.3860 c3        1 J80      0.185800
     14 C12         9.2510    1.5290   -0.8730 c3        1 J80     -0.075400
     15 C13         9.7470    2.8490   -0.3210 c3        1 J80     -0.078400
     16 C14        11.2590    2.8920   -0.3100 c3        1 J80     -0.086400
     17 C15        11.7410    4.2230    0.2400 c3        1 J80      0.127400
     18 O16        13.1740    4.1550    0.2210 os        1 J80     -0.325900
     19 C17        13.8410    5.2670    0.6810 ca        1 J80      0.163100
     20 C18        15.2480    5.1630    0.6480 ca        1 J80     -0.203000
     21 C19        16.0170    6.2280    1.0910 ca        1 J80     -0.036500
     22 C20        15.4020    7.3980    1.5670 ca        1 J80     -0.174600
     23 C21        14.0080    7.4920    1.5950 ca        1 J80     -0.036500
     24 C22        13.2210    6.4310    1.1550 ca        1 J80     -0.203000
     25 C23        16.2560    8.4990    2.0240 c         1 J80      0.652700
     26 O24        17.4910    8.5420    2.0510 o         1 J80     -0.551000
     27 O25        15.5700    9.5990    2.4700 os        1 J80     -0.444900
     28 C26        16.3690   10.7040    2.9290 c3        1 J80      0.140400
     29 C27        15.3980   11.7760    3.3610 c3        1 J80     -0.101100
     30 H11        -0.4230   -2.2110   -1.1460 hc        1 J80      0.053367
     31 H12        -0.6250   -1.6190    0.5590 hc        1 J80      0.053367
     32 H13        -0.8960   -0.4890   -0.8370 hc        1 J80      0.053367
     33 H3          1.4000   -1.3340    1.7170 ha        1 J80      0.147000
     34 H4          3.8270   -0.6740    1.6990 ha        1 J80      0.152000
     35 H71         5.3450    1.0890   -2.4090 h1        1 J80      0.045950
     36 H72         5.4940   -0.7290   -2.4390 h1        1 J80      0.045950
     37 H81         7.7430   -0.6390   -1.4660 hc        1 J80      0.051200
     38 H82         7.6430    0.4970   -2.8730 hc        1 J80      0.051200
     39 H9          7.3420    2.4280   -1.3530 hc        1 J80      0.050700
     40 H101        7.5750    0.3580    0.9390 hc        1 J80      0.051200
     41 H102        7.3710    2.1510    1.1100 hc        1 J80      0.051200
     42 H111        5.2240    0.9000    1.4150 h1        1 J80      0.045950
     43 H112        5.1800    2.1310    0.0730 h1        1 J80      0.045950
     44 H121        9.6580    1.3880   -1.9090 hc        1 J80      0.046200
     45 H122        9.6430    0.6860   -0.2450 hc        1 J80      0.046200
     46 H131        9.3500    3.6920   -0.9460 hc        1 J80      0.041700
     47 H132        9.3580    2.9950    0.7210 hc        1 J80      0.041700
     48 H141       11.6680    2.0590    0.3200 hc        1 J80      0.059700
     49 H142       11.6610    2.7520   -1.3470 hc        1 J80      0.059700
     50 H151       11.3890    4.3780    1.2940 h1        1 J80      0.042200
     51 H152       11.3990    5.0760   -0.4030 h1        1 J80      0.042200
     52 H18        15.7130    4.2400    0.2730 ha        1 J80      0.149500
     53 H19        17.1190    6.1680    1.0730 ha        1 J80      0.157500
     54 H21        13.5310    8.4130    1.9700 ha        1 J80      0.157500
     55 H22        12.1260    6.5200    1.1830 ha        1 J80      0.149500
     56 H261       17.0140   10.3540    3.7770 h1        1 J80      0.052700
     57 H262       17.0260   11.0470    2.0870 h1        1 J80      0.052700
     58 H271       15.9730   12.6600    3.7270 hc        1 J80      0.046700
     59 H272       14.7520   12.0880    2.5060 hc        1 J80      0.046700
     60 H273       14.7400   11.4020    4.1810 hc        1 J80      0.046700
@<TRIPOS>BOND
     1    1    2 1   
     2    1   30 1   
     3    1   31 1   
     4    1   32 1   
     5    2    3 ar  
     6    2    7 ar  
     7    3    4 ar  
     8    3   33 1   
     9    4    5 ar  
    10    4   34 1   
    11    5    6 ar  
    12    5    8 1   
    13    6    7 ar  
    14    8    9 1   
    15    8   13 1   
    16    9   10 1   
    17    9   35 1   
    18    9   36 1   
    19   10   11 1   
    20   10   37 1   
    21   10   38 1   
    22   11   12 1   
    23   11   14 1   
    24   11   39 1   
    25   12   13 1   
    26   12   40 1   
    27   12   41 1   
    28   13   42 1   
    29   13   43 1   
    30   14   15 1   
    31   14   44 1   
    32   14   45 1   
    33   15   16 1   
    34   15   46 1   
    35   15   47 1   
    36   16   17 1   
    37   16   48 1   
    38   16   49 1   
    39   17   18 1   
    40   17   50 1   
    41   17   51 1   
    42   18   19 1   
    43   19   20 ar  
    44   19   24 ar  
    45   20   21 ar  
    46   20   52 1   
    47   21   22 ar  
    48   21   53 1   
    49   22   23 ar  
    50   22   25 1   
    51   23   24 ar  
    52   23   54 1   
    53   24   55 1   
    54   25   26 2   
    55   25   27 1   
    56   27   28 1   
    57   28   29 1   
    58   28   56 1   
    59   28   57 1   
    60   29   58 1   
    61   29   59 1   
    62   29   60 1   
@<TRIPOS>SUBSTRUCTURE
     1 J80         1 TEMP              0 ****  ****    0 ROOT
