@<TRIPOS>MOLECULE
J80
   60    58     1     0     0
SMALL
bcc


@<TRIPOS>ATOM
      1 C1         -5.7890   -4.6840    0.6180 c3        1 J80     -0.163000
      2 C2         -4.2370   -4.6850    0.6000 c2        1 J80     -0.108000
      3 C3         -3.5410   -5.6120    1.3400 c2        1 J80     -0.123000
      4 C4         -2.1790   -5.6350    1.2960 c1        1 J80     -0.153000
      5 C5         -1.5060   -4.7340    0.5150 c1        1 J80      0.013000
      6 N4         -2.1910   -3.8250   -0.2110 n1        1 J80     -0.081000
      7 N3         -3.5740   -3.8020   -0.1660 n1        1 J80     -0.029000
      8 N6         -0.0780   -4.7310    0.5010 n3        1 J80     -0.200000
      9 C7          0.4020   -4.9120   -0.8790 c3        1 J80     -0.058500
     10 C8          0.1480   -3.6990   -1.7430 c3        1 J80     -0.185000
     11 C9          0.6500   -2.4580   -1.1280 c3        1 J80     -0.101000
     12 C10         0.1620   -2.2840    0.2660 c3        1 J80     -0.185000
     13 C11         0.4140   -3.5020    1.1200 c3        1 J80     -0.058500
     14 C12         2.2380   -2.4940   -1.1180 c3        1 J80     -0.156000
     15 C13         2.7850   -1.1200   -1.5560 c3        1 J80     -0.154000
     16 C14         3.5920   -0.5350   -0.4580 c3        1 J80     -0.196000
     17 C15         3.3600    1.0310   -0.4130 c3        1 J80     -0.024000
     18 O16         2.6590    1.3790    0.7980 os        1 J80     -0.208000
     19 C17         2.0010    2.6360    0.7410 c2        1 J80      0.117000
     20 C18         0.9690    2.8280   -0.1570 c2        1 J80     -0.226000
     21 C19         0.1980    3.9820   -0.0960 c1        1 J80     -0.034000
     22 C20         0.4620    4.9400    0.8620 c1        1 J80     -0.155000
     23 C21         1.4950    4.7510    1.7640 c1        1 J80     -0.039000
     24 C22         2.2660    3.5980    1.7050 c1        1 J80     -0.180000
     25 C23        -0.3630    6.2410    0.8990 c2        1 J80      0.353000
     26 O24        -1.4430    6.2740    1.5130 o         1 J80     -0.362000
     27 O25         0.0580    7.3700    0.1380 os        1 J80     -0.281000
     28 C26        -0.7890    8.4930    0.2670 c3        1 J80     -0.009000
     29 C27        -1.2250    8.9610   -1.1110 c3        1 J80     -0.244000
     30 H11        -6.1080   -4.4870    1.5320 hc        1 J80      0.093000
     31 H12        -6.1210   -4.0060    0.0060 hc        1 J80      0.093000
     32 H13        -6.1160   -5.5530    0.3440 hc        1 J80      0.093000
     33 H3         -4.0160   -6.2460    1.8900 ha        1 J80      0.147000
     34 H4         -1.6780   -6.3010    1.8270 ha        1 J80      0.153000
     35 H71        -0.0540   -5.6880   -1.2750 h1        1 J80      0.098000
     36 H72         1.3850   -5.0910   -0.8570 h1        1 J80      0.098000
     37 H81        -0.8210   -3.6110   -1.8890 hc        1 J80      0.093000
     38 H82         0.5970   -3.8280   -2.6220 hc        1 J80      0.093000
     39 H9          0.3510   -1.6930   -1.6680 hc        1 J80      0.088000
     40 H101       -0.8340   -2.0990    0.2430 hc        1 J80      0.093000
     41 H102        0.6160   -1.5210    0.6640 hc        1 J80      0.093000
     42 H111       -0.0340   -3.3820    1.9800 h1        1 J80      0.098000
     43 H112        1.3690   -3.5870    1.2740 h1        1 J80      0.098000
     44 H121        2.5550   -3.1850   -1.7400 hc        1 J80      0.083000
     45 H122        2.5650   -2.7050   -0.1850 hc        1 J80      0.083000
     46 H131        2.0550   -0.5370   -1.7590 hc        1 J80      0.081500
     47 H132        3.3490   -1.2300   -2.3560 hc        1 J80      0.081500
     48 H141        3.3140   -0.9390    0.4130 hc        1 J80      0.096500
     49 H142        4.5360   -0.7190   -0.6160 hc        1 J80      0.096500
     50 H151        2.8090    1.3160   -1.2160 h1        1 J80      0.099000
     51 H152        4.2330    1.4930   -0.4320 h1        1 J80      0.099000
     52 H18         0.7860    2.1680   -0.8190 ha        1 J80      0.145000
     53 H19        -0.5320    4.1160   -0.7340 ha        1 J80      0.159000
     54 H21         1.6810    5.4320    2.4460 ha        1 J80      0.157000
     55 H22         3.0040    3.4630    2.3490 ha        1 J80      0.155000
     56 H261       -1.5870    8.2440    0.7990 h1        1 J80      0.101000
     57 H262       -0.3020    9.2240    0.7240 h1        1 J80      0.101000
     58 H271       -0.4330    9.2480   -1.6270 hc        1 J80      0.088333
     59 H272       -1.6730    8.2220   -1.5820 hc        1 J80      0.088333
     60 H273       -1.8410    9.7080   -1.0190 hc        1 J80      0.088333
@<TRIPOS>BOND
     1    1    2 1   
     2    1   30 1   
     3    1   31 1   
     4    1   32 1   
     5    2    3 1   
     6    2    7 1   
     7    3    4 1   
     8    3   33 1   
     9    4   34 1   
    10    5    6 1   
    11    5    8 1   
    12    8    9 1   
    13    8   13 1   
    14    9   10 1   
    15    9   35 1   
    16    9   36 1   
    17   10   11 1   
    18   10   37 1   
    19   10   38 1   
    20   11   12 1   
    21   11   14 1   
    22   11   39 1   
    23   12   13 1   
    24   12   40 1   
    25   12   41 1   
    26   13   42 1   
    27   13   43 1   
    28   14   15 1   
    29   14   44 1   
    30   14   45 1   
    31   15   16 1   
    32   15   46 1   
    33   15   47 1   
    34   16   17 1   
    35   16   48 1   
    36   16   49 1   
    37   17   18 1   
    38   17   50 1   
    39   17   51 1   
    40   18   19 1   
    41   19   20 1   
    42   19   24 1   
    43   20   21 1   
    44   20   52 1   
    45   21   53 1   
    46   22   23 1   
    47   22   25 1   
    48   23   54 1   
    49   24   55 1   
    50   25   26 1   
    51   25   27 1   
    52   27   28 1   
    53   28   29 1   
    54   28   56 1   
    55   28   57 1   
    56   29   58 1   
    57   29   59 1   
    58   29   60 1   
@<TRIPOS>SUBSTRUCTURE
     1 J80         1 TEMP              0 ****  ****    0 ROOT
