@<TRIPOS>MOLECULE
J80
   60    62     1     0     0
SMALL
bcc


@<TRIPOS>ATOM
      1 C1          1.7780   -0.1380  -10.9420 c3        1 J80     -0.138400
      2 C2          1.2600   -0.0230   -9.5520 ca        1 J80      0.309600
      3 C3          1.4660    1.1550   -8.8060 ca        1 J80     -0.184300
      4 C4          0.9650    1.2180   -7.5090 ca        1 J80     -0.226300
      5 C5          0.2660    0.0810   -7.0060 ca        1 J80      0.547200
      6 N4          0.1130   -1.0420   -7.8240 nb        1 J80     -0.346000
      7 N3          0.5700   -1.0790   -8.9980 nb        1 J80     -0.289000
      8 N6         -0.3340    0.1410   -5.7210 nh        1 J80     -0.724300
      9 C7         -1.2750   -0.9230   -5.3920 c3        1 J80      0.185800
     10 C8         -2.0150   -0.6630   -4.0800 c3        1 J80     -0.078900
     11 C9         -1.0440   -0.4090   -2.9380 c3        1 J80     -0.066700
     12 C10        -0.1130    0.7310   -3.3170 c3        1 J80     -0.078900
     13 C11         0.5970    0.4440   -4.6390 c3        1 J80      0.185800
     14 C12        -1.8070   -0.1060   -1.6580 c3        1 J80     -0.075400
     15 C13        -0.9330   -0.2250   -0.4280 c3        1 J80     -0.078400
     16 C14        -1.7300    0.0560    0.8280 c3        1 J80     -0.086400
     17 C15        -0.8410   -0.0740    2.0520 c3        1 J80      0.127400
     18 O16        -1.6830    0.2240    3.1750 os        1 J80     -0.325900
     19 C17        -1.0860    0.1680    4.4140 ca        1 J80      0.163100
     20 C18        -1.9430    0.4670    5.4930 ca        1 J80     -0.203000
     21 C19        -1.4420    0.4400    6.7860 ca        1 J80     -0.036500
     22 C20        -0.0940    0.1170    7.0170 ca        1 J80     -0.174600
     23 C21         0.7480   -0.1790    5.9410 ca        1 J80     -0.036500
     24 C22         0.2600   -0.1550    4.6370 ca        1 J80     -0.203000
     25 C23         0.3930    0.1000    8.4010 c         1 J80      0.652700
     26 O24        -0.2440    0.3410    9.4320 o         1 J80     -0.551000
     27 O25         1.7180   -0.2260    8.5300 os        1 J80     -0.444900
     28 C26         2.2370   -0.2560    9.8710 c3        1 J80      0.140400
     29 C27         3.6930   -0.6350    9.7520 c3        1 J80     -0.101100
     30 H11         2.3260    0.7920  -11.2280 hc        1 J80      0.053367
     31 H12         2.4760   -1.0070  -11.0320 hc        1 J80      0.053367
     32 H13         0.9350   -0.2920  -11.6620 hc        1 J80      0.053367
     33 H3          2.0070    2.0070   -9.2420 ha        1 J80      0.147000
     34 H4          1.0920    2.1240   -6.9020 ha        1 J80      0.152000
     35 H71        -0.7540   -1.9220   -5.3180 h1        1 J80      0.045950
     36 H72        -2.0330   -0.9870   -6.2230 h1        1 J80      0.045950
     37 H81        -2.6460   -1.5620   -3.8560 hc        1 J80      0.051200
     38 H82        -2.7000    0.2170   -4.1930 hc        1 J80      0.051200
     39 H9         -0.4270   -1.3390   -2.7800 hc        1 J80      0.050700
     40 H101       -0.6960    1.6850   -3.3950 hc        1 J80      0.051200
     41 H102        0.6700    0.8700   -2.5270 hc        1 J80      0.051200
     42 H111        1.3170   -0.4120   -4.4810 h1        1 J80      0.045950
     43 H112        1.1980    1.3510   -4.9270 h1        1 J80      0.045950
     44 H121       -2.6680   -0.8210   -1.5670 hc        1 J80      0.046200
     45 H122       -2.2410    0.9280   -1.7140 hc        1 J80      0.046200
     46 H131       -0.0760    0.4950   -0.4990 hc        1 J80      0.041700
     47 H132       -0.4960   -1.2580   -0.3740 hc        1 J80      0.041700
     48 H141       -2.5880   -0.6610    0.9130 hc        1 J80      0.059700
     49 H142       -2.1630    1.0890    0.7900 hc        1 J80      0.059700
     50 H151        0.0070    0.6590    2.0170 h1        1 J80      0.042200
     51 H152       -0.4390   -1.1160    2.1530 h1        1 J80      0.042200
     52 H18        -2.9950    0.7180    5.2940 ha        1 J80      0.149500
     53 H19        -2.0950    0.6710    7.6440 ha        1 J80      0.157500
     54 H21         1.8050   -0.4320    6.1290 ha        1 J80      0.157500
     55 H22         0.9340   -0.3900    3.8020 ha        1 J80      0.149500
     56 H261        1.6540   -1.0060   10.4660 h1        1 J80      0.052700
     57 H262        2.1030    0.7590   10.3310 h1        1 J80      0.052700
     58 H271        4.1430   -0.6720   10.7720 hc        1 J80      0.047033
     59 H272        3.7990   -1.6360    9.2690 hc        1 J80      0.047033
     60 H273        4.2450    0.1130    9.1340 hc        1 J80      0.047033
@<TRIPOS>BOND
     1    1    2 1   
     2    1   30 1   
     3    1   31 1   
     4    1   32 1   
     5    2    3 ar  
     6    2    7 ar  
     7    3    4 ar  
     8    3   33 1   
     9    4    5 ar  
    10    4   34 1   
    11    5    6 ar  
    12    5    8 1   
    13    6    7 ar  
    14    8    9 1   
    15    8   13 1   
    16    9   10 1   
    17    9   35 1   
    18    9   36 1   
    19   10   11 1   
    20   10   37 1   
    21   10   38 1   
    22   11   12 1   
    23   11   14 1   
    24   11   39 1   
    25   12   13 1   
    26   12   40 1   
    27   12   41 1   
    28   13   42 1   
    29   13   43 1   
    30   14   15 1   
    31   14   44 1   
    32   14   45 1   
    33   15   16 1   
    34   15   46 1   
    35   15   47 1   
    36   16   17 1   
    37   16   48 1   
    38   16   49 1   
    39   17   18 1   
    40   17   50 1   
    41   17   51 1   
    42   18   19 1   
    43   19   20 ar  
    44   19   24 ar  
    45   20   21 ar  
    46   20   52 1   
    47   21   22 ar  
    48   21   53 1   
    49   22   23 ar  
    50   22   25 1   
    51   23   24 ar  
    52   23   54 1   
    53   24   55 1   
    54   25   26 2   
    55   25   27 1   
    56   27   28 1   
    57   28   29 1   
    58   28   56 1   
    59   28   57 1   
    60   29   58 1   
    61   29   59 1   
    62   29   60 1   
@<TRIPOS>SUBSTRUCTURE
     1 J80         1 TEMP              0 ****  ****    0 ROOT
