@<TRIPOS>MOLECULE
J80
   60    62     1     0     0
SMALL
bcc


@<TRIPOS>ATOM
      1 C1         -0.2710   -1.3380   -0.4620 c3        1 J80     -0.138400
      2 C2          1.1650   -0.9530   -0.4210 ca        1 J80      0.309600
      3 C3          1.8860   -1.0020    0.7900 ca        1 J80     -0.184300
      4 C4          3.2280   -0.6320    0.7810 ca        1 J80     -0.226300
      5 C5          3.8010   -0.2230   -0.4590 ca        1 J80      0.547200
      6 N4          3.0040   -0.2070   -1.6070 nb        1 J80     -0.346000
      7 N3          1.7910   -0.5500   -1.5810 nb        1 J80     -0.289000
      8 N6          5.1860    0.0780   -0.5240 nh        1 J80     -0.724300
      9 C7          5.7660    0.1950   -1.8570 c3        1 J80      0.185800
     10 C8          7.2890    0.3170   -1.8230 c3        1 J80     -0.078900
     11 C9          7.7330    1.4600   -0.9230 c3        1 J80     -0.066700
     12 C10         7.1330    1.2700    0.4610 c3        1 J80     -0.078900
     13 C11         5.6130    1.1350    0.3870 c3        1 J80      0.185800
     14 C12         9.2510    1.5270   -0.8700 c3        1 J80     -0.075400
     15 C13         9.7470    2.8480   -0.3200 c3        1 J80     -0.078400
     16 C14        11.2600    2.8910   -0.3080 c3        1 J80     -0.086400
     17 C15        11.7410    4.2230    0.2410 c3        1 J80      0.127400
     18 O16        13.1740    4.1540    0.2220 os        1 J80     -0.325900
     19 C17        13.8410    5.2670    0.6810 ca        1 J80      0.163100
     20 C18        15.2480    5.1630    0.6490 ca        1 J80     -0.203000
     21 C19        16.0170    6.2290    1.0900 ca        1 J80     -0.036500
     22 C20        15.4020    7.3990    1.5650 ca        1 J80     -0.174600
     23 C21        14.0070    7.4930    1.5940 ca        1 J80     -0.036500
     24 C22        13.2200    6.4310    1.1530 ca        1 J80     -0.203000
     25 C23        16.2560    8.5010    2.0220 c         1 J80      0.652700
     26 O24        17.4900    8.5440    2.0500 o         1 J80     -0.551000
     27 O25        15.5690    9.6010    2.4660 os        1 J80     -0.444900
     28 C26        16.3680   10.7070    2.9240 c3        1 J80      0.140400
     29 C27        15.3970   11.7790    3.3540 c3        1 J80     -0.101100
     30 H11        -0.8950   -0.4890   -0.8380 hc        1 J80      0.053367
     31 H12        -0.4220   -2.2110   -1.1450 hc        1 J80      0.053367
     32 H13        -0.6250   -1.6170    0.5600 hc        1 J80      0.053367
     33 H3          1.3990   -1.3310    1.7180 ha        1 J80      0.147000
     34 H4          3.8260   -0.6720    1.7010 ha        1 J80      0.152000
     35 H71         5.4950   -0.7320   -2.4360 h1        1 J80      0.045950
     36 H72         5.3470    1.0860   -2.4080 h1        1 J80      0.045950
     37 H81         7.7440   -0.6420   -1.4620 hc        1 J80      0.051200
     38 H82         7.6440    0.4930   -2.8710 hc        1 J80      0.051200
     39 H9          7.3430    2.4250   -1.3530 hc        1 J80      0.050700
     40 H101        7.3710    2.1510    1.1110 hc        1 J80      0.051200
     41 H102        7.5740    0.3580    0.9420 hc        1 J80      0.051200
     42 H111        5.2230    0.9010    1.4160 h1        1 J80      0.045950
     43 H112        5.1800    2.1310    0.0730 h1        1 J80      0.045950
     44 H121        9.6590    1.3850   -1.9060 hc        1 J80      0.046200
     45 H122        9.6430    0.6850   -0.2410 hc        1 J80      0.046200
     46 H131        9.3580    2.9950    0.7220 hc        1 J80      0.041700
     47 H132        9.3500    3.6900   -0.9460 hc        1 J80      0.041700
     48 H141       11.6680    2.0590    0.3230 hc        1 J80      0.059700
     49 H142       11.6620    2.7490   -1.3450 hc        1 J80      0.059700
     50 H151       11.3890    4.3790    1.2940 h1        1 J80      0.042200
     51 H152       11.3990    5.0750   -0.4030 h1        1 J80      0.042200
     52 H18        15.7130    4.2400    0.2740 ha        1 J80      0.149500
     53 H19        17.1190    6.1690    1.0730 ha        1 J80      0.157500
     54 H21        13.5310    8.4140    1.9670 ha        1 J80      0.157500
     55 H22        12.1260    6.5210    1.1820 ha        1 J80      0.149500
     56 H261       17.0260   11.0470    2.0830 h1        1 J80      0.052700
     57 H262       17.0120   10.3580    3.7740 h1        1 J80      0.052700
     58 H271       14.7380   11.4070    4.1740 hc        1 J80      0.047033
     59 H272       14.7520   12.0900    2.4980 hc        1 J80      0.047033
     60 H273       15.9720   12.6640    3.7190 hc        1 J80      0.047033
@<TRIPOS>BOND
     1    1    2 1   
     2    1   30 1   
     3    1   31 1   
     4    1   32 1   
     5    2    3 ar  
     6    2    7 ar  
     7    3    4 ar  
     8    3   33 1   
     9    4    5 ar  
    10    4   34 1   
    11    5    6 ar  
    12    5    8 1   
    13    6    7 ar  
    14    8    9 1   
    15    8   13 1   
    16    9   10 1   
    17    9   35 1   
    18    9   36 1   
    19   10   11 1   
    20   10   37 1   
    21   10   38 1   
    22   11   12 1   
    23   11   14 1   
    24   11   39 1   
    25   12   13 1   
    26   12   40 1   
    27   12   41 1   
    28   13   42 1   
    29   13   43 1   
    30   14   15 1   
    31   14   44 1   
    32   14   45 1   
    33   15   16 1   
    34   15   46 1   
    35   15   47 1   
    36   16   17 1   
    37   16   48 1   
    38   16   49 1   
    39   17   18 1   
    40   17   50 1   
    41   17   51 1   
    42   18   19 1   
    43   19   20 ar  
    44   19   24 ar  
    45   20   21 ar  
    46   20   52 1   
    47   21   22 ar  
    48   21   53 1   
    49   22   23 ar  
    50   22   25 1   
    51   23   24 ar  
    52   23   54 1   
    53   24   55 1   
    54   25   26 2   
    55   25   27 1   
    56   27   28 1   
    57   28   29 1   
    58   28   56 1   
    59   28   57 1   
    60   29   58 1   
    61   29   59 1   
    62   29   60 1   
@<TRIPOS>SUBSTRUCTURE
     1 J80         1 TEMP              0 ****  ****    0 ROOT
