@<TRIPOS>MOLECULE
J82
   48    51     1     0     0
SMALL
bcc


@<TRIPOS>ATOM
      1 C1         -3.2560    0.1290    0.1360 cc        1 J82      0.366600
      2 N2         -4.3200   -0.5450   -0.5340 nh        1 J82     -0.602400
      3 C3         -5.2470    0.3310   -1.2440 c3        1 J82      0.144800
      4 C4         -4.8720    0.5890   -2.7100 c3        1 J82      0.095400
      5 O5         -4.6250   -0.6220   -3.4150 os        1 J82     -0.414600
      6 C6         -3.6370   -1.4340   -2.7840 c3        1 J82      0.095400
      7 C7         -4.0050   -1.7260   -1.3250 c3        1 J82      0.144800
      8 N8         -1.9220   -0.2260   -0.1430 nc        1 J82     -0.683300
      9 C9         -0.9580    0.3490    0.5700 cd        1 J82      0.522900
     10 N10        -1.1710    1.3060    1.5480 n         1 J82     -0.466400
     11 C11        -2.4920    1.7010    1.8760 c         1 J82      0.699700
     12 C12        -3.5540    1.0760    1.1050 cd        1 J82     -0.333200
     13 O13        -2.6490    2.5470    2.7750 o         1 J82     -0.627500
     14 C14         0.4760    0.0000    0.1990 c3        1 J82     -0.197700
     15 C15         1.3860   -0.2440    1.3830 c         1 J82      0.667100
     16 O16         0.9760   -0.1810    2.5590 o         1 J82     -0.598100
     17 N17         2.7130   -0.5900    1.1620 n         1 J82     -0.367000
     18 C18         5.0690   -0.6310    1.7760 c3        1 J82     -0.046100
     19 C19         3.6190   -0.7370    2.3300 c3        1 J82      0.102700
     20 C20         4.8820   -0.4900    0.3030 ca        1 J82     -0.120300
     21 C21         3.4840   -0.4780   -0.0170 ca        1 J82      0.055600
     22 C22         3.0900   -0.4060   -1.3530 ca        1 J82     -0.167000
     23 C23         4.0780   -0.3150   -2.3430 ca        1 J82     -0.103000
     24 C24         5.4300   -0.3060   -2.0230 ca        1 J82     -0.148000
     25 C25         5.8400   -0.4020   -0.6860 ca        1 J82     -0.088000
     26 C26         3.4160   -2.0420    3.0850 c3        1 J82     -0.105100
     27 H12        -4.5780    1.3720    1.3680 ha        1 J82      0.173000
     28 H31C       -6.2480   -0.1860   -1.2110 h1        1 J82      0.072200
     29 H32C       -5.3370    1.3170   -0.7130 h1        1 J82      0.072200
     30 H71C       -3.1830   -2.3200   -0.8450 h1        1 J82      0.072200
     31 H72C       -4.9430   -2.3530   -1.3110 h1        1 J82      0.072200
     32 H41C       -5.7340    1.0560   -3.2540 h1        1 J82      0.057200
     33 H42C       -3.9690    1.2530   -2.7790 h1        1 J82      0.057200
     34 H61C       -3.6370   -2.3810   -3.3840 h1        1 J82      0.057200
     35 H62C       -2.6380   -0.9310   -2.8560 h1        1 J82      0.057200
     36 H10        -0.4180    1.5850    2.1430 hn        1 J82      0.352500
     37 H141        0.4720   -0.9280   -0.4410 hc        1 J82      0.106700
     38 H142        0.8810    0.8550   -0.4120 hc        1 J82      0.106700
     39 H19         3.4110    0.1200    3.0360 h1        1 J82      0.072700
     40 H181        5.5920    0.2550    2.2110 hc        1 J82      0.067700
     41 H182        5.6580   -1.5480    2.0260 hc        1 J82      0.067700
     42 H261        3.6040   -2.9260    2.4300 hc        1 J82      0.052367
     43 H262        4.1300   -2.0710    3.9430 hc        1 J82      0.052367
     44 H263        2.3730   -2.1010    3.4820 hc        1 J82      0.052367
     45 H25         6.9090   -0.4080   -0.4310 ha        1 J82      0.140000
     46 H22         2.0390   -0.4340   -1.6650 ha        1 J82      0.137000
     47 H23         3.7650   -0.2520   -3.3970 ha        1 J82      0.137000
     48 H24         6.1860   -0.2310   -2.8190 ha        1 J82      0.138000
@<TRIPOS>BOND
     1    1    2 1   
     2    1    8 1   
     3    1   12 2   
     4    2    3 1   
     5    2    7 1   
     6    3    4 1   
     7    3   28 1   
     8    3   29 1   
     9    4    5 1   
    10    4   32 1   
    11    4   33 1   
    12    5    6 1   
    13    6    7 1   
    14    6   34 1   
    15    6   35 1   
    16    7   30 1   
    17    7   31 1   
    18    8    9 2   
    19    9   10 1   
    20    9   14 1   
    21   10   11 1   
    22   10   36 1   
    23   11   12 1   
    24   11   13 2   
    25   12   27 1   
    26   14   15 1   
    27   14   37 1   
    28   14   38 1   
    29   15   16 2   
    30   15   17 1   
    31   17   19 1   
    32   17   21 1   
    33   18   19 1   
    34   18   20 1   
    35   18   40 1   
    36   18   41 1   
    37   19   26 1   
    38   19   39 1   
    39   20   21 ar  
    40   20   25 ar  
    41   21   22 ar  
    42   22   23 ar  
    43   22   46 1   
    44   23   24 ar  
    45   23   47 1   
    46   24   25 ar  
    47   24   48 1   
    48   25   45 1   
    49   26   42 1   
    50   26   43 1   
    51   26   44 1   
@<TRIPOS>SUBSTRUCTURE
     1 J82         1 TEMP              0 ****  ****    0 ROOT
