@<TRIPOS>MOLECULE
J82
   48    51     1     0     0
SMALL
bcc


@<TRIPOS>ATOM
      1 C1         -0.3920    0.1850   -0.7050 cc        1 J82      0.366600
      2 N2         -1.3020    0.9750   -1.4670 nh        1 J82     -0.602400
      3 C3         -2.3430    1.6350   -0.6840 c3        1 J82      0.144800
      4 C4         -1.9720    3.0440   -0.2030 c3        1 J82      0.095400
      5 O5         -1.4980    3.8600   -1.2690 os        1 J82     -0.414600
      6 C6         -0.4060    3.2700   -1.9700 c3        1 J82      0.095400
      7 C7         -0.7640    1.8700   -2.4810 c3        1 J82      0.144800
      8 N8          0.9910    0.4330   -0.7970 nc        1 J82     -0.683300
      9 C9          1.8190   -0.3850   -0.1530 cd        1 J82      0.522900
     10 N10         1.4130   -1.4470    0.6380 n         1 J82     -0.466400
     11 C11         0.0350   -1.7480    0.7670 c         1 J82      0.699700
     12 C12        -0.8790   -0.8620    0.0640 cd        1 J82     -0.333200
     13 O13        -0.2930   -2.7220    1.4680 o         1 J82     -0.627500
     14 C14         3.3030   -0.0520   -0.2130 c3        1 J82     -0.197700
     15 C15         4.2030   -1.2470   -0.4340 c         1 J82      0.667100
     16 O16         3.7510   -2.4020   -0.5730 o         1 J82     -0.598100
     17 N17         5.5760   -1.0590   -0.5260 n         1 J82     -0.367000
     18 C18         7.8830   -1.7830   -0.2430 c3        1 J82     -0.046100
     19 C19         6.4570   -2.2490   -0.6510 c3        1 J82      0.102700
     20 C20         7.7220   -0.3260    0.0300 ca        1 J82     -0.120300
     21 C21         6.3540    0.0610   -0.1550 ca        1 J82      0.055600
     22 C22         5.9960    1.4000    0.0020 ca        1 J82     -0.168000
     23 C23         6.9850    2.3240    0.3680 ca        1 J82     -0.103000
     24 C24         8.3040    1.9370    0.5650 ca        1 J82     -0.148000
     25 C25         8.6810    0.5990    0.3890 ca        1 J82     -0.088000
     26 C26         6.4560   -2.8500   -2.0480 c3        1 J82     -0.105100
     27 H12        -1.9460   -1.1030    0.1530 ha        1 J82      0.173000
     28 H31C       -2.6190    1.0070    0.2060 h1        1 J82      0.072200
     29 H32C       -3.2410    1.7070   -1.3620 h1        1 J82      0.072200
     30 H71C        0.1330    1.4140   -2.9800 h1        1 J82      0.072200
     31 H72C       -1.5800    1.9690   -3.2550 h1        1 J82      0.072200
     32 H41C       -1.1960    2.9970    0.6050 h1        1 J82      0.057200
     33 H42C       -2.8840    3.5780    0.1710 h1        1 J82      0.057200
     34 H61C        0.4940    3.2380   -1.3020 h1        1 J82      0.057200
     35 H62C       -0.2240    3.9660   -2.8300 h1        1 J82      0.057200
     36 H10         2.0880   -2.1050    0.9710 hn        1 J82      0.352500
     37 H141        3.4780    0.6820   -1.0500 hc        1 J82      0.106700
     38 H142        3.5740    0.4440    0.7610 hc        1 J82      0.106700
     39 H19         6.0820   -3.0300    0.0740 h1        1 J82      0.072700
     40 H181        8.6130   -1.9640   -1.0710 hc        1 J82      0.067700
     41 H182        8.2330   -2.3350    0.6630 hc        1 J82      0.067700
     42 H261        5.4260   -3.1850   -2.3250 hc        1 J82      0.052367
     43 H262        7.1370   -3.7360   -2.0550 hc        1 J82      0.052367
     44 H263        6.8140   -2.1160   -2.8090 hc        1 J82      0.052367
     45 H25         9.7280    0.2920    0.5310 ha        1 J82      0.140000
     46 H22         4.9750    1.7660   -0.1660 ha        1 J82      0.137000
     47 H23         6.6990    3.3790    0.4950 ha        1 J82      0.137000
     48 H24         9.0600    2.6810    0.8550 ha        1 J82      0.138000
@<TRIPOS>BOND
     1    1    2 1   
     2    1    8 1   
     3    1   12 2   
     4    2    3 1   
     5    2    7 1   
     6    3    4 1   
     7    3   28 1   
     8    3   29 1   
     9    4    5 1   
    10    4   32 1   
    11    4   33 1   
    12    5    6 1   
    13    6    7 1   
    14    6   34 1   
    15    6   35 1   
    16    7   30 1   
    17    7   31 1   
    18    8    9 2   
    19    9   10 1   
    20    9   14 1   
    21   10   11 1   
    22   10   36 1   
    23   11   12 1   
    24   11   13 2   
    25   12   27 1   
    26   14   15 1   
    27   14   37 1   
    28   14   38 1   
    29   15   16 2   
    30   15   17 1   
    31   17   19 1   
    32   17   21 1   
    33   18   19 1   
    34   18   20 1   
    35   18   40 1   
    36   18   41 1   
    37   19   26 1   
    38   19   39 1   
    39   20   21 ar  
    40   20   25 ar  
    41   21   22 ar  
    42   22   23 ar  
    43   22   46 1   
    44   23   24 ar  
    45   23   47 1   
    46   24   25 ar  
    47   24   48 1   
    48   25   45 1   
    49   26   42 1   
    50   26   43 1   
    51   26   44 1   
@<TRIPOS>SUBSTRUCTURE
     1 J82         1 TEMP              0 ****  ****    0 ROOT
