@<TRIPOS>MOLECULE
J82
   48    51     1     0     0
SMALL
bcc


@<TRIPOS>ATOM
      1 C1         -0.3920    0.1600   -0.6930 cc        1 J82      0.366600
      2 N2         -1.3100    0.9330   -1.4640 nh        1 J82     -0.602400
      3 C3         -2.3520    1.5980   -0.6870 c3        1 J82      0.144800
      4 C4         -1.9880    3.0160   -0.2280 c3        1 J82      0.095400
      5 O5         -1.5230    3.8190   -1.3080 os        1 J82     -0.414600
      6 C6         -0.4300    3.2250   -2.0040 c3        1 J82      0.095400
      7 C7         -0.7810    1.8160   -2.4930 c3        1 J82      0.144800
      8 N8          0.9890    0.4150   -0.7930 nc        1 J82     -0.683300
      9 C9          1.8240   -0.3870   -0.1400 cd        1 J82      0.522900
     10 N10         1.4280   -1.4400    0.6690 n         1 J82     -0.466400
     11 C11         0.0520   -1.7480    0.8060 c         1 J82      0.699700
     12 C12        -0.8710   -0.8790    0.0930 cd        1 J82     -0.333200
     13 O13        -0.2680   -2.7140    1.5220 o         1 J82     -0.627500
     14 C14         3.3060   -0.0450   -0.2080 c3        1 J82     -0.197700
     15 C15         4.2130   -1.2380   -0.4150 c         1 J82      0.667100
     16 O16         3.7680   -2.3980   -0.5340 o         1 J82     -0.598100
     17 N17         5.5840   -1.0420   -0.5140 n         1 J82     -0.368000
     18 C18         7.8980   -1.7460   -0.2300 c3        1 J82     -0.046100
     19 C19         6.4730   -2.2280   -0.6250 c3        1 J82      0.102700
     20 C20         7.7270   -0.2860    0.0230 ca        1 J82     -0.120300
     21 C21         6.3560    0.0880   -0.1630 ca        1 J82      0.055600
     22 C22         5.9890    1.4270   -0.0240 ca        1 J82     -0.168000
     23 C23         6.9730    2.3630    0.3250 ca        1 J82     -0.103000
     24 C24         8.2960    1.9890    0.5230 ca        1 J82     -0.148000
     25 C25         8.6810    0.6500    0.3640 ca        1 J82     -0.088000
     26 C26         6.4710   -2.8500   -2.0130 c3        1 J82     -0.105100
     27 H12        -1.9350   -1.1250    0.1880 ha        1 J82      0.173000
     28 H31C       -2.6210    0.9820    0.2140 h1        1 J82      0.071950
     29 H32C       -3.2530    1.6550   -1.3620 h1        1 J82      0.071950
     30 H71C       -1.6000    1.8980   -3.2650 h1        1 J82      0.071950
     31 H72C        0.1170    1.3580   -2.9880 h1        1 J82      0.071950
     32 H41C       -1.2080    2.9870    0.5780 h1        1 J82      0.057200
     33 H42C       -2.9010    3.5510    0.1410 h1        1 J82      0.057200
     34 H61C       -0.2550    3.9090   -2.8750 h1        1 J82      0.057200
     35 H62C        0.4730    3.2080   -1.3390 h1        1 J82      0.057200
     36 H10         2.1080   -2.0890    1.0080 hn        1 J82      0.352500
     37 H141        3.4740    0.6770   -1.0570 hc        1 J82      0.106700
     38 H142        3.5760    0.4660    0.7580 hc        1 J82      0.106700
     39 H19         6.1060   -3.0000    0.1130 h1        1 J82      0.072700
     40 H181        8.2540   -2.2820    0.6840 hc        1 J82      0.067700
     41 H182        8.6250   -1.9340   -1.0580 hc        1 J82      0.067700
     42 H261        7.1580   -3.7300   -2.0090 hc        1 J82      0.052367
     43 H262        6.8210   -2.1240   -2.7860 hc        1 J82      0.052367
     44 H263        5.4430   -3.1960   -2.2800 hc        1 J82      0.052367
     45 H25         9.7310    0.3530    0.5080 ha        1 J82      0.140000
     46 H22         4.9650    1.7840   -0.1930 ha        1 J82      0.137000
     47 H23         6.6800    3.4180    0.4380 ha        1 J82      0.137000
     48 H24         9.0480    2.7420    0.7990 ha        1 J82      0.138000
@<TRIPOS>BOND
     1    1    2 1   
     2    1    8 1   
     3    1   12 2   
     4    2    3 1   
     5    2    7 1   
     6    3    4 1   
     7    3   28 1   
     8    3   29 1   
     9    4    5 1   
    10    4   32 1   
    11    4   33 1   
    12    5    6 1   
    13    6    7 1   
    14    6   34 1   
    15    6   35 1   
    16    7   30 1   
    17    7   31 1   
    18    8    9 2   
    19    9   10 1   
    20    9   14 1   
    21   10   11 1   
    22   10   36 1   
    23   11   12 1   
    24   11   13 2   
    25   12   27 1   
    26   14   15 1   
    27   14   37 1   
    28   14   38 1   
    29   15   16 2   
    30   15   17 1   
    31   17   19 1   
    32   17   21 1   
    33   18   19 1   
    34   18   20 1   
    35   18   40 1   
    36   18   41 1   
    37   19   26 1   
    38   19   39 1   
    39   20   21 ar  
    40   20   25 ar  
    41   21   22 ar  
    42   22   23 ar  
    43   22   46 1   
    44   23   24 ar  
    45   23   47 1   
    46   24   25 ar  
    47   24   48 1   
    48   25   45 1   
    49   26   42 1   
    50   26   43 1   
    51   26   44 1   
@<TRIPOS>SUBSTRUCTURE
     1 J82         1 TEMP              0 ****  ****    0 ROOT
