@<TRIPOS>MOLECULE
J88
   47    51     1     0     0
SMALL
bcc


@<TRIPOS>ATOM
      1 O1          2.5230    3.5140    0.5710 oh        1 J88     -0.317500
      2 N2          2.7280    2.2400    0.3760 n2        1 J88     -0.364200
      3 C3          1.7440    1.4250    0.6290 cc        1 J88      0.366900
      4 C4          0.3380    1.7330    1.1370 c         1 J88      0.600200
      5 O5         -0.1620    2.8390    1.3570 o         1 J88     -0.575500
      6 N6         -0.3210    0.4970    1.3390 n         1 J88     -0.378000
      7 C7         -1.7010    0.3600    1.7050 c3        1 J88      0.157300
      8 C8         -2.6700    0.3220    0.5560 ca        1 J88     -0.111300
      9 C9         -2.8840    1.4670   -0.2120 ca        1 J88     -0.120000
     10 C10        -3.8100    1.4450   -1.2700 ca        1 J88      0.101900
     11 F11        -4.0180    2.5640   -2.0060 f         1 J88     -0.136900
     12 C12        -4.5230    0.2710   -1.5760 ca        1 J88     -0.122000
     13 C13        -4.3060   -0.8750   -0.8180 ca        1 J88     -0.160300
     14 C14        -5.0160   -2.1510   -1.1160 c3        1 J88      0.173700
     15 O15        -4.4690   -3.2450   -0.3770 os        1 J88     -0.420600
     16 C16        -4.2110   -2.9350    0.9690 c3        1 J88      0.318200
     17 O17        -3.1500   -1.9810    1.0040 os        1 J88     -0.356900
     18 C18        -3.3890   -0.8440    0.2480 ca        1 J88      0.127100
     19 C19         0.5120   -0.5580    0.9050 ca        1 J88      0.072600
     20 C20         0.2450   -1.9230    0.8750 ca        1 J88     -0.161000
     21 C21         1.2650   -2.7800    0.4440 ca        1 J88     -0.087000
     22 C22         2.5030   -2.2940    0.0480 ca        1 J88     -0.159000
     23 C23         2.7840   -0.9110    0.0500 cp        1 J88      0.037000
     24 C24         1.7900   -0.0450    0.4810 ca        1 J88     -0.168900
     25 C25         4.1010   -0.4580   -0.4020 cp        1 J88     -0.044000
     26 C26         5.2490   -0.8470    0.3020 ca        1 J88     -0.104500
     27 C27         6.5090   -0.4430   -0.1350 ca        1 J88     -0.134500
     28 C28         6.6350    0.3430   -1.2800 ca        1 J88     -0.124000
     29 C29         5.4950    0.7280   -1.9870 ca        1 J88     -0.134500
     30 C30         4.2320    0.3320   -1.5510 ca        1 J88     -0.104500
     31 HO1         3.3760    3.9400    0.3360 ho        1 J88      0.446000
     32 H7         -1.8090   -0.5840    2.3150 h1        1 J88      0.081700
     33 H7A        -1.9610    1.2480    2.3550 h1        1 J88      0.081700
     34 H9         -2.3250    2.3910    0.0140 ha        1 J88      0.174000
     35 H12        -5.2370    0.2650   -2.4120 ha        1 J88      0.153000
     36 H14        -6.1110   -2.0600   -0.8790 h1        1 J88      0.069700
     37 H14A       -4.8790   -2.4580   -2.1890 h1        1 J88      0.069700
     38 H16        -5.1150   -2.5310    1.4950 h2        1 J88      0.075200
     39 H16A       -3.7900   -3.8630    1.4400 h2        1 J88      0.075200
     40 H20        -0.7400   -2.3190    1.1670 ha        1 J88      0.160000
     41 H21         1.0720   -3.8640    0.4180 ha        1 J88      0.137000
     42 H22         3.2880   -2.9910   -0.2840 ha        1 J88      0.142000
     43 H26         5.1510   -1.4690    1.2040 ha        1 J88      0.137000
     44 H27         7.4060   -0.7460    0.4260 ha        1 J88      0.132000
     45 H28         7.6300    0.6590   -1.6250 ha        1 J88      0.131000
     46 H29         5.5920    1.3450   -2.8920 ha        1 J88      0.132000
     47 H30         3.3340    0.6410   -2.1070 ha        1 J88      0.137000
@<TRIPOS>BOND
     1    1    2 1   
     2    1   31 1   
     3    2    3 2   
     4    3    4 1   
     5    3   24 1   
     6    4    5 2   
     7    4    6 1   
     8    6    7 1   
     9    6   19 1   
    10    7    8 1   
    11    7   32 1   
    12    7   33 1   
    13    8    9 ar  
    14    8   18 ar  
    15    9   10 ar  
    16    9   34 1   
    17   10   11 1   
    18   10   12 ar  
    19   12   13 ar  
    20   12   35 1   
    21   13   14 1   
    22   13   18 ar  
    23   14   15 1   
    24   14   36 1   
    25   14   37 1   
    26   15   16 1   
    27   16   17 1   
    28   16   38 1   
    29   16   39 1   
    30   17   18 1   
    31   19   20 ar  
    32   19   24 ar  
    33   20   21 ar  
    34   20   40 1   
    35   21   22 ar  
    36   21   41 1   
    37   22   23 ar  
    38   22   42 1   
    39   23   24 ar  
    40   23   25 1   
    41   25   26 ar  
    42   25   30 ar  
    43   26   27 ar  
    44   26   43 1   
    45   27   28 ar  
    46   27   44 1   
    47   28   29 ar  
    48   28   45 1   
    49   29   30 ar  
    50   29   46 1   
    51   30   47 1   
@<TRIPOS>SUBSTRUCTURE
     1 J88         1 TEMP              0 ****  ****    0 ROOT
