@<TRIPOS>MOLECULE
J88
   47    51     1     0     0
SMALL
bcc


@<TRIPOS>ATOM
      1 O1          0.0680    0.6710    0.1470 oh        1 J88     -0.317500
      2 N2          1.3490    0.4680    0.0070 n2        1 J88     -0.364200
      3 C3          2.0500    0.2610    1.0850 cc        1 J88      0.366900
      4 C4          1.5950    0.2180    2.5410 c         1 J88      0.600200
      5 O5          0.4460    0.3180    2.9790 o         1 J88     -0.575500
      6 N6          2.7500    0.0540    3.3430 n         1 J88     -0.378000
      7 C7          2.7340   -0.1460    4.7620 c3        1 J88      0.157300
      8 C8          2.6140   -1.5770    5.2080 ca        1 J88     -0.111300
      9 C9          1.4240   -2.2740    4.9970 ca        1 J88     -0.120000
     10 C10         1.2960   -3.6040    5.4370 ca        1 J88      0.101900
     11 F11         0.1340   -4.2710    5.2350 f         1 J88     -0.136900
     12 C12         2.3650   -4.2510    6.0840 ca        1 J88     -0.122000
     13 C13         3.5550   -3.5620    6.2900 ca        1 J88     -0.160300
     14 C14         4.7260   -4.2100    6.9470 c3        1 J88      0.173700
     15 O15         5.9040   -3.4080    6.8370 os        1 J88     -0.420600
     16 C16         5.6760   -2.0450    7.0930 c3        1 J88      0.318200
     17 O17         4.8580   -1.5330    6.0430 os        1 J88     -0.356900
     18 C18         3.6740   -2.2280    5.8600 ca        1 J88      0.127100
     19 C19         3.8800   -0.1120    2.5120 ca        1 J88      0.072600
     20 C20         5.2020   -0.3500    2.8760 ca        1 J88     -0.161000
     21 C21         6.1580   -0.4270    1.8570 ca        1 J88     -0.087000
     22 C22         5.8090   -0.2810    0.5210 ca        1 J88     -0.159000
     23 C23         4.4700   -0.0620    0.1320 cp        1 J88      0.037000
     24 C24         3.5080    0.0250    1.1270 ca        1 J88     -0.168900
     25 C25         4.1620    0.0610   -1.2950 cp        1 J88     -0.044000
     26 C26         4.7100    1.1170   -2.0360 ca        1 J88     -0.104500
     27 C27         4.4430    1.2270   -3.4000 ca        1 J88     -0.134500
     28 C28         3.6370    0.2820   -4.0350 ca        1 J88     -0.124000
     29 C29         3.0950   -0.7730   -3.3020 ca        1 J88     -0.134500
     30 C30         3.3530   -0.8850   -1.9360 ca        1 J88     -0.104500
     31 HO1        -0.2620    0.8130   -0.7660 ho        1 J88      0.446000
     32 H7          1.8460    0.4240    5.1680 h1        1 J88      0.081700
     33 H7A         3.6800    0.2980    5.1890 h1        1 J88      0.081700
     34 H9          0.5820   -1.7780    4.4840 ha        1 J88      0.174000
     35 H12         2.2550   -5.2940    6.4150 ha        1 J88      0.153000
     36 H14         5.0070   -5.1700    6.4350 h1        1 J88      0.069700
     37 H14A        4.5130   -4.4020    8.0340 h1        1 J88      0.069700
     38 H16         5.1880   -1.8740    8.0880 h2        1 J88      0.075200
     39 H16A        6.6650   -1.5260    6.9790 h2        1 J88      0.075200
     40 H20         5.4870   -0.4890    3.9300 ha        1 J88      0.160000
     41 H21         7.2100   -0.6110    2.1280 ha        1 J88      0.137000
     42 H22         6.5820   -0.3440   -0.2600 ha        1 J88      0.142000
     43 H26         5.3480    1.8600   -1.5360 ha        1 J88      0.137000
     44 H27         4.8710    2.0610   -3.9750 ha        1 J88      0.132000
     45 H28         3.4300    0.3690   -5.1110 ha        1 J88      0.131000
     46 H29         2.4610   -1.5210   -3.8000 ha        1 J88      0.132000
     47 H30         2.9190   -1.7150   -1.3590 ha        1 J88      0.137000
@<TRIPOS>BOND
     1    1    2 1   
     2    1   31 1   
     3    2    3 2   
     4    3    4 1   
     5    3   24 1   
     6    4    5 2   
     7    4    6 1   
     8    6    7 1   
     9    6   19 1   
    10    7    8 1   
    11    7   32 1   
    12    7   33 1   
    13    8    9 ar  
    14    8   18 ar  
    15    9   10 ar  
    16    9   34 1   
    17   10   11 1   
    18   10   12 ar  
    19   12   13 ar  
    20   12   35 1   
    21   13   14 1   
    22   13   18 ar  
    23   14   15 1   
    24   14   36 1   
    25   14   37 1   
    26   15   16 1   
    27   16   17 1   
    28   16   38 1   
    29   16   39 1   
    30   17   18 1   
    31   19   20 ar  
    32   19   24 ar  
    33   20   21 ar  
    34   20   40 1   
    35   21   22 ar  
    36   21   41 1   
    37   22   23 ar  
    38   22   42 1   
    39   23   24 ar  
    40   23   25 1   
    41   25   26 ar  
    42   25   30 ar  
    43   26   27 ar  
    44   26   43 1   
    45   27   28 ar  
    46   27   44 1   
    47   28   29 ar  
    48   28   45 1   
    49   29   30 ar  
    50   29   46 1   
    51   30   47 1   
@<TRIPOS>SUBSTRUCTURE
     1 J88         1 TEMP              0 ****  ****    0 ROOT
