@<TRIPOS>MOLECULE
J88
   47    51     1     0     0
SMALL
bcc


@<TRIPOS>ATOM
      1 O1          0.0620    0.6690    0.1550 oh        1 J88     -0.317500
      2 N2          1.3430    0.4670    0.0120 n2        1 J88     -0.364200
      3 C3          2.0460    0.2590    1.0880 cc        1 J88      0.366900
      4 C4          1.5940    0.2160    2.5450 c         1 J88      0.600200
      5 O5          0.4470    0.3160    2.9860 o         1 J88     -0.575500
      6 N6          2.7520    0.0520    3.3440 n         1 J88     -0.378000
      7 C7          2.7390   -0.1480    4.7630 c3        1 J88      0.157300
      8 C8          2.6210   -1.5790    5.2100 ca        1 J88     -0.111300
      9 C9          1.4320   -2.2770    5.0000 ca        1 J88     -0.120000
     10 C10         1.3050   -3.6070    5.4410 ca        1 J88      0.101900
     11 F11         0.1430   -4.2750    5.2410 f         1 J88     -0.136900
     12 C12         2.3760   -4.2530    6.0860 ca        1 J88     -0.122000
     13 C13         3.5660   -3.5640    6.2900 ca        1 J88     -0.160300
     14 C14         4.7390   -4.2110    6.9440 c3        1 J88      0.173700
     15 O15         5.9160   -3.4080    6.8320 os        1 J88     -0.420600
     16 C16         5.6880   -2.0450    7.0880 c3        1 J88      0.318200
     17 O17         4.8670   -1.5330    6.0390 os        1 J88     -0.356900
     18 C18         3.6830   -2.2300    5.8590 ca        1 J88      0.127100
     19 C19         3.8790   -0.1140    2.5100 ca        1 J88      0.072600
     20 C20         5.2020   -0.3520    2.8720 ca        1 J88     -0.161000
     21 C21         6.1560   -0.4280    1.8490 ca        1 J88     -0.087000
     22 C22         5.8040   -0.2820    0.5140 ca        1 J88     -0.159000
     23 C23         4.4640   -0.0640    0.1290 cp        1 J88      0.037000
     24 C24         3.5040    0.0230    1.1260 ca        1 J88     -0.168900
     25 C25         4.1530    0.0600   -1.2970 cp        1 J88     -0.044000
     26 C26         4.6990    1.1150   -2.0400 ca        1 J88     -0.104500
     27 C27         4.4290    1.2250   -3.4030 ca        1 J88     -0.134500
     28 C28         3.6210    0.2810   -4.0360 ca        1 J88     -0.124000
     29 C29         3.0800   -0.7740   -3.3010 ca        1 J88     -0.134500
     30 C30         3.3410   -0.8860   -1.9370 ca        1 J88     -0.104500
     31 HO1        -0.2700    0.8120   -0.7580 ho        1 J88      0.446000
     32 H7          3.6860    0.2970    5.1880 h1        1 J88      0.081700
     33 H7A         1.8510    0.4210    5.1710 h1        1 J88      0.081700
     34 H9          0.5880   -1.7820    4.4890 ha        1 J88      0.174000
     35 H12         2.2670   -5.2970    6.4180 ha        1 J88      0.153000
     36 H14         4.5280   -4.4030    8.0310 h1        1 J88      0.069700
     37 H14A        5.0190   -5.1710    6.4310 h1        1 J88      0.069700
     38 H16         5.2010   -1.8740    8.0840 h2        1 J88      0.075200
     39 H16A        6.6760   -1.5250    6.9730 h2        1 J88      0.075200
     40 H20         5.4910   -0.4900    3.9250 ha        1 J88      0.160000
     41 H21         7.2080   -0.6120    2.1180 ha        1 J88      0.137000
     42 H22         6.5750   -0.3440   -0.2680 ha        1 J88      0.142000
     43 H26         5.3380    1.8590   -1.5420 ha        1 J88      0.137000
     44 H27         4.8560    2.0590   -3.9790 ha        1 J88      0.132000
     45 H28         3.4120    0.3670   -5.1120 ha        1 J88      0.131000
     46 H29         2.4450   -1.5220   -3.7990 ha        1 J88      0.132000
     47 H30         2.9090   -1.7160   -1.3580 ha        1 J88      0.137000
@<TRIPOS>BOND
     1    1    2 1   
     2    1   31 1   
     3    2    3 2   
     4    3    4 1   
     5    3   24 1   
     6    4    5 2   
     7    4    6 1   
     8    6    7 1   
     9    6   19 1   
    10    7    8 1   
    11    7   32 1   
    12    7   33 1   
    13    8    9 ar  
    14    8   18 ar  
    15    9   10 ar  
    16    9   34 1   
    17   10   11 1   
    18   10   12 ar  
    19   12   13 ar  
    20   12   35 1   
    21   13   14 1   
    22   13   18 ar  
    23   14   15 1   
    24   14   36 1   
    25   14   37 1   
    26   15   16 1   
    27   16   17 1   
    28   16   38 1   
    29   16   39 1   
    30   17   18 1   
    31   19   20 ar  
    32   19   24 ar  
    33   20   21 ar  
    34   20   40 1   
    35   21   22 ar  
    36   21   41 1   
    37   22   23 ar  
    38   22   42 1   
    39   23   24 ar  
    40   23   25 1   
    41   25   26 ar  
    42   25   30 ar  
    43   26   27 ar  
    44   26   43 1   
    45   27   28 ar  
    46   27   44 1   
    47   28   29 ar  
    48   28   45 1   
    49   29   30 ar  
    50   29   46 1   
    51   30   47 1   
@<TRIPOS>SUBSTRUCTURE
     1 J88         1 TEMP              0 ****  ****    0 ROOT
