@<TRIPOS>MOLECULE
J88
   47    51     1     0     0
SMALL
bcc


@<TRIPOS>ATOM
      1 O1          0.0620    0.6600    0.1470 oh        1 J88     -0.317500
      2 N2          1.3430    0.4600    0.0060 n2        1 J88     -0.364200
      3 C3          2.0460    0.2550    1.0840 cc        1 J88      0.366900
      4 C4          1.5920    0.2130    2.5400 c         1 J88      0.600200
      5 O5          0.4430    0.3110    2.9790 o         1 J88     -0.575500
      6 N6          2.7480    0.0530    3.3410 n         1 J88     -0.378000
      7 C7          2.7330   -0.1460    4.7610 c3        1 J88      0.157300
      8 C8          2.6170   -1.5760    5.2100 ca        1 J88     -0.111300
      9 C9          1.4290   -2.2770    5.0000 ca        1 J88     -0.120000
     10 C10         1.3050   -3.6060    5.4430 ca        1 J88      0.101900
     11 F11         0.1440   -4.2760    5.2420 f         1 J88     -0.136900
     12 C12         2.3760   -4.2490    6.0910 ca        1 J88     -0.122000
     13 C13         3.5650   -3.5570    6.2950 ca        1 J88     -0.160300
     14 C14         4.7370   -4.2000    6.9520 c3        1 J88      0.173700
     15 O15         5.9130   -3.3950    6.8410 os        1 J88     -0.420600
     16 C16         5.6810   -2.0330    7.0940 c3        1 J88      0.318200
     17 O17         4.8610   -1.5240    6.0430 os        1 J88     -0.356900
     18 C18         3.6790   -2.2230    5.8620 ca        1 J88      0.127100
     19 C19         3.8770   -0.1120    2.5100 ca        1 J88      0.072600
     20 C20         5.2000   -0.3470    2.8740 ca        1 J88     -0.161000
     21 C21         6.1560   -0.4230    1.8530 ca        1 J88     -0.087000
     22 C22         5.8060   -0.2790    0.5170 ca        1 J88     -0.159000
     23 C23         4.4660   -0.0640    0.1290 cp        1 J88      0.037000
     24 C24         3.5040    0.0220    1.1250 ca        1 J88     -0.168900
     25 C25         4.1570    0.0570   -1.2970 cp        1 J88     -0.044000
     26 C26         4.7020    1.1130   -2.0410 ca        1 J88     -0.104500
     27 C27         4.4340    1.2210   -3.4040 ca        1 J88     -0.134500
     28 C28         3.6290    0.2740   -4.0370 ca        1 J88     -0.124000
     29 C29         3.0890   -0.7820   -3.3030 ca        1 J88     -0.134500
     30 C30         3.3480   -0.8910   -1.9370 ca        1 J88     -0.104500
     31 HO1        -0.2690    0.8010   -0.7660 ho        1 J88      0.446000
     32 H7          3.6790    0.3020    5.1870 h1        1 J88      0.081700
     33 H7A         1.8440    0.4230    5.1670 h1        1 J88      0.081700
     34 H9          0.5860   -1.7840    4.4860 ha        1 J88      0.174000
     35 H12         2.2680   -5.2920    6.4230 ha        1 J88      0.153000
     36 H14         4.5250   -4.3910    8.0390 h1        1 J88      0.069700
     37 H14A        5.0200   -5.1610    6.4420 h1        1 J88      0.069700
     38 H16         5.1930   -1.8610    8.0890 h2        1 J88      0.075200
     39 H16A        6.6690   -1.5110    6.9790 h2        1 J88      0.075200
     40 H20         5.4870   -0.4830    3.9280 ha        1 J88      0.160000
     41 H21         7.2080   -0.6040    2.1240 ha        1 J88      0.137000
     42 H22         6.5790   -0.3410   -0.2640 ha        1 J88      0.142000
     43 H26         5.3390    1.8580   -1.5420 ha        1 J88      0.137000
     44 H27         4.8600    2.0550   -3.9800 ha        1 J88      0.132000
     45 H28         3.4220    0.3590   -5.1140 ha        1 J88      0.131000
     46 H29         2.4570   -1.5310   -3.8000 ha        1 J88      0.132000
     47 H30         2.9170   -1.7210   -1.3580 ha        1 J88      0.137000
@<TRIPOS>BOND
     1    1    2 1   
     2    1   31 1   
     3    2    3 2   
     4    3    4 1   
     5    3   24 1   
     6    4    5 2   
     7    4    6 1   
     8    6    7 1   
     9    6   19 1   
    10    7    8 1   
    11    7   32 1   
    12    7   33 1   
    13    8    9 ar  
    14    8   18 ar  
    15    9   10 ar  
    16    9   34 1   
    17   10   11 1   
    18   10   12 ar  
    19   12   13 ar  
    20   12   35 1   
    21   13   14 1   
    22   13   18 ar  
    23   14   15 1   
    24   14   36 1   
    25   14   37 1   
    26   15   16 1   
    27   16   17 1   
    28   16   38 1   
    29   16   39 1   
    30   17   18 1   
    31   19   20 ar  
    32   19   24 ar  
    33   20   21 ar  
    34   20   40 1   
    35   21   22 ar  
    36   21   41 1   
    37   22   23 ar  
    38   22   42 1   
    39   23   24 ar  
    40   23   25 1   
    41   25   26 ar  
    42   25   30 ar  
    43   26   27 ar  
    44   26   43 1   
    45   27   28 ar  
    46   27   44 1   
    47   28   29 ar  
    48   28   45 1   
    49   29   30 ar  
    50   29   46 1   
    51   30   47 1   
@<TRIPOS>SUBSTRUCTURE
     1 J88         1 TEMP              0 ****  ****    0 ROOT
