@<TRIPOS>MOLECULE
J8Z
   46    48     1     0     0
SMALL
bcc


@<TRIPOS>ATOM
      1 N1          0.0930    0.0620    0.2140 n         1 J8Z     -0.540900
      2 C2          1.5210   -0.1450    0.1260 c3        1 J8Z      0.079700
      3 C3          2.1710   -0.4500    1.5080 c3        1 J8Z      0.170400
      4 O4          1.9230   -1.7560    1.9090 os        1 J8Z     -0.576200
      5 C5         -0.4920    1.2650   -0.0970 c         1 J8Z      0.696300
      6 O6          0.1410    2.2130   -0.6160 o         1 J8Z     -0.634100
      7 P7          1.0300   -1.9770    3.2860 p5        1 J8Z      1.422800
      8 O8          1.2680   -0.8130    4.1580 o         1 J8Z     -0.825000
      9 O9         -0.4210   -1.8160    2.5300 oh        1 J8Z     -0.797400
     10 O10         1.0760   -3.4090    3.6300 o         1 J8Z     -0.825000
     11 C11        -1.9480    1.3950    0.1580 cc        1 J8Z     -0.163600
     12 C12        -2.7520    2.2370   -0.5740 cd        1 J8Z     -0.091200
     13 C13        -4.1140    2.1920   -0.1240 ca        1 J8Z     -0.092800
     14 C14        -4.2630    1.2880    0.9680 ca        1 J8Z     -0.106100
     15 S15        -2.7970    0.5760    1.3660 ss        1 J8Z      0.153500
     16 C16        -5.2260    2.8960   -0.6140 ca        1 J8Z     -0.088000
     17 C17        -6.4610    2.7020   -0.0240 ca        1 J8Z     -0.149000
     18 C18        -6.6090    1.8090    1.0570 ca        1 J8Z     -0.131000
     19 C19        -5.5260    1.1080    1.5530 ca        1 J8Z     -0.093000
     20 C20         1.8970   -1.2920   -0.8300 c3        1 J8Z     -0.048100
     21 C21         2.0380   -0.0010   -2.9760 ca        1 J8Z     -0.124000
     22 C22         1.4930   -1.0630   -2.2410 ca        1 J8Z     -0.050300
     23 C23         0.5870   -1.9270   -2.8640 ca        1 J8Z     -0.126000
     24 C24         0.2240   -1.7420   -4.2030 ca        1 J8Z     -0.087300
     25 C25         0.7780   -0.6800   -4.9240 ca        1 J8Z     -0.146000
     26 C26         1.6790    0.1870   -4.3090 ca        1 J8Z     -0.130000
     27 C27        -0.7520   -2.6560   -4.8390 c3        1 J8Z     -0.046800
     28 HN1        -0.8170   -2.6620    2.3540 ho        1 J8Z      0.428000
     29 H2          1.9870    0.8110   -0.2610 h1        1 J8Z      0.068700
     30 H3          3.2840   -0.3290    1.3690 h1        1 J8Z      0.042200
     31 H3A         1.8130    0.2800    2.2860 h1        1 J8Z      0.042200
     32 H12        -2.4030    2.8720   -1.3930 ha        1 J8Z      0.168000
     33 H16        -5.1010    3.5910   -1.4560 ha        1 J8Z      0.130000
     34 H17        -7.3430    3.2450   -0.3940 ha        1 J8Z      0.121000
     35 H18        -7.6030    1.6750    1.5080 ha        1 J8Z      0.122000
     36 H19        -5.6440    0.4130    2.3980 ha        1 J8Z      0.135000
     37 H20         3.0140   -1.4050   -0.7800 hc        1 J8Z      0.067700
     38 H20A        1.4550   -2.2480   -0.4370 hc        1 J8Z      0.067700
     39 H23         0.1500   -2.7610   -2.2930 ha        1 J8Z      0.134000
     40 H25         0.4980   -0.5270   -5.9760 ha        1 J8Z      0.116000
     41 H26         2.1060    1.0270   -4.8760 ha        1 J8Z      0.119000
     42 H27        -0.6480   -2.6470   -5.9520 hc        1 J8Z      0.036367
     43 H27A       -0.6080   -3.7050   -4.4790 hc        1 J8Z      0.036367
     44 H27B       -1.7950   -2.3400   -4.5820 hc        1 J8Z      0.036367
     45 H121       -0.4270   -0.6240    0.7220 hn        1 J8Z      0.344500
     46 H21         2.7390    0.6930   -2.4890 ha        1 J8Z      0.134000
@<TRIPOS>BOND
     1    1    2 1   
     2    1    5 1   
     3    1   45 1   
     4    2    3 1   
     5    2   20 1   
     6    2   29 1   
     7    3    4 1   
     8    3   30 1   
     9    3   31 1   
    10    4    7 1   
    11    5    6 2   
    12    5   11 1   
    13    7    8 1   
    14    7    9 1   
    15    7   10 1   
    16    9   28 1   
    17   11   12 2   
    18   11   15 1   
    19   12   13 1   
    20   12   32 1   
    21   13   14 ar  
    22   13   16 ar  
    23   14   15 1   
    24   14   19 ar  
    25   16   17 ar  
    26   16   33 1   
    27   17   18 ar  
    28   17   34 1   
    29   18   19 ar  
    30   18   35 1   
    31   19   36 1   
    32   20   22 1   
    33   20   37 1   
    34   20   38 1   
    35   21   22 ar  
    36   21   26 ar  
    37   21   46 1   
    38   22   23 ar  
    39   23   24 ar  
    40   23   39 1   
    41   24   25 ar  
    42   24   27 1   
    43   25   26 ar  
    44   25   40 1   
    45   26   41 1   
    46   27   42 1   
    47   27   43 1   
    48   27   44 1   
@<TRIPOS>SUBSTRUCTURE
     1 J8Z         1 TEMP              0 ****  ****    0 ROOT
