@<TRIPOS>MOLECULE
J8Z
   45    48     1     0     0
SMALL
bcc


@<TRIPOS>ATOM
      1 N1          0.0470    0.6850   -0.2310 n         1 J8Z     -0.530900
      2 C2          1.3800    0.3760    0.2340 c3        1 J8Z      0.058700
      3 C3          1.4660   -0.9410    1.0700 c3        1 J8Z      0.184400
      4 O4          0.4470   -1.0730    1.9910 os        1 J8Z     -0.584200
      5 C5         -0.5770    1.8800    0.1760 c2        1 J8Z      0.457000
      6 O6          0.0890    2.9400    0.2490 o         1 J8Z     -0.436000
      7 P7         -0.8570   -2.0800    1.6250 p5        1 J8Z      1.496800
      8 O8         -1.9190   -0.9210    1.4180 os        1 J8Z     -0.708200
      9 O9         -0.5030   -2.6650    0.3020 o         1 J8Z     -0.878000
     10 O10        -1.1010   -2.9120    2.8240 o         1 J8Z     -0.878000
     11 C11        -2.0040    1.7820    0.4620 ce        1 J8Z     -0.231300
     12 C12        -2.9930    2.5810   -0.1520 ce        1 J8Z     -0.169000
     13 C13        -4.2800    2.1950    0.2440 ca        1 J8Z     -0.088000
     14 C14        -4.2370    1.0950    1.1900 ca        1 J8Z     -0.626000
     15 S15        -2.6710    0.6770    1.4810 sx        1 J8Z      0.692100
     16 C16        -5.5350    2.6950   -0.1880 ca        1 J8Z     -0.113000
     17 C17        -6.6950    2.1520    0.2970 ca        1 J8Z     -0.171000
     18 C18        -6.6580    1.0710    1.2210 ca        1 J8Z     -0.243000
     19 C19        -5.4560    0.5550    1.6390 ca        1 J8Z     -0.014000
     20 C20         2.4250    0.3230   -0.8970 c3        1 J8Z     -0.031100
     21 C21         2.8010   -0.0640   -3.3140 ca        1 J8Z     -0.159000
     22 C22         2.0960   -0.4130   -2.1490 ca        1 J8Z     -0.044300
     23 C23         1.1570   -1.4460   -2.2170 ca        1 J8Z     -0.100000
     24 C24         0.9290   -2.1260   -3.4220 ca        1 J8Z     -0.075300
     25 C25         1.6440   -1.7710   -4.5700 ca        1 J8Z     -0.163000
     26 C26         2.5780   -0.7380   -4.5110 ca        1 J8Z     -0.158000
     27 C27        -0.0790   -3.2110   -3.4580 c3        1 J8Z     -0.060800
     28 HN1        -0.5550   -0.1250   -0.1980 hn        1 J8Z      0.316500
     29 H2          1.7170    1.2170    0.9160 h1        1 J8Z      0.047700
     30 H3          1.4990   -1.8330    0.3860 h1        1 J8Z      0.016200
     31 H3A         2.4400   -0.8850    1.6390 h1        1 J8Z      0.016200
     32 H12        -2.7750    3.3590   -0.8830 ha        1 J8Z      0.109000
     33 H16        -5.5540    3.5200   -0.9150 ha        1 J8Z      0.085000
     34 H17        -7.6730    2.5370   -0.0220 ha        1 J8Z      0.074000
     35 H18        -7.6070    0.6620    1.5910 ha        1 J8Z      0.080000
     36 H19        -5.4320   -0.2960    2.3370 ha        1 J8Z      0.098000
     37 H20         2.6730    1.3850   -1.1720 hc        1 J8Z      0.031200
     38 H20A        3.3570   -0.1380   -0.4650 hc        1 J8Z      0.031200
     39 H23         0.5660   -1.7580   -1.3280 ha        1 J8Z      0.229000
     40 H25         1.4650   -2.3020   -5.5140 ha        1 J8Z      0.100000
     41 H26         3.1350   -0.4520   -5.4130 ha        1 J8Z      0.095000
     42 H27         0.3680   -4.1490   -3.8710 hc        1 J8Z      0.046367
     43 H27A       -0.4700   -3.4180   -2.4260 hc        1 J8Z      0.046367
     44 H27B       -0.9390   -2.9180   -4.1100 hc        1 J8Z      0.046367
     45 H21         3.5320    0.7560   -3.2790 ha        1 J8Z      0.106000
@<TRIPOS>BOND
     1    1    2 1   
     2    1    5 1   
     3    1   28 1   
     4    2    3 1   
     5    2   20 1   
     6    2   29 1   
     7    3    4 1   
     8    3   30 1   
     9    3   31 1   
    10    4    7 1   
    11    5    6 1   
    12    5   11 2   
    13    7    8 1   
    14    7    9 1   
    15    7   10 1   
    16    8   15 1   
    17   11   12 1   
    18   11   15 1   
    19   12   13 2   
    20   12   32 1   
    21   13   14 ar  
    22   13   16 ar  
    23   14   15 2   
    24   14   19 ar  
    25   16   17 ar  
    26   16   33 1   
    27   17   18 ar  
    28   17   34 1   
    29   18   19 ar  
    30   18   35 1   
    31   19   36 1   
    32   20   22 1   
    33   20   37 1   
    34   20   38 1   
    35   21   22 ar  
    36   21   26 ar  
    37   21   45 1   
    38   22   23 ar  
    39   23   24 ar  
    40   23   39 1   
    41   24   25 ar  
    42   24   27 1   
    43   25   26 ar  
    44   25   40 1   
    45   26   41 1   
    46   27   42 1   
    47   27   43 1   
    48   27   44 1   
@<TRIPOS>SUBSTRUCTURE
     1 J8Z         1 TEMP              0 ****  ****    0 ROOT
