@<TRIPOS>MOLECULE
J8Z
   45    48     1     0     0
SMALL
bcc


@<TRIPOS>ATOM
      1 N1         -0.0770   -0.6770    1.0530 n         1 J8Z     -0.527900
      2 C2         -1.4600   -0.3350    1.3120 c3        1 J8Z      0.054700
      3 C3         -2.1530    0.4350    0.1430 c3        1 J8Z      0.182400
      4 O4         -1.3570    1.4210   -0.4050 os        1 J8Z     -0.580200
      5 C5          0.9230   -0.0480    1.8440 c2        1 J8Z      0.461000
      6 O6          0.7520    0.0240    3.0860 o         1 J8Z     -0.440000
      7 P7         -0.5840    1.1260   -1.8680 p5        1 J8Z      1.509800
      8 O8          0.9090    1.0430   -1.3230 os        1 J8Z     -0.706200
      9 O9         -0.9950   -0.2640   -2.2180 o         1 J8Z     -0.877500
     10 O10        -0.8530    2.2800   -2.7480 o         1 J8Z     -0.877500
     11 C11         2.1050    0.4250    1.1520 ce        1 J8Z     -0.303300
     12 C12         3.1760    1.0590    1.8490 ce        1 J8Z     -0.155000
     13 C13         4.1110    1.5890    0.9680 ca        1 J8Z     -0.090000
     14 C14         3.7320    1.3450   -0.4180 ca        1 J8Z     -0.678000
     15 S15         2.3350    0.5010   -0.4690 sx        1 J8Z      0.796100
     16 C16         5.2950    2.3310    1.2420 ca        1 J8Z     -0.112000
     17 C17         6.0690    2.7950    0.2170 ca        1 J8Z     -0.161000
     18 C18         5.6960    2.5650   -1.1410 ca        1 J8Z     -0.262000
     19 C19         4.5470    1.8750   -1.4350 ca        1 J8Z      0.010000
     20 C20        -2.3240   -1.5520    1.6930 c3        1 J8Z     -0.029100
     21 C21        -2.4700   -4.0250    1.5710 ca        1 J8Z     -0.157000
     22 C22        -2.1590   -2.8170    0.9240 ca        1 J8Z     -0.041300
     23 C23        -1.7500   -2.8560   -0.4120 ca        1 J8Z     -0.104000
     24 C24        -1.6580   -4.0770   -1.0950 ca        1 J8Z     -0.078300
     25 C25        -1.9780   -5.2690   -0.4400 ca        1 J8Z     -0.163000
     26 C26        -2.3820   -5.2380    0.8940 ca        1 J8Z     -0.157000
     27 C27        -1.2140   -4.0820   -2.5090 c3        1 J8Z     -0.059800
     28 HN1         0.1110   -0.6370    0.0630 hn        1 J8Z      0.290500
     29 H2         -1.4900    0.3520    2.2140 h1        1 J8Z      0.054700
     30 H3         -2.4930   -0.2870   -0.6500 h1        1 J8Z      0.015700
     31 H3A        -3.0620    0.9340    0.5890 h1        1 J8Z      0.015700
     32 H12         3.1990    1.1510    2.9340 ha        1 J8Z      0.117000
     33 H16         5.5640    2.5200    2.2910 ha        1 J8Z      0.084000
     34 H17         6.9890    3.3610    0.4160 ha        1 J8Z      0.072000
     35 H18         6.3410    2.9560   -1.9370 ha        1 J8Z      0.079000
     36 H19         4.2460    1.7260   -2.4850 ha        1 J8Z      0.092000
     37 H20        -2.1270   -1.7740    2.7780 hc        1 J8Z      0.030700
     38 H20A       -3.4010   -1.2370    1.6070 hc        1 J8Z      0.030700
     39 H23        -1.4820   -1.9290   -0.9650 ha        1 J8Z      0.228000
     40 H25        -1.9060   -6.2260   -0.9740 ha        1 J8Z      0.100000
     41 H26        -2.6260   -6.1740    1.4140 ha        1 J8Z      0.096000
     42 H27        -0.2600   -4.6550   -2.6130 hc        1 J8Z      0.044700
     43 H27A       -1.9840   -4.5670   -3.1590 hc        1 J8Z      0.044700
     44 H27B       -1.0430   -3.0330   -2.8710 hc        1 J8Z      0.044700
     45 H21        -2.7780   -4.0120    2.6260 ha        1 J8Z      0.107000
@<TRIPOS>BOND
     1    1    2 1   
     2    1    5 1   
     3    1   28 1   
     4    2    3 1   
     5    2   20 1   
     6    2   29 1   
     7    3    4 1   
     8    3   30 1   
     9    3   31 1   
    10    4    7 1   
    11    5    6 1   
    12    5   11 2   
    13    7    8 1   
    14    7    9 1   
    15    7   10 1   
    16    8   15 1   
    17   11   12 1   
    18   11   15 1   
    19   12   13 2   
    20   12   32 1   
    21   13   14 ar  
    22   13   16 ar  
    23   14   15 2   
    24   14   19 ar  
    25   16   17 ar  
    26   16   33 1   
    27   17   18 ar  
    28   17   34 1   
    29   18   19 ar  
    30   18   35 1   
    31   19   36 1   
    32   20   22 1   
    33   20   37 1   
    34   20   38 1   
    35   21   22 ar  
    36   21   26 ar  
    37   21   45 1   
    38   22   23 ar  
    39   23   24 ar  
    40   23   39 1   
    41   24   25 ar  
    42   24   27 1   
    43   25   26 ar  
    44   25   40 1   
    45   26   41 1   
    46   27   42 1   
    47   27   43 1   
    48   27   44 1   
@<TRIPOS>SUBSTRUCTURE
     1 J8Z         1 TEMP              0 ****  ****    0 ROOT
