@<TRIPOS>MOLECULE
J8Z
   46    48     1     0     0
SMALL
bcc


@<TRIPOS>ATOM
      1 N1          0.0910    0.0820    0.2130 ns        1 J8Z     -0.540900
      2 C2          1.5230   -0.1020    0.1240 c3        1 J8Z      0.079700
      3 C3          2.1790   -0.3910    1.5060 c3        1 J8Z      0.170400
      4 O4          1.9520   -1.6990    1.9120 os        1 J8Z     -0.576200
      5 C5         -0.5150    1.2740   -0.1020 c         1 J8Z      0.696300
      6 O6          0.1030    2.2300   -0.6250 o         1 J8Z     -0.634100
      7 P7          1.0630   -1.9300    3.2910 p5        1 J8Z      1.422800
      8 O8          1.2820   -0.7580    4.1580 o         1 J8Z     -0.825000
      9 O9         -0.3900   -1.7970    2.5350 oh        1 J8Z     -0.797400
     10 O10         1.1340   -3.3600    3.6410 o         1 J8Z     -0.825000
     11 C11        -1.9720    1.3790    0.1540 cc        1 J8Z     -0.163600
     12 C12        -2.7910    2.2060   -0.5800 cd        1 J8Z     -0.091200
     13 C13        -4.1520    2.1390   -0.1290 ca        1 J8Z     -0.092800
     14 C14        -4.2840    1.2350    0.9660 ca        1 J8Z     -0.106100
     15 S15        -2.8060    0.5500    1.3650 ss        1 J8Z      0.153500
     16 C16        -5.2760    2.8220   -0.6200 ca        1 J8Z     -0.088000
     17 C17        -6.5070    2.6090   -0.0290 ca        1 J8Z     -0.149000
     18 C18        -6.6390    1.7170    1.0550 ca        1 J8Z     -0.131000
     19 C19        -5.5440    1.0360    1.5520 ca        1 J8Z     -0.093000
     20 C20         1.9170   -1.2460   -0.8280 c3        1 J8Z     -0.048100
     21 C21         2.0350    0.0380   -2.9790 ca        1 J8Z     -0.124000
     22 C22         1.5080   -1.0290   -2.2400 ca        1 J8Z     -0.050300
     23 C23         0.6150   -1.9100   -2.8580 ca        1 J8Z     -0.126000
     24 C24         0.2480   -1.7360   -4.1970 ca        1 J8Z     -0.087300
     25 C25         0.7840   -0.6680   -4.9240 ca        1 J8Z     -0.146000
     26 C26         1.6720    0.2150   -4.3120 ca        1 J8Z     -0.130000
     27 C27        -0.7140   -2.6680   -4.8300 c3        1 J8Z     -0.046800
     28 HN1        -0.7720   -2.6490    2.3620 ho        1 J8Z      0.428000
     29 H2          1.9720    0.8610   -0.2670 h1        1 J8Z      0.068700
     30 H3          3.2890   -0.2530    1.3660 h1        1 J8Z      0.042200
     31 H3A         1.8090    0.3360    2.2820 h1        1 J8Z      0.042200
     32 H12        -2.4530    2.8440   -1.4010 ha        1 J8Z      0.168000
     33 H16        -5.1630    3.5170   -1.4640 ha        1 J8Z      0.130000
     34 H17        -7.3980    3.1350   -0.4000 ha        1 J8Z      0.121000
     35 H18        -7.6300    1.5670    1.5070 ha        1 J8Z      0.122000
     36 H19        -5.6490    0.3420    2.3990 ha        1 J8Z      0.135000
     37 H20         1.4920   -2.2080   -0.4320 hc        1 J8Z      0.067700
     38 H20A        3.0360   -1.3400   -0.7790 hc        1 J8Z      0.067700
     39 H23         0.1930   -2.7490   -2.2840 ha        1 J8Z      0.134000
     40 H25         0.5010   -0.5230   -5.9760 ha        1 J8Z      0.116000
     41 H26         2.0840    1.0600   -4.8830 ha        1 J8Z      0.119000
     42 H27        -0.5480   -3.7140   -4.4700 hc        1 J8Z      0.036367
     43 H27A       -0.6160   -2.6570   -5.9430 hc        1 J8Z      0.036367
     44 H27B       -1.7610   -2.3720   -4.5670 hc        1 J8Z      0.036367
     45 H121       -0.4160   -0.6110    0.7230 hn        1 J8Z      0.344500
     46 H21         2.7250    0.7450   -2.4960 ha        1 J8Z      0.134000
@<TRIPOS>BOND
     1    1    2 1   
     2    1    5 1   
     3    1   45 1   
     4    2    3 1   
     5    2   20 1   
     6    2   29 1   
     7    3    4 1   
     8    3   30 1   
     9    3   31 1   
    10    4    7 1   
    11    5    6 2   
    12    5   11 1   
    13    7    8 1   
    14    7    9 1   
    15    7   10 1   
    16    9   28 1   
    17   11   12 2   
    18   11   15 1   
    19   12   13 1   
    20   12   32 1   
    21   13   14 ar  
    22   13   16 ar  
    23   14   15 1   
    24   14   19 ar  
    25   16   17 ar  
    26   16   33 1   
    27   17   18 ar  
    28   17   34 1   
    29   18   19 ar  
    30   18   35 1   
    31   19   36 1   
    32   20   22 1   
    33   20   37 1   
    34   20   38 1   
    35   21   22 ar  
    36   21   26 ar  
    37   21   46 1   
    38   22   23 ar  
    39   23   24 ar  
    40   23   39 1   
    41   24   25 ar  
    42   24   27 1   
    43   25   26 ar  
    44   25   40 1   
    45   26   41 1   
    46   27   42 1   
    47   27   43 1   
    48   27   44 1   
@<TRIPOS>SUBSTRUCTURE
     1 J8Z         1 TEMP              0 ****  ****    0 ROOT
