@<TRIPOS>MOLECULE
J90
   33    34     1     0     0
SMALL
bcc


@<TRIPOS>ATOM
      1 N1          5.5590   -1.2110    0.0170 n         1 J90     -0.490400
      2 C2          4.5850   -2.1310    0.2930 cc        1 J90      0.558800
      3 N3          3.2850   -1.9110    0.2860 nd        1 J90     -0.699300
      4 C4          2.8230   -0.6130   -0.0230 cd        1 J90      0.507600
      5 C5          3.7680    0.4200   -0.3190 cc        1 J90     -0.464300
      6 C6          5.2040    0.1260   -0.3230 c         1 J90      0.728700
      7 N7          1.4780   -0.4060   -0.0040 nh        1 J90     -0.718000
      8 C8         -0.9020   -0.9750    0.2450 ca        1 J90     -0.054300
      9 C9         -1.3870   -0.2370   -0.8390 ca        1 J90     -0.144500
     10 C10        -2.7240    0.1500   -0.8730 ca        1 J90     -0.015500
     11 C11        -3.6000   -0.1960    0.1610 ca        1 J90     -0.369500
     12 C12        -3.1010   -0.9270    1.2450 ca        1 J90     -0.015500
     13 C13        -1.7650   -1.3130    1.2940 ca        1 J90     -0.144500
     14 S14        -5.2250    0.2920    0.1240 sy        1 J90      1.525200
     15 O15        -5.7000    0.3290    1.4510 o         1 J90     -0.653800
     16 O16        -5.3140    1.4690   -0.6460 o         1 J90     -0.653800
     17 N17        -5.9430   -0.9050   -0.6600 n3        1 J90     -1.027700
     18 N18         3.3940    1.7970   -0.6280 no        1 J90      0.335100
     19 O19         2.2460    2.0560   -0.9240 o         1 J90     -0.225500
     20 O20         4.2240    2.6610   -0.5870 o         1 J90     -0.225500
     21 O21         6.1270    0.9010   -0.6020 o         1 J90     -0.567500
     22 C22         0.5220   -1.4510    0.2900 c3        1 J90      0.251100
     23 HN1         6.5260   -1.4530    0.0390 hn        1 J90      0.349500
     24 H2          4.9120   -3.1660    0.5480 h5        1 J90      0.064800
     25 HN7         1.1160    0.5020   -0.2290 hn        1 J90      0.491800
     26 H9         -0.7210    0.0410   -1.6710 ha        1 J90      0.147500
     27 H10        -3.0960    0.7570   -1.7180 ha        1 J90      0.158500
     28 H12        -3.7760   -1.1790    2.0830 ha        1 J90      0.158500
     29 H13        -1.3900   -1.8800    2.1590 ha        1 J90      0.147500
     30 HN17       -6.3320   -1.6970   -0.2140 hn        1 J90      0.448800
     31 HN1A       -6.0770   -0.9150   -1.6400 hn        1 J90      0.448800
     32 H22         0.6380   -2.2870   -0.4640 h1        1 J90      0.073700
     33 H22A        0.7470   -1.8800    1.3110 h1        1 J90      0.073700
@<TRIPOS>BOND
     1    1    2 1   
     2    1    6 1   
     3    1   23 1   
     4    2    3 2   
     5    2   24 1   
     6    3    4 1   
     7    4    5 2   
     8    4    7 1   
     9    5    6 1   
    10    5   18 1   
    11    6   21 2   
    12    7   22 1   
    13    7   25 1   
    14    8    9 ar  
    15    8   13 ar  
    16    8   22 1   
    17    9   10 ar  
    18    9   26 1   
    19   10   11 ar  
    20   10   27 1   
    21   11   12 ar  
    22   11   14 1   
    23   12   13 ar  
    24   12   28 1   
    25   13   29 1   
    26   14   15 2   
    27   14   16 2   
    28   14   17 1   
    29   17   30 1   
    30   17   31 1   
    31   18   19 1   
    32   18   20 1   
    33   22   32 1   
    34   22   33 1   
@<TRIPOS>SUBSTRUCTURE
     1 J90         1 TEMP              0 ****  ****    0 ROOT
