@<TRIPOS>MOLECULE
J90
   33    34     1     0     0
SMALL
bcc


@<TRIPOS>ATOM
      1 N1          0.0250   -0.0040   -0.0780 n         1 J90     -0.490400
      2 C2          1.3590    0.2770    0.0350 cc        1 J90      0.558800
      3 N3          2.0630    0.2690    1.1500 nd        1 J90     -0.699300
      4 C4          1.4050   -0.0450    2.3600 cd        1 J90      0.507600
      5 C5          0.0060   -0.3470    2.3440 cc        1 J90     -0.464300
      6 C6         -0.7320   -0.3510    1.0780 c         1 J90      0.728700
      7 N7          2.1480   -0.0260    3.5000 nh        1 J90     -0.718000
      8 C8          4.1580    0.2270    4.8940 ca        1 J90     -0.054300
      9 C9          3.9370   -0.8610    5.7440 ca        1 J90     -0.144500
     10 C10         4.5400   -0.8960    6.9990 ca        1 J90     -0.015500
     11 C11         5.3790    0.1400    7.4230 ca        1 J90     -0.369500
     12 C12         5.5850    1.2280    6.5680 ca        1 J90     -0.015500
     13 C13         4.9820    1.2770    5.3140 ca        1 J90     -0.144500
     14 S14         6.0990    0.1010    8.9600 sy        1 J90      1.525200
     15 O15         6.3830    1.4290    9.3420 o         1 J90     -0.653800
     16 O16         5.2840   -0.6750    9.8090 o         1 J90     -0.653800
     17 N17         7.4730   -0.6760    8.6940 n3        1 J90     -1.027700
     18 N18        -0.7680   -0.6640    3.5400 no        1 J90      0.335100
     19 O19        -0.1950   -0.9600    4.5670 o         1 J90     -0.225500
     20 O20        -1.9660   -0.6270    3.4980 o         1 J90     -0.225500
     21 O21        -1.9240   -0.6340    0.9060 o         1 J90     -0.567500
     22 C22         3.5630    0.2730    3.5160 c3        1 J90      0.251100
     23 HN1        -0.4400    0.0180   -0.9600 hn        1 J90      0.349500
     24 H2          1.9110    0.5370   -0.8980 h5        1 J90      0.064800
     25 HN7         1.7140   -0.2560    4.3750 hn        1 J90      0.491800
     26 H9          3.2880   -1.6950    5.4310 ha        1 J90      0.147500
     27 H10         4.3400   -1.7440    7.6780 ha        1 J90      0.158500
     28 H12         6.2200    2.0670    6.9040 ha        1 J90      0.158500
     29 H13         5.1500    2.1460    4.6590 ha        1 J90      0.147500
     30 HN17        7.5730   -1.6560    8.7840 hn        1 J90      0.448800
     31 HN1A        8.3200   -0.2260    8.4560 hn        1 J90      0.448800
     32 H22         4.1110   -0.4770    2.8700 h1        1 J90      0.073700
     33 H22A        3.7280    1.2960    3.0650 h1        1 J90      0.073700
@<TRIPOS>BOND
     1    1    2 1   
     2    1    6 1   
     3    1   23 1   
     4    2    3 2   
     5    2   24 1   
     6    3    4 1   
     7    4    5 2   
     8    4    7 1   
     9    5    6 1   
    10    5   18 1   
    11    6   21 2   
    12    7   22 1   
    13    7   25 1   
    14    8    9 ar  
    15    8   13 ar  
    16    8   22 1   
    17    9   10 ar  
    18    9   26 1   
    19   10   11 ar  
    20   10   27 1   
    21   11   12 ar  
    22   11   14 1   
    23   12   13 ar  
    24   12   28 1   
    25   13   29 1   
    26   14   15 2   
    27   14   16 2   
    28   14   17 1   
    29   17   30 1   
    30   17   31 1   
    31   18   19 1   
    32   18   20 1   
    33   22   32 1   
    34   22   33 1   
@<TRIPOS>SUBSTRUCTURE
     1 J90         1 TEMP              0 ****  ****    0 ROOT
