@<TRIPOS>MOLECULE
J94
   48    50     1     0     0
SMALL
bcc


@<TRIPOS>ATOM
      1 C01        -2.6230   -1.2530    1.6520 c3        1 J94     -0.189500
      2 N02        -1.1570   -1.3520    1.6930 n4        1 J94      0.028000
      3 C03        -0.7820   -2.6560    1.1300 c3        1 J94     -0.189500
      4 C04        -0.7730   -1.3480    3.0240 c3        1 J94     -0.114000
      5 C05         0.5940   -1.3560    3.3150 c3        1 J94     -0.143000
      6 C06         1.5050   -0.6860    2.3710 c2        1 J94     -0.070000
      7 C07         0.9700   -0.1140    1.1830 c2        1 J94     -0.115000
      8 C08         1.8030    0.5760    0.3020 c1        1 J94     -0.106000
      9 C09         3.1810    0.7060    0.5900 c1        1 J94      0.034000
     10 O10         4.2430    1.2610   -0.1360 o         1 J94     -0.204000
     11 C11         5.4190    1.0500    0.5930 c3        1 J94      0.098000
     12 O12         5.0750    0.4260    1.8050 os        1 J94     -0.196000
     13 C13         3.7100    0.1390    1.7670 c2        1 J94      0.054000
     14 C14         2.8630   -0.5590    2.6570 c2        1 J94     -0.106000
     15 C15        -0.6250   -0.3340    0.8250 c3        1 J94      0.009000
     16 C16        -0.7620   -0.7390   -0.5480 c3        1 J94      0.062000
     17 O17         0.5380   -0.9160   -1.1350 os        1 J94     -0.282000
     18 C18         0.6180   -0.0670   -2.3070 c2        1 J94      0.369000
     19 O19         1.5450   -0.0410   -3.1190 o         1 J94     -0.220000
     20 C20        -0.7110    0.6910   -2.4340 c2        1 J94     -0.145000
     21 C21        -1.2350    1.5280   -3.4640 c2        1 J94      0.123000
     22 O22        -0.6190    2.1380   -4.6090 os        1 J94     -0.181000
     23 C23        -1.5650    2.9940   -5.2080 c3        1 J94      0.096000
     24 O24        -2.7740    2.8660   -4.5040 os        1 J94     -0.196000
     25 C25        -2.5400    2.0080   -3.3740 c2        1 J94      0.030000
     26 C26        -3.3490    1.6630   -2.2550 c2        1 J94     -0.091000
     27 C27        -2.8360    0.8460   -1.2520 c1        1 J94     -0.104000
     28 C28        -1.4990    0.3550   -1.3450 c1        1 J94     -0.124000
     29 H1         -2.9550   -1.4970    0.7180 hx        1 J94      0.142500
     30 H2         -3.0270   -1.8960    2.3360 hx        1 J94      0.142500
     31 H3         -2.8930   -0.3380    1.8640 hx        1 J94      0.142500
     32 H4         -0.8430   -3.3460    1.8330 hx        1 J94      0.142500
     33 H5          0.0920   -2.6170    0.8060 hx        1 J94      0.142500
     34 H6         -1.4100   -2.8890    0.3740 hx        1 J94      0.142500
     35 H7         -1.1680   -0.5360    3.4500 hx        1 J94      0.138500
     36 H8          0.8830   -2.3080    3.3900 hc        1 J94      0.134000
     37 H9          1.4230    1.0590   -0.4320 ha        1 J94      0.170000
     38 H10         5.8340    1.8670    0.7650 h2        1 J94      0.134000
     39 H11         5.9960    0.4990    0.1070 h2        1 J94      0.134000
     40 H12         3.2410   -1.0140    3.4390 ha        1 J94      0.174000
     41 H13        -1.0990    0.4810    0.9650 hx        1 J94      0.139000
     42 H14        -1.2550   -1.5620   -0.5960 h1        1 J94      0.117000
     43 H15        -1.2480    3.9310   -5.1590 h2        1 J94      0.139500
     44 H16        -1.7040    2.7250   -6.1880 h2        1 J94      0.139500
     45 H17        -4.2040    2.0840   -2.1360 ha        1 J94      0.180000
     46 H18        -3.4200    0.5840   -0.4590 ha        1 J94      0.147000
     47 H19        -1.1770   -2.1410    3.4540 hx        1 J94      0.138500
     48 H20         0.7200   -0.9070    4.2500 hc        1 J94      0.134000
@<TRIPOS>BOND
     1    1    2 1   
     2    1   29 1   
     3    1   30 1   
     4    1   31 1   
     5    2    3 1   
     6    2    4 1   
     7    2   15 1   
     8    3   32 1   
     9    3   33 1   
    10    3   34 1   
    11    4    5 1   
    12    4   35 1   
    13    4   47 1   
    14    5    6 1   
    15    5   36 1   
    16    5   48 1   
    17    6    7 1   
    18    6   14 1   
    19    7    8 1   
    20    7   15 1   
    21    8   37 1   
    22    9   13 1   
    23   10   11 1   
    24   11   12 1   
    25   11   38 1   
    26   11   39 1   
    27   12   13 1   
    28   13   14 1   
    29   14   40 1   
    30   15   16 1   
    31   15   41 1   
    32   16   17 1   
    33   16   28 1   
    34   16   42 1   
    35   17   18 1   
    36   18   19 1   
    37   18   20 1   
    38   20   21 1   
    39   20   28 1   
    40   21   22 1   
    41   21   25 1   
    42   22   23 1   
    43   23   24 1   
    44   23   43 1   
    45   23   44 1   
    46   24   25 1   
    47   25   26 1   
    48   26   27 1   
    49   26   45 1   
    50   27   46 1   
@<TRIPOS>SUBSTRUCTURE
     1 J94         1 TEMP              0 ****  ****    0 ROOT
