@<TRIPOS>MOLECULE
J94
   48    53     1     0     0
SMALL
bcc


@<TRIPOS>ATOM
      1 C01         0.0360    0.3290    0.3730 c3        1 J94      0.086600
      2 N02         1.4560    0.0100    0.0390 n4        1 J94     -0.604800
      3 C03         1.4990   -1.2290   -0.7950 c3        1 J94      0.086600
      4 C04         2.1850   -0.2450    1.3330 c3        1 J94      0.122800
      5 C05         3.6350   -0.6350    1.1080 c3        1 J94     -0.057100
      6 C06         4.3200    0.3910    0.2790 ca        1 J94     -0.077300
      7 C07         3.5900    1.2770   -0.5220 ca        1 J94     -0.122300
      8 C08         4.2420    2.3530   -1.1730 ca        1 J94     -0.106000
      9 C09         5.6110    2.4220   -1.0550 ca        1 J94      0.079100
     10 O10         6.4780    3.3540   -1.6010 os        1 J94     -0.320900
     11 C11         7.8180    2.9730   -1.1920 c3        1 J94      0.320200
     12 O12         7.6990    1.7880   -0.3600 os        1 J94     -0.312900
     13 C13         6.3540    1.4750   -0.2950 ca        1 J94      0.099100
     14 C14         5.7270    0.4600    0.3900 ca        1 J94     -0.106000
     15 C15         2.0910    1.1980   -0.6910 c3        1 J94      0.213800
     16 C16         1.6110    1.2180   -2.1680 c3        1 J94      0.180400
     17 O17         2.3230    0.2220   -2.9300 os        1 J94     -0.443900
     18 C18         2.8820    0.8040   -4.0900 c         1 J94      0.755200
     19 O19         3.4920    0.0300   -4.8040 o         1 J94     -0.495500
     20 C20         2.5410    2.2290   -4.0960 ca        1 J94     -0.165600
     21 C21         2.7680    3.2620   -4.9620 ca        1 J94      0.168100
     22 O22         3.4370    3.3000   -6.1630 os        1 J94     -0.297900
     23 C23         3.3580    4.6680   -6.6550 c3        1 J94      0.318200
     24 O24         2.6100    5.4360   -5.6780 os        1 J94     -0.312900
     25 C25         2.2550    4.5710   -4.6570 ca        1 J94      0.075100
     26 C26         1.5330    4.8460   -3.5200 ca        1 J94     -0.091000
     27 C27         1.2980    3.7720   -2.6220 ca        1 J94     -0.104000
     28 C28         1.7910    2.5190   -2.9030 ca        1 J94     -0.131300
     29 H1         -0.5380    0.5630   -0.5610 hx        1 J94      0.103200
     30 H2         -0.4300   -0.5610    0.8750 hx        1 J94      0.103200
     31 H3         -0.0010    1.2100    1.0670 hx        1 J94      0.103200
     32 H4          0.7490   -1.1580   -1.6280 hx        1 J94      0.103200
     33 H5          1.2600   -2.1160   -0.1520 hx        1 J94      0.103200
     34 H6          2.5240   -1.3380   -1.2460 hx        1 J94      0.103200
     35 H7          2.1330    0.7010    1.9450 hx        1 J94      0.099200
     36 H8          4.1270   -0.7120    2.1180 hc        1 J94      0.094700
     37 H9          3.6910    3.1100   -1.7470 ha        1 J94      0.170000
     38 H10         8.2490    3.7980   -0.5740 h2        1 J94      0.094700
     39 H11         8.4080    2.7090   -2.1040 h2        1 J94      0.094700
     40 H12         6.2860   -0.2610    1.0030 ha        1 J94      0.174000
     41 H13         1.6560    2.1270   -0.2020 hx        1 J94      0.099700
     42 H14         0.5190    0.9350   -2.2270 h1        1 J94      0.077700
     43 H15         4.3950    5.0800   -6.7170 h2        1 J94      0.100200
     44 H16         2.7910    4.6630   -7.6190 h2        1 J94      0.100200
     45 H17         1.1450    5.8530   -3.3080 ha        1 J94      0.180000
     46 H18         0.7170    3.9680   -1.7100 ha        1 J94      0.147000
     47 H19         1.6410   -1.0660    1.8820 hx        1 J94      0.099200
     48 H20         3.7150   -1.6480    0.6260 hc        1 J94      0.094700
@<TRIPOS>BOND
     1    1    2 1   
     2    1   29 1   
     3    1   30 1   
     4    1   31 1   
     5    2    3 1   
     6    2    4 1   
     7    2   15 1   
     8    3   32 1   
     9    3   33 1   
    10    3   34 1   
    11    4    5 1   
    12    4   35 1   
    13    4   47 1   
    14    5    6 1   
    15    5   36 1   
    16    5   48 1   
    17    6    7 ar  
    18    6   14 ar  
    19    7    8 ar  
    20    7   15 1   
    21    8    9 ar  
    22    8   37 1   
    23    9   10 1   
    24    9   13 ar  
    25   10   11 1   
    26   11   12 1   
    27   11   38 1   
    28   11   39 1   
    29   12   13 1   
    30   13   14 ar  
    31   14   40 1   
    32   15   16 1   
    33   15   41 1   
    34   16   17 1   
    35   16   28 1   
    36   16   42 1   
    37   17   18 1   
    38   18   19 2   
    39   18   20 1   
    40   20   21 ar  
    41   20   28 ar  
    42   21   22 1   
    43   21   25 ar  
    44   22   23 1   
    45   23   24 1   
    46   23   43 1   
    47   23   44 1   
    48   24   25 1   
    49   25   26 ar  
    50   26   27 ar  
    51   26   45 1   
    52   27   28 ar  
    53   27   46 1   
@<TRIPOS>SUBSTRUCTURE
     1 J94         1 TEMP              0 ****  ****    0 ROOT
