@<TRIPOS>MOLECULE
J94
   48    53     1     0     0
SMALL
bcc


@<TRIPOS>ATOM
      1 C01         0.0350    0.3250    0.3700 c3        1 J94      0.086600
      2 N02         1.4560    0.0070    0.0360 n4        1 J94     -0.604800
      3 C03         1.4990   -1.2310   -0.8000 c3        1 J94      0.086600
      4 C04         2.1840   -0.2490    1.3300 c3        1 J94      0.122800
      5 C05         3.6340   -0.6390    1.1050 c3        1 J94     -0.057100
      6 C06         4.3190    0.3880    0.2780 ca        1 J94     -0.077300
      7 C07         3.5890    1.2750   -0.5230 ca        1 J94     -0.122300
      8 C08         4.2410    2.3520   -1.1720 ca        1 J94     -0.106000
      9 C09         5.6100    2.4220   -1.0530 ca        1 J94      0.079100
     10 O10         6.4770    3.3550   -1.5970 os        1 J94     -0.320900
     11 C11         7.8170    2.9740   -1.1870 c3        1 J94      0.320200
     12 O12         7.6980    1.7880   -0.3570 os        1 J94     -0.312900
     13 C13         6.3530    1.4740   -0.2940 ca        1 J94      0.099100
     14 C14         5.7260    0.4580    0.3900 ca        1 J94     -0.106000
     15 C15         2.0910    1.1960   -0.6920 c3        1 J94      0.213800
     16 C16         1.6110    1.2180   -2.1690 c3        1 J94      0.180400
     17 O17         2.3240    0.2230   -2.9330 os        1 J94     -0.443900
     18 C18         2.8830    0.8070   -4.0920 c         1 J94      0.755200
     19 O19         3.4940    0.0350   -4.8060 o         1 J94     -0.495500
     20 C20         2.5420    2.2330   -4.0950 ca        1 J94     -0.165600
     21 C21         2.7690    3.2660   -4.9600 ca        1 J94      0.168100
     22 O22         3.4390    3.3070   -6.1610 os        1 J94     -0.297900
     23 C23         3.3590    4.6750   -6.6510 c3        1 J94      0.318200
     24 O24         2.6100    5.4410   -5.6730 os        1 J94     -0.312900
     25 C25         2.2560    4.5750   -4.6530 ca        1 J94      0.075100
     26 C26         1.5330    4.8480   -3.5160 ca        1 J94     -0.091000
     27 C27         1.2980    3.7730   -2.6200 ca        1 J94     -0.104000
     28 C28         1.7910    2.5200   -2.9030 ca        1 J94     -0.131300
     29 H1         -0.4300   -0.5660    0.8700 hx        1 J94      0.103200
     30 H2         -0.0030    1.2050    1.0650 hx        1 J94      0.103200
     31 H3         -0.5390    0.5600   -0.5650 hx        1 J94      0.103200
     32 H4          1.2610   -2.1190   -0.1590 hx        1 J94      0.103200
     33 H5          0.7500   -1.1590   -1.6340 hx        1 J94      0.103200
     34 H6          2.5250   -1.3390   -1.2510 hx        1 J94      0.103200
     35 H7          2.1310    0.6950    1.9430 hx        1 J94      0.099200
     36 H8          4.1250   -0.7170    2.1150 hc        1 J94      0.094700
     37 H9          3.6900    3.1100   -1.7440 ha        1 J94      0.170000
     38 H10         8.4080    2.7110   -2.0990 h2        1 J94      0.094700
     39 H11         8.2480    3.7980   -0.5680 h2        1 J94      0.094700
     40 H12         6.2850   -0.2640    1.0020 ha        1 J94      0.174000
     41 H13         1.6550    2.1240   -0.2020 hx        1 J94      0.099700
     42 H14         0.5190    0.9350   -2.2290 h1        1 J94      0.077700
     43 H15         2.7930    4.6720   -7.6140 h2        1 J94      0.100200
     44 H16         4.3960    5.0880   -6.7120 h2        1 J94      0.100200
     45 H17         1.1450    5.8550   -3.3030 ha        1 J94      0.180000
     46 H18         0.7160    3.9680   -1.7080 ha        1 J94      0.147000
     47 H19         1.6400   -1.0710    1.8770 hx        1 J94      0.099200
     48 H20         3.7150   -1.6510    0.6220 hc        1 J94      0.094700
@<TRIPOS>BOND
     1    1    2 1   
     2    1   29 1   
     3    1   30 1   
     4    1   31 1   
     5    2    3 1   
     6    2    4 1   
     7    2   15 1   
     8    3   32 1   
     9    3   33 1   
    10    3   34 1   
    11    4    5 1   
    12    4   35 1   
    13    4   47 1   
    14    5    6 1   
    15    5   36 1   
    16    5   48 1   
    17    6    7 ar  
    18    6   14 ar  
    19    7    8 ar  
    20    7   15 1   
    21    8    9 ar  
    22    8   37 1   
    23    9   10 1   
    24    9   13 ar  
    25   10   11 1   
    26   11   12 1   
    27   11   38 1   
    28   11   39 1   
    29   12   13 1   
    30   13   14 ar  
    31   14   40 1   
    32   15   16 1   
    33   15   41 1   
    34   16   17 1   
    35   16   28 1   
    36   16   42 1   
    37   17   18 1   
    38   18   19 2   
    39   18   20 1   
    40   20   21 ar  
    41   20   28 ar  
    42   21   22 1   
    43   21   25 ar  
    44   22   23 1   
    45   23   24 1   
    46   23   43 1   
    47   23   44 1   
    48   24   25 1   
    49   25   26 ar  
    50   26   27 ar  
    51   26   45 1   
    52   27   28 ar  
    53   27   46 1   
@<TRIPOS>SUBSTRUCTURE
     1 J94         1 TEMP              0 ****  ****    0 ROOT
