@<TRIPOS>MOLECULE
J94
   48    53     1     0     0
SMALL
bcc


@<TRIPOS>ATOM
      1 C01        -2.9250    3.3030    0.7740 c3        1 J94      0.086600
      2 N02        -2.8570    1.9700    0.1040 n4        1 J94     -0.604800
      3 C03        -2.9570    2.1580   -1.3750 c3        1 J94      0.086600
      4 C04        -4.0350    1.1590    0.5770 c3        1 J94      0.122800
      5 C05        -4.0970   -0.2040   -0.0890 c3        1 J94     -0.057100
      6 C06        -2.8130   -0.9280    0.1040 ca        1 J94     -0.077300
      7 C07        -1.6370   -0.2390    0.4220 ca        1 J94     -0.122300
      8 C08        -0.4630   -0.9530    0.7670 ca        1 J94     -0.106000
      9 C09        -0.5140   -2.3250    0.6810 ca        1 J94      0.079100
     10 O10         0.4890   -3.2440    0.9440 os        1 J94     -0.320900
     11 C11        -0.0690   -4.5610    0.6880 c3        1 J94      0.320200
     12 O12        -1.4520   -4.3770    0.2860 os        1 J94     -0.312900
     13 C13        -1.6950   -3.0160    0.2880 ca        1 J94      0.099100
     14 C14        -2.8590   -2.3380    0.0080 ca        1 J94     -0.106000
     15 C15        -1.5520    1.2670    0.4900 c3        1 J94      0.213800
     16 C16        -0.3730    1.8790   -0.3150 c3        1 J94      0.180400
     17 O17        -0.3820    1.3690   -1.6640 os        1 J94     -0.443900
     18 C18         0.8920    0.8560   -1.9990 c         1 J94      0.755200
     19 O19         0.9810    0.4150   -3.1290 o         1 J94     -0.495500
     20 C20         1.7700    1.0180   -0.8370 ca        1 J94     -0.165600
     21 C21         3.0880    0.7500   -0.5920 ca        1 J94      0.168100
     22 O22         4.0600    0.1980   -1.3920 os        1 J94     -0.297900
     23 C23         5.2870    0.1570   -0.6110 c3        1 J94      0.318200
     24 O24         4.9860    0.7090    0.6950 os        1 J94     -0.312900
     25 C25         3.6500    1.0690    0.6940 ca        1 J94      0.075100
     26 C26         2.9210    1.6410    1.7100 ca        1 J94     -0.091000
     27 C27         1.5530    1.9190    1.4510 ca        1 J94     -0.104000
     28 C28         1.0060    1.6120    0.2270 ca        1 J94     -0.131300
     29 H1         -2.0430    3.9300    0.4800 hx        1 J94      0.103200
     30 H2         -3.8670    3.8240    0.4560 hx        1 J94      0.103200
     31 H3         -2.9330    3.1660    1.8890 hx        1 J94      0.103200
     32 H4         -2.2560    2.9690   -1.7090 hx        1 J94      0.103200
     33 H5         -2.6680    1.2010   -1.8920 hx        1 J94      0.103200
     34 H6         -4.0100    2.4410   -1.6410 hx        1 J94      0.103200
     35 H7         -3.9380    1.0370    1.6930 hx        1 J94      0.099200
     36 H8         -4.9420   -0.7760    0.3880 hc        1 J94      0.094700
     37 H9          0.4550   -0.4470    1.0960 ha        1 J94      0.170000
     38 H10         0.4900   -5.0250   -0.1620 h2        1 J94      0.094700
     39 H11        -0.0510   -5.1460    1.6400 h2        1 J94      0.094700
     40 H12        -3.7860   -2.8600   -0.2700 ha        1 J94      0.174000
     41 H13        -1.3680    1.5380    1.5790 hx        1 J94      0.099700
     42 H14        -0.4990    2.9980   -0.4020 h1        1 J94      0.077700
     43 H15         5.5890   -0.9130   -0.4870 h2        1 J94      0.100200
     44 H16         6.0450    0.8080   -1.1110 h2        1 J94      0.100200
     45 H17         3.3710    1.8810    2.6840 ha        1 J94      0.180000
     46 H18         0.9520    2.3830    2.2480 ha        1 J94      0.147000
     47 H19        -4.9720    1.7440    0.3520 hx        1 J94      0.099200
     48 H20        -4.3370   -0.1150   -1.1830 hc        1 J94      0.094700
@<TRIPOS>BOND
     1    1    2 1   
     2    1   29 1   
     3    1   30 1   
     4    1   31 1   
     5    2    3 1   
     6    2    4 1   
     7    2   15 1   
     8    3   32 1   
     9    3   33 1   
    10    3   34 1   
    11    4    5 1   
    12    4   35 1   
    13    4   47 1   
    14    5    6 1   
    15    5   36 1   
    16    5   48 1   
    17    6    7 ar  
    18    6   14 ar  
    19    7    8 ar  
    20    7   15 1   
    21    8    9 ar  
    22    8   37 1   
    23    9   10 1   
    24    9   13 ar  
    25   10   11 1   
    26   11   12 1   
    27   11   38 1   
    28   11   39 1   
    29   12   13 1   
    30   13   14 ar  
    31   14   40 1   
    32   15   16 1   
    33   15   41 1   
    34   16   17 1   
    35   16   28 1   
    36   16   42 1   
    37   17   18 1   
    38   18   19 2   
    39   18   20 1   
    40   20   21 ar  
    41   20   28 ar  
    42   21   22 1   
    43   21   25 ar  
    44   22   23 1   
    45   23   24 1   
    46   23   43 1   
    47   23   44 1   
    48   24   25 1   
    49   25   26 ar  
    50   26   27 ar  
    51   26   45 1   
    52   27   28 ar  
    53   27   46 1   
@<TRIPOS>SUBSTRUCTURE
     1 J94         1 TEMP              0 ****  ****    0 ROOT
