@<TRIPOS>MOLECULE
J94
   48    53     1     0     0
SMALL
bcc


@<TRIPOS>ATOM
      1 C01         0.0320    0.3290    0.3670 c3        1 J94      0.086600
      2 N02         1.4530    0.0100    0.0360 n4        1 J94     -0.604800
      3 C03         1.4970   -1.2290   -0.7990 c3        1 J94      0.086600
      4 C04         2.1790   -0.2460    1.3310 c3        1 J94      0.122800
      5 C05         3.6290   -0.6360    1.1080 c3        1 J94     -0.057100
      6 C06         4.3160    0.3910    0.2810 ca        1 J94     -0.077300
      7 C07         3.5870    1.2770   -0.5210 ca        1 J94     -0.122300
      8 C08         4.2400    2.3530   -1.1710 ca        1 J94     -0.106000
      9 C09         5.6090    2.4230   -1.0500 ca        1 J94      0.079100
     10 O10         6.4770    3.3560   -1.5930 os        1 J94     -0.320900
     11 C11         7.8160    2.9750   -1.1810 c3        1 J94      0.320200
     12 O12         7.6960    1.7900   -0.3500 os        1 J94     -0.312900
     13 C13         6.3510    1.4760   -0.2880 ca        1 J94      0.099100
     14 C14         5.7230    0.4600    0.3950 ca        1 J94     -0.106000
     15 C15         2.0890    1.1980   -0.6930 c3        1 J94      0.213800
     16 C16         1.6120    1.2180   -2.1710 c3        1 J94      0.180400
     17 O17         2.3260    0.2220   -2.9320 os        1 J94     -0.443900
     18 C18         2.8870    0.8030   -4.0910 c         1 J94      0.756200
     19 O19         3.4990    0.0300   -4.8030 o         1 J94     -0.495500
     20 C20         2.5460    2.2290   -4.0970 ca        1 J94     -0.165600
     21 C21         2.7750    3.2610   -4.9630 ca        1 J94      0.168100
     22 O22         3.4470    3.3000   -6.1620 os        1 J94     -0.297900
     23 C23         3.3680    4.6670   -6.6540 c3        1 J94      0.318200
     24 O24         2.6180    5.4350   -5.6800 os        1 J94     -0.312900
     25 C25         2.2610    4.5710   -4.6590 ca        1 J94      0.075100
     26 C26         1.5360    4.8460   -3.5240 ca        1 J94     -0.091000
     27 C27         1.3000    3.7720   -2.6270 ca        1 J94     -0.104000
     28 C28         1.7930    2.5190   -2.9060 ca        1 J94     -0.131300
     29 H1         -0.5400    0.5630   -0.5680 hx        1 J94      0.103200
     30 H2         -0.4350   -0.5620    0.8680 hx        1 J94      0.103200
     31 H3         -0.0060    1.2100    1.0620 hx        1 J94      0.103200
     32 H4          2.5230   -1.3390   -1.2480 hx        1 J94      0.103200
     33 H5          0.7490   -1.1580   -1.6330 hx        1 J94      0.103200
     34 H6          1.2570   -2.1160   -0.1560 hx        1 J94      0.103200
     35 H7          2.1260    0.7000    1.9430 hx        1 J94      0.099200
     36 H8          3.7110   -1.6480    0.6260 hc        1 J94      0.094700
     37 H9          3.6900    3.1110   -1.7450 ha        1 J94      0.170000
     38 H10         8.4090    2.7110   -2.0920 h2        1 J94      0.094700
     39 H11         8.2460    3.8000   -0.5610 h2        1 J94      0.094700
     40 H12         6.2810   -0.2610    1.0090 ha        1 J94      0.174000
     41 H13         1.6520    2.1270   -0.2050 hx        1 J94      0.099700
     42 H14         0.5200    0.9350   -2.2320 h1        1 J94      0.077700
     43 H15         2.8030    4.6620   -7.6200 h2        1 J94      0.100200
     44 H16         4.4050    5.0800   -6.7150 h2        1 J94      0.100200
     45 H17         1.1480    5.8530   -3.3130 ha        1 J94      0.180000
     46 H18         0.7160    3.9680   -1.7150 ha        1 J94      0.147000
     47 H19         1.6350   -1.0670    1.8790 hx        1 J94      0.099200
     48 H20         4.1190   -0.7130    2.1190 hc        1 J94      0.094700
@<TRIPOS>BOND
     1    1    2 1   
     2    1   29 1   
     3    1   30 1   
     4    1   31 1   
     5    2    3 1   
     6    2    4 1   
     7    2   15 1   
     8    3   32 1   
     9    3   33 1   
    10    3   34 1   
    11    4    5 1   
    12    4   35 1   
    13    4   47 1   
    14    5    6 1   
    15    5   36 1   
    16    5   48 1   
    17    6    7 ar  
    18    6   14 ar  
    19    7    8 ar  
    20    7   15 1   
    21    8    9 ar  
    22    8   37 1   
    23    9   10 1   
    24    9   13 ar  
    25   10   11 1   
    26   11   12 1   
    27   11   38 1   
    28   11   39 1   
    29   12   13 1   
    30   13   14 ar  
    31   14   40 1   
    32   15   16 1   
    33   15   41 1   
    34   16   17 1   
    35   16   28 1   
    36   16   42 1   
    37   17   18 1   
    38   18   19 2   
    39   18   20 1   
    40   20   21 ar  
    41   20   28 ar  
    42   21   22 1   
    43   21   25 ar  
    44   22   23 1   
    45   23   24 1   
    46   23   43 1   
    47   23   44 1   
    48   24   25 1   
    49   25   26 ar  
    50   26   27 ar  
    51   26   45 1   
    52   27   28 ar  
    53   27   46 1   
@<TRIPOS>SUBSTRUCTURE
     1 J94         1 TEMP              0 ****  ****    0 ROOT
