@<TRIPOS>MOLECULE
J99
   57    58     1     0     0
SMALL
bcc


@<TRIPOS>ATOM
      1 C          -1.0750   -0.7040    0.8060 c3        1 J99     -0.276000
      2 F           1.4240   -3.3920    4.0340 f         1 J99     -0.040000
      3 N          -0.1950    1.5830   -2.3690 n2        1 J99     -0.400000
      4 O           3.1030    1.5460   -0.7720 os        1 J99     -0.111000
      5 C1          3.8650    0.9370    0.0570 c1        1 J99      0.152000
      6 N1          1.9990    2.2020   -3.2070 n4        1 J99     -0.050000
      7 C2          1.7040    1.8280   -0.6490 cx        1 J99     -0.030000
      8 N2          1.1270    7.6330    0.8860 n2        1 J99     -0.141000
      9 C3          1.2130    3.1630   -0.9780 cu        1 J99     -0.342000
     10 N3          1.4000    6.8380    2.0350 n4        1 J99      0.051000
     11 C4          0.8640    4.4370   -0.8010 c2        1 J99      0.136000
     12 N4          1.0690    3.0630    2.6910 n4        1 J99      0.032000
     13 C5         -1.2750    1.1280   -2.5790 c1        1 J99      0.308000
     14 C6          1.0440    2.1170   -2.0310 cx        1 J99      0.113000
     15 C7          0.9880    5.3880    0.2290 c2        1 J99     -0.353000
     16 C8          0.8870    6.8270   -0.1420 c2        1 J99      0.100000
     17 C9          2.7620    7.0700    2.6160 c3        1 J99     -0.161000
     18 C10         1.2160    5.3650    1.6350 c2        1 J99      0.143000
     19 C11         1.1850    4.5030    2.6990 c2        1 J99     -0.372000
     20 C12        -0.1460    2.5930    1.9810 c3        1 J99     -0.200000
     21 C13         2.3770    2.4090    2.2310 c2        1 J99      0.279000
     22 C14         2.4760    0.9430    2.2290 c2        1 J99     -0.178000
     23 C15         1.7330    0.1230    3.0220 c2        1 J99      0.039000
     24 C16         1.8910   -1.2960    3.0620 c2        1 J99     -0.314000
     25 C17         1.2770   -2.0690    4.0040 c2        1 J99      0.171000
     26 C18         4.4970   -0.3930    1.9050 c1        1 J99      0.508000
     27 C19         3.5830    0.4650    1.3960 c2        1 J99     -0.517000
     28 C20         0.5390    7.3060   -1.5120 c3        1 J99     -0.090000
     29 C21        -0.4940    9.4890   -2.0750 c2        1 J99     -0.154000
     30 C22         0.5560    8.7830   -1.6610 c2        1 J99     -0.209000
     31 H          -0.1020   -0.7230    1.3480 hc        1 J99      0.069500
     32 HA         -1.0280    0.0330   -0.0260 hc        1 J99      0.069500
     33 HB         -1.8920   -0.4220    1.5060 hc        1 J99      0.069500
     34 H1         -1.2850   -1.7140    0.3900 hc        1 J99      0.069500
     35 HN1         2.1390    1.2740   -3.6200 hn        1 J99      0.267000
     36 HN1A        2.9010    2.5480   -2.8510 hn        1 J99      0.267000
     37 H3          1.1880    1.1680    0.0790 h1        1 J99      0.152000
     38 H5          0.3730    4.8700   -1.7120 ha        1 J99      0.146000
     39 H9          0.6910    7.0930    2.7430 hn        1 J99      0.268000
     40 H9A         3.5480    6.7340    1.8890 hx        1 J99      0.147000
     41 H9B         2.8890    8.1680    2.8250 hx        1 J99      0.147000
     42 H11         2.8450    6.4840    3.5680 hx        1 J99      0.147000
     43 H11A        1.3420    4.8800    3.7290 hx        1 J99      0.182000
     44 H12        -0.1760    3.0260    0.9460 hx        1 J99      0.146000
     45 H12A       -1.0530    2.9470    2.5450 hx        1 J99      0.146000
     46 H12B       -0.1490    1.4700    1.9250 hx        1 J99      0.146000
     47 H15         0.9670    0.5400    3.7030 ha        1 J99      0.126000
     48 H16         2.5350   -1.7770    2.3020 ha        1 J99      0.176000
     49 H18         0.6290   -1.6700    4.8100 h4        1 J99      0.166000
     50 H20         1.2890    6.8620   -2.2280 hc        1 J99      0.119500
     51 H21        -0.4790    6.8940   -1.7680 hc        1 J99      0.119500
     52 H21A       -0.4430   10.5800   -2.2060 ha        1 J99      0.133000
     53 H22        -1.4680    9.0390   -2.3160 ha        1 J99      0.133000
     54 H22A        1.5180    9.2680   -1.4270 ha        1 J99      0.146000
     55 O1          3.2690    3.1870    1.9210 o         1 J99     -0.168000
     56 H13         1.6380    2.8430   -3.9180 hn        1 J99      0.267000
     57 H41         0.9620    2.7840    3.6800 hn        1 J99      0.249000
@<TRIPOS>BOND
     1    1   31 1   
     2    1   32 1   
     3    1   33 1   
     4    1   34 1   
     5    2   25 1   
     6    3   13 1   
     7    3   14 1   
     8    4    5 1   
     9    4    7 1   
    10    5   27 1   
    11    6   14 1   
    12    6   35 1   
    13    6   36 1   
    14    6   56 1   
    15    7    9 1   
    16    7   14 1   
    17    7   37 1   
    18    8   10 1   
    19    8   16 1   
    20    9   11 1   
    21    9   14 1   
    22   10   17 1   
    23   10   18 1   
    24   10   39 1   
    25   11   15 1   
    26   11   38 1   
    27   12   19 1   
    28   12   20 1   
    29   12   21 1   
    30   12   57 1   
    31   15   16 1   
    32   15   18 1   
    33   16   28 1   
    34   17   40 1   
    35   17   41 1   
    36   17   42 1   
    37   18   19 1   
    38   19   43 1   
    39   20   44 1   
    40   20   45 1   
    41   20   46 1   
    42   21   22 1   
    43   21   55 1   
    44   22   23 1   
    45   22   27 1   
    46   23   24 1   
    47   23   47 1   
    48   24   25 1   
    49   24   48 1   
    50   25   49 1   
    51   26   27 1   
    52   28   30 1   
    53   28   50 1   
    54   28   51 1   
    55   29   30 1   
    56   29   52 1   
    57   29   53 1   
    58   30   54 1   
@<TRIPOS>SUBSTRUCTURE
     1 J99         1 TEMP              0 ****  ****    0 ROOT
