@<TRIPOS>MOLECULE
J99
   56    56     1     0     0
SMALL
bcc


@<TRIPOS>ATOM
      1 C          -2.0910   -1.5730    0.8520 c3        1 J99     -0.219000
      2 F           1.9150   -2.5560    1.1080 f         1 J99     -0.093000
      3 N           1.2920    3.0110   -3.1280 n2        1 J99     -0.429000
      4 O           3.4320    2.4270   -0.1700 os        1 J99     -0.112000
      5 C1          3.6300    1.7590    0.8970 c1        1 J99      0.184000
      6 N1          3.6140    2.8350   -2.8320 n8        1 J99     -0.215000
      7 C2          2.1270    2.5900   -0.8300 c3        1 J99     -0.054000
      8 N2          1.4910    8.1690    0.3950 n2        1 J99     -0.078000
      9 C3          1.3920    3.7370   -0.2290 c2        1 J99     -0.267000
     10 N3          2.3860    8.5520    1.2980 n2        1 J99     -0.127000
     11 C4          2.0130    4.7190    0.4410 c2        1 J99     -0.005000
     12 N4          1.6670    3.4580    2.9880 ns        1 J99     -0.387000
     13 C5          0.3030    3.1750   -3.7910 c1        1 J99      0.424000
     14 C6          2.3830    2.8240   -2.3300 c2        1 J99      0.397000
     15 C7          1.3670    5.8090    1.1640 c2        1 J99     -0.137000
     16 C8          0.9550    6.9830    0.3450 c2        1 J99     -0.012000
     17 C9          3.5850    8.9380    1.0290 c2        1 J99     -0.106000
     18 C10         1.2270    5.8450    2.4990 c2        1 J99     -0.102000
     19 C11         1.6080    4.8030    3.5000 c3        1 J99     -0.013000
     20 C12        -2.2420   -0.0810    0.9030 c3        1 J99     -0.219000
     21 C13         2.4330    2.4710    3.5750 c2        1 J99      0.310000
     22 C14         2.3180    1.1250    2.9190 c2        1 J99      0.050000
     23 C15         1.7750    0.0150    3.7400 c3        1 J99     -0.249000
     24 C16         1.5630   -1.2660    3.0950 c1        1 J99     -0.000000
     25 C17         1.5530   -1.3170    1.6120 c3        1 J99     -0.037000
     26 C18         2.2060   -0.1990    0.8760 c1        1 J99     -0.059000
     27 C19         2.6780    0.9230    1.6140 c2        1 J99     -0.315000
     28 C20        -0.2330    6.7430   -0.5550 c3        1 J99     -0.084000
     29 C21        -1.1150    7.9490   -2.5330 c2        1 J99     -0.189000
     30 C22        -0.1020    7.3690   -1.8940 c2        1 J99     -0.179000
     31 H          -1.2630    0.4120    1.1200 hc        1 J99      0.073500
     32 HA         -1.7390   -1.9730    1.8350 hc        1 J99      0.073500
     33 HB         -3.0710   -2.0570    0.6170 hc        1 J99      0.073500
     34 H1         -1.3600   -1.8750    0.0630 hc        1 J99      0.073500
     35 HN1         4.3960    2.6890   -2.2110 hn        1 J99      0.296500
     36 HN1A        3.8180    2.9730   -3.8040 hn        1 J99      0.296500
     37 H3          1.5580    1.6170   -0.7250 h1        1 J99      0.185000
     38 H5          3.1200    4.7350    0.5140 ha        1 J99      0.151000
     39 H9          0.8040    6.7530    2.9750 ha        1 J99      0.173000
     40 H9A         4.1520    9.3730    1.8730 h4        1 J99      0.136000
     41 H9B         4.1060    8.8930    0.0560 h4        1 J99      0.136000
     42 H11         2.6210    5.0710    3.9330 h1        1 J99      0.127500
     43 H11A        0.8620    4.8420    4.3510 h1        1 J99      0.127500
     44 H12         1.0000    3.2110    2.2950 hn        1 J99      0.225000
     45 H12A       -2.6200    0.3110   -0.0730 hc        1 J99      0.073500
     46 H12B       -2.9660    0.2160    1.7010 hc        1 J99      0.073500
     47 H15         0.8180    0.3020    4.2730 hc        1 J99      0.210500
     48 H16         2.5230   -0.1570    4.5890 hc        1 J99      0.210500
     49 H18         0.4260   -1.1670    1.3720 h1        1 J99      0.183000
     50 H20        -0.3660    5.6340   -0.6840 hc        1 J99      0.098500
     51 H21        -1.1480    7.1290   -0.0250 hc        1 J99      0.098500
     52 H21A       -0.9970    8.3990   -3.5280 ha        1 J99      0.123500
     53 H22        -2.1260    8.0240   -2.1080 ha        1 J99      0.123500
     54 H22A        0.9070    7.3370   -2.3360 ha        1 J99      0.115000
     55 O1          3.1690    2.6640    4.5530 o         1 J99     -0.290000
     56 H41         0.2960    3.6830   -0.3270 ha        1 J99      0.158000
@<TRIPOS>BOND
     1    1   20 1   
     2    1   32 1   
     3    1   33 1   
     4    1   34 1   
     5    2   25 1   
     6    3   13 1   
     7    3   14 1   
     8    4    5 1   
     9    4    7 1   
    10    5   27 1   
    11    6   14 1   
    12    6   35 1   
    13    6   36 1   
    14    7    9 1   
    15    7   14 1   
    16    7   37 1   
    17    8   10 1   
    18    8   16 1   
    19    9   11 1   
    20    9   56 1   
    21   10   17 1   
    22   11   15 1   
    23   11   38 1   
    24   12   19 1   
    25   12   21 1   
    26   12   44 1   
    27   15   16 1   
    28   15   18 1   
    29   16   28 1   
    30   17   40 1   
    31   17   41 1   
    32   18   19 1   
    33   18   39 1   
    34   19   42 1   
    35   19   43 1   
    36   20   31 1   
    37   20   45 1   
    38   20   46 1   
    39   21   22 1   
    40   21   55 1   
    41   22   23 1   
    42   22   27 1   
    43   23   24 1   
    44   23   47 1   
    45   23   48 1   
    46   24   25 1   
    47   25   26 1   
    48   25   49 1   
    49   26   27 1   
    50   28   30 1   
    51   28   50 1   
    52   28   51 1   
    53   29   30 1   
    54   29   52 1   
    55   29   53 1   
    56   30   54 1   
@<TRIPOS>SUBSTRUCTURE
     1 J99         1 TEMP              0 ****  ****    0 ROOT
