@<TRIPOS>MOLECULE
J9K
   63    64     1     0     0
SMALL
bcc


@<TRIPOS>ATOM
      1 C01         0.2950   -0.5990   -0.7760 c3        1 J9K     -0.130433
      2 C02         1.3100   -0.1840    0.2650 c3        1 J9K      0.204800
      3 C03         0.7020    0.0030    1.6370 c3        1 J9K     -0.130433
      4 C04         2.5150   -1.1100    0.2930 c3        1 J9K     -0.130433
      5 O05         1.9510    1.1020   -0.1670 os        1 J9K     -0.424900
      6 C06         1.2020    2.1990   -0.2930 c         1 J9K      0.640100
      7 O07        -0.0030    2.3340   -0.1400 o         1 J9K     -0.436000
      8 N08         2.0950    3.3450   -0.7110 n4        1 J9K     -0.652800
      9 C09         1.4760    4.7070   -0.5120 c3        1 J9K      0.143500
     10 C10         1.4780    5.5320   -1.7970 c3        1 J9K     -0.060300
     11 S11         0.7090    4.6180   -3.1060 ss        1 J9K     -0.267200
     12 C12         1.2110    5.4630   -4.5760 c3        1 J9K     -0.025300
     13 C13        -0.0110    5.9950   -5.2930 c3        1 J9K     -0.141400
     14 C14         0.3750    6.5450   -6.6390 c         1 J9K      0.533100
     15 O15         1.5000    6.6680   -7.0980 o         1 J9K     -0.395100
     16 N16        -0.7530    6.9980   -7.5320 n4        1 J9K     -0.687800
     17 C17        -1.0030    8.4830   -7.3990 c3        1 J9K      0.196100
     18 C18        -1.9960    8.9410   -8.3980 ca        1 J9K     -0.336600
     19 C19        -3.3450    9.1310   -8.0570 ca        1 J9K     -0.055000
     20 C20        -4.2210    9.6170   -9.0230 ca        1 J9K     -0.231300
     21 C21        -3.7160    9.8990  -10.3120 ca        1 J9K      0.463200
     22 N22        -2.4250    9.7230  -10.6540 nb        1 J9K     -0.633000
     23 C23        -1.5850    9.2610   -9.7130 ca        1 J9K      0.439200
     24 C24         2.2160    5.5090    0.5770 c3        1 J9K     -0.047100
     25 C25         2.4500    4.7250    1.8160 ca        1 J9K     -0.166300
     26 C26         3.7120    4.1690    2.0670 ca        1 J9K     -0.129000
     27 C27         3.9510    3.4850    3.2570 ca        1 J9K     -0.112000
     28 C28         2.9350    3.3530    4.2050 ca        1 J9K     -0.095000
     29 C29         1.6780    3.9080    3.9610 ca        1 J9K     -0.112000
     30 C30         1.4350    4.5940    2.7720 ca        1 J9K     -0.129000
     31 H01         0.7620   -0.6360   -1.7900 hc        1 J9K      0.073700
     32 H01A       -0.5720    0.1060   -0.7940 hc        1 J9K      0.073700
     33 H01B       -0.0850   -1.6210   -0.5240 hc        1 J9K      0.073700
     34 H03         0.3450   -0.9880    2.0130 hc        1 J9K      0.073700
     35 H03A        1.4600    0.4020    2.3530 hc        1 J9K      0.073700
     36 H03B       -0.1700    0.7010    1.5960 hc        1 J9K      0.073700
     37 H04         2.9840   -1.1800   -0.7170 hc        1 J9K      0.073700
     38 H04A        3.2770   -0.7440    1.0220 hc        1 J9K      0.073700
     39 H04B        2.1690   -2.1260    0.6070 hc        1 J9K      0.073700
     40 HN08        2.9650    3.2790   -0.1570 hn        1 J9K      0.475800
     41 H09         0.4030    4.5400   -0.1760 hx        1 J9K      0.145700
     42 H10         0.9080    6.4740   -1.5830 h1        1 J9K      0.103200
     43 H10A        2.5180    5.8290   -2.0840 h1        1 J9K      0.103200
     44 H12         1.9310    6.2900   -4.3570 h1        1 J9K      0.107700
     45 H12A        1.7420    4.7200   -5.2260 h1        1 J9K      0.107700
     46 H13        -0.4980    6.8140   -4.6920 hc        1 J9K      0.112700
     47 H13A       -0.7660    5.1690   -5.4220 hc        1 J9K      0.112700
     48 HN16       -1.6130    6.4870   -7.3110 hn        1 J9K      0.464800
     49 H17        -0.0090    8.9980   -7.5550 hx        1 J9K      0.109200
     50 H17A       -1.3620    8.6720   -6.3480 hx        1 J9K      0.109200
     51 H19        -3.7040    8.9160   -7.0390 ha        1 J9K      0.145000
     52 H20        -5.2840    9.7890   -8.7950 ha        1 J9K      0.179000
     53 H21        -4.3780   10.2900  -11.1120 h4        1 J9K      0.064100
     54 H23        -0.5290    9.1560  -10.0270 h4        1 J9K      0.033100
     55 H24         3.1930    5.8870    0.1690 hc        1 J9K      0.088200
     56 H24A        1.5770    6.4060    0.8070 hc        1 J9K      0.088200
     57 H26         4.5330    4.3090    1.3480 ha        1 J9K      0.135000
     58 H27         4.9490    3.0640    3.4580 ha        1 J9K      0.159500
     59 H28         3.1310    2.8250    5.1530 ha        1 J9K      0.163000
     60 H29         0.8800    3.8200    4.7160 ha        1 J9K      0.159500
     61 H30         0.4480    5.0490    2.5950 ha        1 J9K      0.135000
     62 H082        2.3150    3.2080   -1.7090 hn        1 J9K      0.475800
     63 H162       -0.5070    6.8050   -8.5150 hn        1 J9K      0.464800
@<TRIPOS>BOND
     1    1    2 1   
     2    1   31 1   
     3    1   32 1   
     4    1   33 1   
     5    2    3 1   
     6    2    4 1   
     7    2    5 1   
     8    3   34 1   
     9    3   35 1   
    10    3   36 1   
    11    4   37 1   
    12    4   38 1   
    13    4   39 1   
    14    5    6 1   
    15    6    7 2   
    16    6    8 1   
    17    8    9 1   
    18    8   40 1   
    19    8   62 1   
    20    9   10 1   
    21    9   24 1   
    22    9   41 1   
    23   10   11 1   
    24   10   42 1   
    25   10   43 1   
    26   11   12 1   
    27   12   13 1   
    28   12   44 1   
    29   12   45 1   
    30   13   14 1   
    31   13   46 1   
    32   13   47 1   
    33   14   15 2   
    34   14   16 1   
    35   16   17 1   
    36   16   48 1   
    37   16   63 1   
    38   17   18 1   
    39   17   49 1   
    40   17   50 1   
    41   18   19 ar  
    42   18   23 ar  
    43   19   20 ar  
    44   19   51 1   
    45   20   21 ar  
    46   20   52 1   
    47   21   22 ar  
    48   21   53 1   
    49   22   23 ar  
    50   23   54 1   
    51   24   25 1   
    52   24   55 1   
    53   24   56 1   
    54   25   26 ar  
    55   25   30 ar  
    56   26   27 ar  
    57   26   57 1   
    58   27   28 ar  
    59   27   58 1   
    60   28   29 ar  
    61   28   59 1   
    62   29   30 ar  
    63   29   60 1   
    64   30   61 1   
@<TRIPOS>SUBSTRUCTURE
     1 J9K         1 TEMP              0 ****  ****    0 ROOT
