@<TRIPOS>MOLECULE
J9K
   63    64     1     0     0
SMALL
bcc


@<TRIPOS>ATOM
      1 C01         0.2780   -0.5910   -0.7550 c3        1 J9K     -0.130433
      2 C02         1.2960   -0.1760    0.2840 c3        1 J9K      0.204800
      3 C03         0.6900    0.0190    1.6550 c3        1 J9K     -0.130433
      4 C04         2.4980   -1.1070    0.3140 c3        1 J9K     -0.130433
      5 O05         1.9410    1.1070   -0.1540 os        1 J9K     -0.424900
      6 C06         1.1960    2.2050   -0.2840 c         1 J9K      0.640100
      7 O07        -0.0080    2.3450   -0.1300 o         1 J9K     -0.436000
      8 N08         2.0930    3.3470   -0.7060 ny        1 J9K     -0.652800
      9 C09         1.4800    4.7120   -0.5120 c3        1 J9K      0.143500
     10 C10         1.4830    5.5320   -1.8000 c3        1 J9K     -0.060300
     11 S11         0.7090    4.6160   -3.1040 ss        1 J9K     -0.267200
     12 C12         1.2110    5.4530   -4.5780 c3        1 J9K     -0.025300
     13 C13        -0.0090    5.9870   -5.2960 c3        1 J9K     -0.141400
     14 C14         0.3770    6.5300   -6.6450 c         1 J9K      0.533100
     15 O15         1.5020    6.6470   -7.1050 o         1 J9K     -0.395100
     16 N16        -0.7500    6.9850   -7.5380 ny        1 J9K     -0.687800
     17 C17        -0.9930    8.4720   -7.4110 c3        1 J9K      0.196100
     18 C18        -1.9850    8.9300   -8.4110 ca        1 J9K     -0.336600
     19 C19        -3.3330    9.1280   -8.0680 ca        1 J9K     -0.055000
     20 C20        -4.2070    9.6140   -9.0350 ca        1 J9K     -0.231300
     21 C21        -3.7040    9.8870  -10.3260 ca        1 J9K      0.463200
     22 N22        -2.4130    9.7040  -10.6690 nb        1 J9K     -0.633000
     23 C23        -1.5750    9.2420   -9.7270 ca        1 J9K      0.439200
     24 C24         2.2240    5.5150    0.5720 c3        1 J9K     -0.047100
     25 C25         2.4560    4.7350    1.8150 ca        1 J9K     -0.166300
     26 C26         3.7170    4.1750    2.0660 ca        1 J9K     -0.129000
     27 C27         3.9550    3.4950    3.2580 ca        1 J9K     -0.112000
     28 C28         2.9400    3.3710    4.2080 ca        1 J9K     -0.095000
     29 C29         1.6850    3.9300    3.9640 ca        1 J9K     -0.112000
     30 C30         1.4430    4.6120    2.7720 ca        1 J9K     -0.129000
     31 H01         0.7440   -0.6330   -1.7690 hc        1 J9K      0.073700
     32 H01A       -0.5860    0.1170   -0.7740 hc        1 J9K      0.073700
     33 H01B       -0.1060   -1.6100   -0.4980 hc        1 J9K      0.073700
     34 H03         1.4500    0.4180    2.3690 hc        1 J9K      0.073700
     35 H03A       -0.1800    0.7190    1.6130 hc        1 J9K      0.073700
     36 H03B        0.3300   -0.9700    2.0350 hc        1 J9K      0.073700
     37 H04         2.1480   -2.1200    0.6310 hc        1 J9K      0.073700
     38 H04A        3.2620   -0.7400    1.0400 hc        1 J9K      0.073700
     39 H04B        2.9650   -1.1820   -0.6970 hc        1 J9K      0.073700
     40 HN08        2.3110    3.2050   -1.7040 hn        1 J9K      0.475800
     41 H09         0.4060    4.5500   -0.1740 hx        1 J9K      0.145700
     42 H10         2.5240    5.8240   -2.0900 h1        1 J9K      0.103200
     43 H10A        0.9170    6.4760   -1.5890 h1        1 J9K      0.103200
     44 H12         1.7390    4.7050   -5.2270 h1        1 J9K      0.107700
     45 H12A        1.9360    6.2770   -4.3640 h1        1 J9K      0.107700
     46 H13        -0.4920    6.8100   -4.6970 hc        1 J9K      0.112700
     47 H13A       -0.7680    5.1630   -5.4210 hc        1 J9K      0.112700
     48 HN16       -1.6110    6.4790   -7.3130 hn        1 J9K      0.464800
     49 H17         0.0030    8.9820   -7.5700 hx        1 J9K      0.109200
     50 H17A       -1.3490    8.6670   -6.3600 hx        1 J9K      0.109200
     51 H19        -3.6910    8.9200   -7.0480 ha        1 J9K      0.145000
     52 H20        -5.2690    9.7920   -8.8060 ha        1 J9K      0.179000
     53 H21        -4.3650   10.2780  -11.1270 h4        1 J9K      0.064100
     54 H23        -0.5200    9.1310  -10.0420 h4        1 J9K      0.033100
     55 H24         1.5890    6.4150    0.8000 hc        1 J9K      0.088200
     56 H24A        3.2010    5.8880    0.1620 hc        1 J9K      0.088200
     57 H26         4.5380    4.3090    1.3450 ha        1 J9K      0.135000
     58 H27         4.9520    3.0710    3.4590 ha        1 J9K      0.159500
     59 H28         3.1350    2.8460    5.1580 ha        1 J9K      0.163000
     60 H29         0.8880    3.8470    4.7200 ha        1 J9K      0.159500
     61 H30         0.4570    5.0700    2.5950 ha        1 J9K      0.135000
     62 H082        2.9630    3.2790   -0.1540 hn        1 J9K      0.475800
     63 H162       -0.5070    6.7870   -8.5210 hn        1 J9K      0.464800
@<TRIPOS>BOND
     1    1    2 1   
     2    1   31 1   
     3    1   32 1   
     4    1   33 1   
     5    2    3 1   
     6    2    4 1   
     7    2    5 1   
     8    3   34 1   
     9    3   35 1   
    10    3   36 1   
    11    4   37 1   
    12    4   38 1   
    13    4   39 1   
    14    5    6 1   
    15    6    7 2   
    16    6    8 1   
    17    8    9 1   
    18    8   40 1   
    19    8   62 1   
    20    9   10 1   
    21    9   24 1   
    22    9   41 1   
    23   10   11 1   
    24   10   42 1   
    25   10   43 1   
    26   11   12 1   
    27   12   13 1   
    28   12   44 1   
    29   12   45 1   
    30   13   14 1   
    31   13   46 1   
    32   13   47 1   
    33   14   15 2   
    34   14   16 1   
    35   16   17 1   
    36   16   48 1   
    37   16   63 1   
    38   17   18 1   
    39   17   49 1   
    40   17   50 1   
    41   18   19 ar  
    42   18   23 ar  
    43   19   20 ar  
    44   19   51 1   
    45   20   21 ar  
    46   20   52 1   
    47   21   22 ar  
    48   21   53 1   
    49   22   23 ar  
    50   23   54 1   
    51   24   25 1   
    52   24   55 1   
    53   24   56 1   
    54   25   26 ar  
    55   25   30 ar  
    56   26   27 ar  
    57   26   57 1   
    58   27   28 ar  
    59   27   58 1   
    60   28   29 ar  
    61   28   59 1   
    62   29   30 ar  
    63   29   60 1   
    64   30   61 1   
@<TRIPOS>SUBSTRUCTURE
     1 J9K         1 TEMP              0 ****  ****    0 ROOT
