@<TRIPOS>MOLECULE
J9Z
   43    55     1     0     0
SMALL
bcc


@<TRIPOS>ATOM
      1 C1          0.0000    0.0000    0.0000 c2        1 J9Z     -0.288000
      2 N1         -2.3220   -2.0940    2.4490 ny        1 J9Z     -0.322000
      3 O1         -2.4050   -4.1020    1.5020 o         1 J9Z     -0.371000
      4 P1         -6.3830   -0.4100    2.2820 p5        1 J9Z      0.977500
      5 C2          1.3830    0.0000    0.0000 c3        1 J9Z     -0.046000
      6 O2         -7.0680   -1.7730    2.6380 o         1 J9Z     -0.516167
      7 C3          2.0740    0.0000    1.1970 c3        1 J9Z      0.550000
      8 S3         -1.4810   -3.2530    5.2600 ss        1 J9Z      0.277000
      9 C4          1.3830    0.0010    2.3940 c3        1 J9Z      0.564000
     10 O4         -6.9810    0.1410    0.9430 o         1 J9Z     -0.516167
     11 C5          0.0010    0.0030    2.3950 c3        1 J9Z     -0.188000
     12 O5         -6.6420    0.6210    3.4330 o         1 J9Z     -0.516167
     13 C6         -0.6910    0.0020    1.1970 c3        1 J9Z     -0.039000
     14 C7         -2.1980    0.0030    1.1970 c3        1 J9Z     -0.221000
     15 C8         -2.7100   -1.4390    1.1970 DU        1 J9Z     -0.270000
     16 C9         -1.0460   -7.1490    5.6610 c2        1 J9Z     -0.265000
     17 C10        -0.6850   -7.3660    6.9530 c2        1 J9Z     -0.053000
     18 C11        -0.5400   -6.3050    7.8370 c2        1 J9Z     -0.126000
     19 C12        -0.7620   -5.0160    7.4110 c2        1 J9Z      0.012000
     20 C13        -1.1350   -4.7670    6.0860 c2        1 J9Z      0.112000
     21 C14        -1.2810   -5.8340    5.1910 c3        1 J9Z      0.081000
     22 C15        -1.6570   -5.4120    3.9060 c2        1 J9Z      0.053000
     23 C16        -1.8080   -4.0930    3.7530 c2        1 J9Z     -0.530000
     24 C18        -4.2340   -1.4390    1.0720 c3        1 J9Z      0.064000
     25 H3          1.0180   -0.2410    1.1760 DU        1 J9Z      0.239000
     26 H1         -0.4060   -0.8000    0.6070 DU        1 J9Z      0.210000
     27 H5          1.0470    0.1350    2.1490 hc        1 J9Z     -0.577000
     28 H4          0.8510    0.0180    1.4500 DU        1 J9Z      0.071000
     29 H7         -1.8900   -0.0680    2.2330 hc        1 J9Z      0.164000
     30 H2          1.7190    0.0170    1.0300 hc        1 J9Z     -0.630000
     31 H7A        -2.6130    0.5460    0.3570 hc        1 J9Z      0.164000
     32 H8         -1.8350   -1.1440    0.6310 hx        1 J9Z      0.239000
     33 H11        -0.8020   -5.4510    7.2230 ha        1 J9Z      0.044000
     34 H12        -0.9400   -4.6910    6.3930 ha        1 J9Z     -0.238000
     35 H15        -1.3020   -5.5620    4.9180 ha        1 J9Z     -0.218000
     36 HN1        -2.0970   -2.2680    3.4090 hn        1 J9Z      0.187000
     37 H18        -3.6320   -2.2240    1.5130 DU        1 J9Z      0.225500
     38 H18A       -3.5480   -1.2290    1.8840 DU        1 J9Z      0.225500
     39 O3         -4.7980   -0.6350    2.1100 os        1 J9Z     -0.561000
     40 H9         -1.5510   -6.5350    4.9250 DU        1 J9Z      0.367000
     41 H121       -1.6570   -2.8030    2.6880 DU        1 J9Z      0.085000
     42 C17        -2.1970   -3.4350    2.4970 c3        1 J9Z      0.460000
     43 H10        -0.5280   -8.3680    7.3320 ha        1 J9Z      0.123000
@<TRIPOS>BOND
     1    1    5 1   
     2    1   13 1   
     3    1   26 1   
     4    2   15 1   
     5    2   36 1   
     6    2   41 1   
     7    2   42 1   
     8    3   42 1   
     9    4    6 1   
    10    4   10 1   
    11    4   12 1   
    12    4   39 1   
    13    5    7 1   
    14    5   25 1   
    15    5   30 1   
    16    7    9 1   
    17    7   25 1   
    18    7   28 1   
    19    8   20 1   
    20    8   23 1   
    21    9   11 1   
    22    9   25 1   
    23    9   28 1   
    24   11   13 1   
    25   11   27 1   
    26   11   28 1   
    27   13   14 1   
    28   13   26 1   
    29   14   15 1   
    30   14   29 1   
    31   14   31 1   
    32   15   24 1   
    33   15   32 1   
    34   15   37 1   
    35   15   38 1   
    36   16   17 1   
    37   16   21 1   
    38   16   40 1   
    39   17   18 1   
    40   17   43 1   
    41   18   19 1   
    42   18   33 1   
    43   19   20 1   
    44   19   34 1   
    45   20   21 1   
    46   21   22 1   
    47   21   40 1   
    48   22   23 1   
    49   22   35 1   
    50   23   42 1   
    51   24   37 1   
    52   24   38 1   
    53   24   39 1   
    54   25   28 1   
    55   41   42 1   
@<TRIPOS>SUBSTRUCTURE
     1 J9Z         1 TEMP              0 ****  ****    0 ROOT
