@<TRIPOS>MOLECULE
J9Z
   43    38     1     0     0
SMALL
bcc


@<TRIPOS>ATOM
      1 C1         -0.2310   -0.1090   -0.5560 c2        1 J9Z     -0.379000
      2 N1         -2.6560   -2.3610    3.6270 n         1 J9Z     -0.391000
      3 O1         -0.8410   -3.7560    3.6870 o         1 J9Z     -0.429000
      4 P1         -5.7540    0.0970    2.6350 p3        1 J9Z      2.430000
      5 C2          1.0850   -0.1270   -0.5180 c1        1 J9Z      0.121000
      6 O2         -5.3080   -1.1540    3.2820 o         1 J9Z     -1.134000
      7 C3          2.4720    0.7540    1.2060 c1        1 J9Z     -0.206000
      8 S3         -3.1310   -4.9460    6.0880 ss        1 J9Z      0.453000
      9 C4          1.6640    0.3460    1.9940 c1        1 J9Z     -0.206000
     10 O4         -7.1720    0.4360    2.4680 o         1 J9Z     -1.134000
     11 C5         -1.2180   -0.2140    1.6950 c1        1 J9Z      0.168000
     12 O5         -4.6680    1.0220    2.2390 o         1 J9Z     -1.134000
     13 C6         -1.2260    0.2200    0.4420 c2        1 J9Z     -0.317000
     14 C7         -2.3660    1.0970   -0.0090 c3        1 J9Z     -0.076000
     15 C8         -3.2440    0.4020   -0.9790 c2        1 J9Z     -0.303000
     16 C9          0.5160   -6.6910    6.5940 c2        1 J9Z     -0.067000
     17 C10         0.5620   -7.4940    7.6740 c2        1 J9Z     -0.104000
     18 C11        -0.5030   -7.8480    8.5120 c1        1 J9Z     -0.110000
     19 C12        -1.3890   -8.1770    9.2490 c1        1 J9Z     -0.234000
     20 C13        -1.7850   -5.7620    6.6320 c2        1 J9Z     -0.367000
     21 C14        -0.6070   -5.9900    6.0280 c2        1 J9Z     -0.149000
     22 C15        -3.6720   -5.4760    3.7180 c1        1 J9Z      0.294000
     23 C16        -2.9270   -4.6420    4.4210 c2        1 J9Z     -0.635000
     24 C18        -4.2370   -0.4350   -0.6300 c2        1 J9Z      0.033000
     25 H3         -0.0510   -2.2690    2.0680 ha        1 J9Z      0.007500
     26 H1         -0.6730   -0.3830   -1.5450 ha        1 J9Z      0.192000
     27 H5          0.9530   -0.0050    2.7060 ha        1 J9Z      0.232000
     28 H4          0.2970   -1.9470    1.5780 ha        1 J9Z      0.007500
     29 H7         -2.9770    1.4360    0.8830 hc        1 J9Z      0.130500
     30 H2          3.1890    1.1020    0.5050 ha        1 J9Z      0.232000
     31 H7A        -1.9270    2.0150   -0.4840 hc        1 J9Z      0.130500
     32 H8         -3.0770    0.6280   -2.0400 ha        1 J9Z      0.116000
     33 H11        -2.1760   -8.4650    9.8970 ha        1 J9Z      0.219000
     34 H12        -1.9590   -6.1170    7.6670 h4        1 J9Z      0.159000
     35 H15        -0.4370   -5.5900    5.0040 ha        1 J9Z      0.171000
     36 HN1        -3.6420   -2.2200    3.7430 hn        1 J9Z      0.272500
     37 H18        -4.9400   -0.8980   -1.3420 h4        1 J9Z      0.144000
     38 H18A       -3.8320   -0.5320    1.2540 ho        1 J9Z      0.264000
     39 O3         -4.5410   -0.8290    0.6420 oh        1 J9Z     -0.301000
     40 H9          1.4600   -6.5350    6.0360 ha        1 J9Z      0.126000
     41 H121       -2.1140   -1.6180    3.2420 hn        1 J9Z      0.272500
     42 C17        -2.0640   -3.5500    3.8830 c2        1 J9Z      0.372000
     43 H10         1.5290   -7.9520    7.9610 ha        1 J9Z      0.129000
@<TRIPOS>BOND
     1    1    5 1   
     2    1   13 1   
     3    1   26 1   
     4    2   36 1   
     5    2   41 1   
     6    2   42 1   
     7    3   42 1   
     8    4    6 1   
     9    4   10 1   
    10    4   12 1   
    11    7    9 1   
    12    7   30 1   
    13    8   20 1   
    14    8   23 1   
    15    9   27 1   
    16   11   13 1   
    17   13   14 1   
    18   14   15 1   
    19   14   29 1   
    20   14   31 1   
    21   15   24 1   
    22   15   32 1   
    23   16   17 1   
    24   16   21 1   
    25   16   40 1   
    26   17   18 1   
    27   17   43 1   
    28   18   19 1   
    29   19   33 1   
    30   20   21 1   
    31   20   34 1   
    32   21   35 1   
    33   22   23 1   
    34   23   42 1   
    35   24   37 1   
    36   24   39 1   
    37   25   28 1   
    38   38   39 1   
@<TRIPOS>SUBSTRUCTURE
     1 J9Z         1 TEMP              0 ****  ****    0 ROOT
