@<TRIPOS>MOLECULE
J9Z
   42    45     1     0     0
SMALL
bcc


@<TRIPOS>ATOM
      1 C1         -2.7600   -4.0850    1.1880 ca        1 J9Z     -0.127500
      2 N1         -0.1970   -0.8920    0.8740 n         1 J9Z     -0.528900
      3 O1          0.8900   -0.6280    2.8880 o         1 J9Z     -0.441000
      4 P1         -0.7900    1.4220   -1.6390 p5        1 J9Z      1.507800
      5 C2         -2.8210   -5.2050    0.3630 ca        1 J9Z     -0.146500
      6 O2         -1.3620    0.1460   -2.1520 o         1 J9Z     -0.876000
      7 C3         -2.5610   -5.0780   -1.0010 ca        1 J9Z     -0.165000
      8 S3          2.1680    0.3240   -0.6940 sx        1 J9Z      0.800100
      9 C4         -2.2400   -3.8270   -1.5240 ca        1 J9Z     -0.146500
     10 O4          0.7350    1.1330   -1.2780 os        1 J9Z     -0.705200
     11 C5         -2.1800   -2.7000   -0.7020 ca        1 J9Z     -0.127500
     12 O5         -1.0260    2.7250   -2.2930 o         1 J9Z     -0.876000
     13 C6         -2.4450   -2.8180    0.6690 ca        1 J9Z     -0.039300
     14 C7         -2.4520   -1.6650    1.6100 c3        1 J9Z     -0.030100
     15 C8         -1.5060   -0.4810    1.3360 c3        1 J9Z      0.055700
     16 C9          5.4470    1.5750    0.9560 ca        1 J9Z     -0.113000
     17 C10         6.1620    2.1430   -0.0590 ca        1 J9Z     -0.160000
     18 C11         5.6400    2.1870   -1.3860 ca        1 J9Z     -0.264000
     19 C12         4.4050    1.6570   -1.6600 ca        1 J9Z      0.011000
     20 C13         3.6410    1.0280   -0.6600 ca        1 J9Z     -0.680000
     21 C14         4.1730    0.9930    0.6970 ca        1 J9Z     -0.089000
     22 C15         3.2780    0.3980    1.5760 ce        1 J9Z     -0.155000
     23 C16         2.0860   -0.0130    0.9080 ce        1 J9Z     -0.306300
     24 C18        -2.2260    0.5260    0.3850 c3        1 J9Z      0.181400
     25 H3         -2.6030   -5.9590   -1.6550 ha        1 J9Z      0.099000
     26 H1         -2.9530   -4.1960    2.2650 ha        1 J9Z      0.167500
     27 H5         -1.9110   -1.7220   -1.1600 ha        1 J9Z      0.167500
     28 H4         -2.0220   -3.7160   -2.5970 ha        1 J9Z      0.112000
     29 H7         -3.5010   -1.2570    1.6430 hc        1 J9Z      0.030700
     30 H2         -3.0660   -6.1870    0.7880 ha        1 J9Z      0.112000
     31 H7A        -2.2120   -2.0500    2.6400 hc        1 J9Z      0.030700
     32 H8         -1.3780    0.0460    2.3320 h1        1 J9Z      0.054700
     33 H10         7.1500    2.5870    0.1270 ha        1 J9Z      0.072000
     34 H11         6.2430    2.6540   -2.1730 ha        1 J9Z      0.079000
     35 H12         3.9910    1.7190   -2.6800 ha        1 J9Z      0.092000
     36 H15         3.4130    0.2970    2.6520 ha        1 J9Z      0.117000
     37 HN1        -0.1010   -0.7010   -0.1120 hn        1 J9Z      0.290500
     38 H18        -3.0430    1.0100    0.9970 h1        1 J9Z      0.015700
     39 H18A       -2.6970   -0.0260   -0.4740 h1        1 J9Z      0.015700
     40 C17         0.9340   -0.4980    1.6400 c2        1 J9Z      0.461000
     41 O3         -1.3940    1.5290   -0.0750 os        1 J9Z     -0.579200
     42 H9          5.8330    1.5540    1.9840 ha        1 J9Z      0.084000
@<TRIPOS>BOND
     1    1    5 ar  
     2    1   13 ar  
     3    1   26 1   
     4    2   15 1   
     5    2   37 1   
     6    2   40 1   
     7    3   40 1   
     8    4    6 1   
     9    4   10 1   
    10    4   12 1   
    11    4   41 1   
    12    5    7 ar  
    13    5   30 1   
    14    7    9 ar  
    15    7   25 1   
    16    8   10 1   
    17    8   20 2   
    18    8   23 1   
    19    9   11 ar  
    20    9   28 1   
    21   11   13 ar  
    22   11   27 1   
    23   13   14 1   
    24   14   15 1   
    25   14   29 1   
    26   14   31 1   
    27   15   24 1   
    28   15   32 1   
    29   16   17 ar  
    30   16   21 ar  
    31   16   42 1   
    32   17   18 ar  
    33   17   33 1   
    34   18   19 ar  
    35   18   34 1   
    36   19   20 ar  
    37   19   35 1   
    38   20   21 ar  
    39   21   22 2   
    40   22   23 1   
    41   22   36 1   
    42   23   40 2   
    43   24   38 1   
    44   24   39 1   
    45   24   41 1   
@<TRIPOS>SUBSTRUCTURE
     1 J9Z         1 TEMP              0 ****  ****    0 ROOT
