@<TRIPOS>MOLECULE
JA1
   44    45     1     0     0
SMALL
bcc


@<TRIPOS>ATOM
      1 C           0.3470   -0.2540    0.3160 ca        1 JA1      0.142100
      2 N           7.3470    1.0360   -1.5940 no        1 JA1      0.318200
      3 O          -0.0850    0.1490   -0.9210 oh        1 JA1     -0.486100
      4 C1          1.5700   -0.9210    0.5230 ca        1 JA1     -0.023900
      5 O1          2.3040   -1.2820   -0.6100 os        1 JA1     -0.247200
      6 C2          3.5360   -0.6690   -0.7730 ca        1 JA1      0.157100
      7 O2          7.9870    0.6140   -2.5200 o         1 JA1     -0.211500
      8 C3          4.2960   -1.1620   -1.8510 ca        1 JA1     -0.184500
      9 O3          7.7510    1.9250   -0.8920 o         1 JA1     -0.211500
     10 C4          5.5380   -0.6040   -2.1180 ca        1 JA1     -0.035500
     11 C5          6.0180    0.4420   -1.3080 ca        1 JA1     -0.212200
     12 C6          5.2580    0.9290   -0.2320 ca        1 JA1     -0.035500
     13 C7          4.0130    0.3700    0.0360 ca        1 JA1     -0.184500
     14 C8          1.9520   -1.3250    1.8060 ca        1 JA1     -0.097000
     15 C9          1.1150   -1.0530    2.8830 ca        1 JA1     -0.155000
     16 C10        -0.1030   -0.3850    2.6920 ca        1 JA1     -0.034300
     17 C11        -0.9960   -0.1060    3.8510 c3        1 JA1     -0.043100
     18 C12        -0.9890    1.3650    4.2240 c3        1 JA1     -0.076400
     19 C13        -1.9280    1.6350    5.3800 c3        1 JA1     -0.080400
     20 C14        -1.9210    3.1010    5.7580 c3        1 JA1     -0.079400
     21 C15        -2.8610    3.3750    6.9130 c3        1 JA1     -0.080400
     22 C16        -2.8570    4.8330    7.2940 c3        1 JA1     -0.093100
     23 C17        -0.4910    0.0130    1.4100 ca        1 JA1     -0.153000
     24 HO          0.5680   -0.1430   -1.5760 ho        1 JA1      0.435000
     25 H3          3.9000   -1.9820   -2.4680 ha        1 JA1      0.165000
     26 H4          6.1460   -0.9790   -2.9590 ha        1 JA1      0.174500
     27 H6          5.6440    1.7510    0.3960 ha        1 JA1      0.174500
     28 H7          3.4080    0.7430    0.8770 ha        1 JA1      0.165000
     29 H8          2.9060   -1.8540    1.9490 ha        1 JA1      0.150000
     30 H9          1.4110   -1.3700    3.8940 ha        1 JA1      0.143000
     31 H11        -0.6760   -0.7160    4.7380 hc        1 JA1      0.054200
     32 H11A       -2.0440   -0.4190    3.5930 hc        1 JA1      0.054200
     33 H12         0.0520    1.6780    4.5020 hc        1 JA1      0.045700
     34 H12A       -1.2950    1.9780    3.3350 hc        1 JA1      0.045700
     35 H13        -2.9690    1.3240    5.1010 hc        1 JA1      0.040700
     36 H13A       -1.6240    1.0170    6.2650 hc        1 JA1      0.040700
     37 H14        -2.2240    3.7200    4.8730 hc        1 JA1      0.041200
     38 H14A       -0.8810    3.4130    6.0380 hc        1 JA1      0.041200
     39 H15        -3.9010    3.0620    6.6320 hc        1 JA1      0.038700
     40 H15A       -2.5570    2.7540    7.7970 hc        1 JA1      0.038700
     41 H16        -1.8340    5.1580    7.6020 hc        1 JA1      0.033367
     42 H16A       -3.1810    5.4670    6.4330 hc        1 JA1      0.033367
     43 H16B       -3.5560    5.0130    8.1460 hc        1 JA1      0.033367
     44 H17        -1.4450    0.5320    1.2420 ha        1 JA1      0.159000
@<TRIPOS>BOND
     1    1    3 1   
     2    1    4 ar  
     3    1   23 ar  
     4    2    7 1   
     5    2    9 1   
     6    2   11 1   
     7    3   24 1   
     8    4    5 1   
     9    4   14 ar  
    10    5    6 1   
    11    6    8 ar  
    12    6   13 ar  
    13    8   10 ar  
    14    8   25 1   
    15   10   11 ar  
    16   10   26 1   
    17   11   12 ar  
    18   12   13 ar  
    19   12   27 1   
    20   13   28 1   
    21   14   15 ar  
    22   14   29 1   
    23   15   16 ar  
    24   15   30 1   
    25   16   17 1   
    26   16   23 ar  
    27   17   18 1   
    28   17   31 1   
    29   17   32 1   
    30   18   19 1   
    31   18   33 1   
    32   18   34 1   
    33   19   20 1   
    34   19   35 1   
    35   19   36 1   
    36   20   21 1   
    37   20   37 1   
    38   20   38 1   
    39   21   22 1   
    40   21   39 1   
    41   21   40 1   
    42   22   41 1   
    43   22   42 1   
    44   22   43 1   
    45   23   44 1   
@<TRIPOS>SUBSTRUCTURE
     1 JA1         1 TEMP              0 ****  ****    0 ROOT
