@<TRIPOS>MOLECULE
JA1
   44    45     1     0     0
SMALL
bcc


@<TRIPOS>ATOM
      1 C           0.3520   -0.2230    0.2970 ca        1 JA1      0.142100
      2 N           7.3710    1.0460   -1.5550 no        1 JA1      0.318200
      3 O          -0.0700    0.1990   -0.9370 oh        1 JA1     -0.486100
      4 C1          1.5690   -0.9000    0.5030 ca        1 JA1     -0.023900
      5 O1          2.3080   -1.2520   -0.6300 os        1 JA1     -0.247200
      6 C2          3.5440   -0.6450   -0.7780 ca        1 JA1      0.157100
      7 O2          8.0140    0.6320   -2.4820 o         1 JA1     -0.211500
      8 C3          4.3080   -1.1290   -1.8580 ca        1 JA1     -0.184500
      9 O3          7.7760    1.9240   -0.8400 o         1 JA1     -0.211500
     10 C4          5.5550   -0.5760   -2.1100 ca        1 JA1     -0.035500
     11 C5          6.0370    0.4570   -1.2840 ca        1 JA1     -0.212200
     12 C6          5.2730    0.9350   -0.2070 ca        1 JA1     -0.035500
     13 C7          4.0230    0.3810    0.0460 ca        1 JA1     -0.184500
     14 C8          1.9400   -1.3240    1.7830 ca        1 JA1     -0.097000
     15 C9          1.0990   -1.0600    2.8580 ca        1 JA1     -0.155000
     16 C10        -0.1140   -0.3810    2.6670 ca        1 JA1     -0.034300
     17 C11        -1.0120   -0.1110    3.8250 c3        1 JA1     -0.043100
     18 C12        -0.9970    1.3550    4.2170 c3        1 JA1     -0.076400
     19 C13        -1.9420    1.6170    5.3710 c3        1 JA1     -0.080400
     20 C14        -1.9270    3.0770    5.7690 c3        1 JA1     -0.079400
     21 C15        -2.8710    3.3430    6.9220 c3        1 JA1     -0.080400
     22 C16        -2.8600    4.7950    7.3220 c3        1 JA1     -0.093100
     23 C17        -0.4910    0.0350    1.3890 ca        1 JA1     -0.153000
     24 HO          0.5850   -0.0900   -1.5930 ho        1 JA1      0.435000
     25 H3          3.9100   -1.9380   -2.4880 ha        1 JA1      0.165000
     26 H4          6.1660   -0.9440   -2.9530 ha        1 JA1      0.174500
     27 H6          5.6610    1.7460    0.4340 ha        1 JA1      0.174500
     28 H7          3.4160    0.7460    0.8890 ha        1 JA1      0.165000
     29 H8          2.8900   -1.8600    1.9250 ha        1 JA1      0.150000
     30 H9          1.3860   -1.3910    3.8670 ha        1 JA1      0.143000
     31 H11        -2.0610   -0.4130    3.5570 hc        1 JA1      0.054200
     32 H11A       -0.7020   -0.7350    4.7060 hc        1 JA1      0.054200
     33 H12        -1.2940    1.9810    3.3350 hc        1 JA1      0.045700
     34 H12A        0.0430    1.6580    4.5050 hc        1 JA1      0.045700
     35 H13        -1.6470    0.9850    6.2500 hc        1 JA1      0.040700
     36 H13A       -2.9830    1.3160    5.0810 hc        1 JA1      0.040700
     37 H14        -0.8860    3.3780    6.0590 hc        1 JA1      0.041200
     38 H14A       -2.2210    3.7100    4.8900 hc        1 JA1      0.041200
     39 H15        -3.9120    3.0400    6.6300 hc        1 JA1      0.038700
     40 H15A       -2.5780    2.7080    7.7990 hc        1 JA1      0.038700
     41 H16        -3.5620    4.9690    8.1730 hc        1 JA1      0.033367
     42 H16A       -1.8360    5.1090    7.6400 hc        1 JA1      0.033367
     43 H16B       -3.1740    5.4420    6.4680 hc        1 JA1      0.033367
     44 H17        -1.4410    0.5640    1.2210 ha        1 JA1      0.159000
@<TRIPOS>BOND
     1    1    3 1   
     2    1    4 ar  
     3    1   23 ar  
     4    2    7 1   
     5    2    9 1   
     6    2   11 1   
     7    3   24 1   
     8    4    5 1   
     9    4   14 ar  
    10    5    6 1   
    11    6    8 ar  
    12    6   13 ar  
    13    8   10 ar  
    14    8   25 1   
    15   10   11 ar  
    16   10   26 1   
    17   11   12 ar  
    18   12   13 ar  
    19   12   27 1   
    20   13   28 1   
    21   14   15 ar  
    22   14   29 1   
    23   15   16 ar  
    24   15   30 1   
    25   16   17 1   
    26   16   23 ar  
    27   17   18 1   
    28   17   31 1   
    29   17   32 1   
    30   18   19 1   
    31   18   33 1   
    32   18   34 1   
    33   19   20 1   
    34   19   35 1   
    35   19   36 1   
    36   20   21 1   
    37   20   37 1   
    38   20   38 1   
    39   21   22 1   
    40   21   39 1   
    41   21   40 1   
    42   22   41 1   
    43   22   42 1   
    44   22   43 1   
    45   23   44 1   
@<TRIPOS>SUBSTRUCTURE
     1 JA1         1 TEMP              0 ****  ****    0 ROOT
