@<TRIPOS>MOLECULE
JA2
   33    34     1     0     0
SMALL
bcc


@<TRIPOS>ATOM
      1 N1          0.0450    0.2390   -0.0640 na        1 JA2     -0.281300
      2 C2          1.4420    0.2160   -0.0330 ca        1 JA2     -0.067200
      3 C3          1.8010   -0.4650    1.1980 ca        1 JA2      0.062400
      4 C4          3.1560   -0.6450    1.5150 ca        1 JA2     -0.069000
      5 C5          4.1050   -0.1600    0.6300 ca        1 JA2     -0.146000
      6 C6          3.7450    0.4980   -0.5610 ca        1 JA2     -0.102000
      7 C7          2.4190    0.6980   -0.9140 ca        1 JA2     -0.133000
      8 C8         -0.3950   -0.4090    1.1140 cc        1 JA2      0.395800
      9 N9          0.6290   -0.8380    1.8840 nd        1 JA2     -0.573100
     10 C10        -1.8520   -0.5650    1.4080 c3        1 JA2     -0.085700
     11 C11        -2.0840   -1.2940    2.7160 c3        1 JA2     -0.074400
     12 C12        -3.5660   -1.4430    2.9960 c3        1 JA2     -0.080400
     13 C13        -3.7690   -2.1760    4.3090 c3        1 JA2     -0.111400
     14 C14        -5.2600   -2.3210    4.5840 c3        1 JA2      0.099800
     15 N15        -5.5360   -3.0370    5.8660 nz        1 JA2     -0.839600
     16 HN1        -0.5200    0.6290   -0.7680 hn        1 JA2      0.306700
     17 H4          3.4470   -1.1570    2.4430 ha        1 JA2      0.148000
     18 H5          5.1750   -0.2900    0.8580 ha        1 JA2      0.141000
     19 H6          4.5410    0.8630   -1.2290 ha        1 JA2      0.141000
     20 H7          2.1450    1.2120   -1.8450 ha        1 JA2      0.141000
     21 H10        -2.3250    0.4530    1.4520 hc        1 JA2      0.058700
     22 H10A       -2.3350   -1.1320    0.5660 hc        1 JA2      0.058700
     23 H11        -1.5960   -0.7300    3.5540 hc        1 JA2      0.070700
     24 H11A       -1.6030   -2.3080    2.6730 hc        1 JA2      0.070700
     25 H12        -4.0560   -2.0120    2.1620 hc        1 JA2      0.054700
     26 H12A       -4.0480   -0.4310    3.0450 hc        1 JA2      0.054700
     27 H13        -3.2800   -3.1850    4.2490 hc        1 JA2      0.073700
     28 H13A       -3.2710   -1.6010    5.1350 hc        1 JA2      0.073700
     29 H14        -5.7530   -2.9050    3.7530 hx        1 JA2      0.113700
     30 H14A       -5.7430   -1.3030    4.6490 hx        1 JA2      0.113700
     31 HN15       -6.5470   -3.1150    6.0170 hn        1 JA2      0.461467
     32 HN1A       -5.1280   -3.9770    5.8390 hn        1 JA2      0.461467
     33 H153       -5.1190   -2.5250    6.6510 hn        1 JA2      0.461467
@<TRIPOS>BOND
     1    1    2 1   
     2    1    8 1   
     3    1   16 1   
     4    2    3 ar  
     5    2    7 ar  
     6    3    4 ar  
     7    3    9 1   
     8    4    5 ar  
     9    4   17 1   
    10    5    6 ar  
    11    5   18 1   
    12    6    7 ar  
    13    6   19 1   
    14    7   20 1   
    15    8    9 2   
    16    8   10 1   
    17   10   11 1   
    18   10   21 1   
    19   10   22 1   
    20   11   12 1   
    21   11   23 1   
    22   11   24 1   
    23   12   13 1   
    24   12   25 1   
    25   12   26 1   
    26   13   14 1   
    27   13   27 1   
    28   13   28 1   
    29   14   15 1   
    30   14   29 1   
    31   14   30 1   
    32   15   31 1   
    33   15   32 1   
    34   15   33 1   
@<TRIPOS>SUBSTRUCTURE
     1 JA2         1 TEMP              0 ****  ****    0 ROOT
