@<TRIPOS>MOLECULE
JA2
   32    33     1     0     0
SMALL
bcc


@<TRIPOS>ATOM
      1 N1          0.0440   -0.5460    0.4920 na        1 JA2     -0.286300
      2 C2          1.4060   -0.3460    0.2590 ca        1 JA2     -0.072200
      3 C3          1.8630    0.5390    1.3180 ca        1 JA2      0.066400
      4 C4          3.2080    0.9330    1.3500 ca        1 JA2     -0.069000
      5 C5          4.0560    0.4580    0.3610 ca        1 JA2     -0.155000
      6 C6          3.6020   -0.3980   -0.6580 ca        1 JA2     -0.113000
      7 C7          2.2800   -0.8130   -0.7300 ca        1 JA2     -0.137000
      8 C8         -0.2810    0.1910    1.6580 cc        1 JA2      0.418800
      9 N9          0.7830    0.8480    2.1670 nd        1 JA2     -0.566100
     10 C10        -1.6700    0.2120    2.2060 c3        1 JA2     -0.099700
     11 C11        -2.0960   -1.1600    2.6900 c3        1 JA2     -0.080400
     12 C12        -3.4820   -1.1070    3.2980 c3        1 JA2     -0.080400
     13 C13        -3.9220   -2.4780    3.7650 c3        1 JA2     -0.083400
     14 C14        -5.3180   -2.4010    4.3820 c3        1 JA2      0.159800
     15 N15        -5.8340   -3.6860    4.7890 n3        1 JA2     -0.916800
     16 HN1        -0.5630   -1.1220   -0.0230 hn        1 JA2      0.303700
     17 H4          3.5710    1.6030    2.1430 ha        1 JA2      0.147000
     18 H5          5.1150    0.7560    0.3690 ha        1 JA2      0.132000
     19 H6          4.3170   -0.7460   -1.4190 ha        1 JA2      0.131000
     20 H7          1.9330   -1.4810   -1.5290 ha        1 JA2      0.134000
     21 H10        -2.3730    0.5740    1.4090 hc        1 JA2      0.070700
     22 H10A       -1.7190    0.9450    3.0570 hc        1 JA2      0.070700
     23 H11        -1.3630   -1.5350    3.4530 hc        1 JA2      0.047200
     24 H11A       -2.0900   -1.8890    1.8370 hc        1 JA2      0.047200
     25 H12        -3.4850   -0.3930    4.1640 hc        1 JA2      0.043200
     26 H12A       -4.2110   -0.7130    2.5420 hc        1 JA2      0.043200
     27 H13        -3.1910   -2.8720    4.5180 hc        1 JA2      0.048200
     28 H13A       -3.9270   -3.1890    2.8980 hc        1 JA2      0.048200
     29 H14        -5.2810   -1.6580    5.2350 h1        1 JA2      0.024700
     30 H14A       -6.0320   -1.9830    3.6150 h1        1 JA2      0.024700
     31 HN15       -6.6930   -3.5730    5.2890 hn        1 JA2      0.349300
     32 HN1A       -5.1780   -4.1720    5.3670 hn        1 JA2      0.349300
@<TRIPOS>BOND
     1    1    2 1   
     2    1    8 1   
     3    1   16 1   
     4    2    3 ar  
     5    2    7 ar  
     6    3    4 ar  
     7    3    9 1   
     8    4    5 ar  
     9    4   17 1   
    10    5    6 ar  
    11    5   18 1   
    12    6    7 ar  
    13    6   19 1   
    14    7   20 1   
    15    8    9 2   
    16    8   10 1   
    17   10   11 1   
    18   10   21 1   
    19   10   22 1   
    20   11   12 1   
    21   11   23 1   
    22   11   24 1   
    23   12   13 1   
    24   12   25 1   
    25   12   26 1   
    26   13   14 1   
    27   13   27 1   
    28   13   28 1   
    29   14   15 1   
    30   14   29 1   
    31   14   30 1   
    32   15   31 1   
    33   15   32 1   
@<TRIPOS>SUBSTRUCTURE
     1 JA2         1 TEMP              0 ****  ****    0 ROOT
