@<TRIPOS>MOLECULE
JA2
   33    34     1     0     0
SMALL
bcc


@<TRIPOS>ATOM
      1 N1          0.0460    0.2140   -0.0770 na        1 JA2     -0.281300
      2 C2          1.4420    0.1930   -0.0450 ca        1 JA2     -0.067200
      3 C3          1.8010   -0.4760    1.1930 ca        1 JA2      0.062400
      4 C4          3.1560   -0.6530    1.5130 ca        1 JA2     -0.069000
      5 C5          4.1060   -0.1760    0.6240 ca        1 JA2     -0.146000
      6 C6          3.7460    0.4710   -0.5730 ca        1 JA2     -0.102000
      7 C7          2.4200    0.6670   -0.9290 ca        1 JA2     -0.133000
      8 C8         -0.3940   -0.4230    1.1070 cc        1 JA2      0.395800
      9 N9          0.6290   -0.8440    1.8810 nd        1 JA2     -0.573100
     10 C10        -1.8510   -0.5770    1.4010 c3        1 JA2     -0.085700
     11 C11        -2.0840   -1.2920    2.7170 c3        1 JA2     -0.074400
     12 C12        -3.5670   -1.4380    2.9980 c3        1 JA2     -0.080400
     13 C13        -3.7700   -2.1560    4.3190 c3        1 JA2     -0.111400
     14 C14        -5.2600   -2.2970    4.5950 c3        1 JA2      0.099800
     15 N15        -5.5380   -2.9980    5.8860 n4        1 JA2     -0.839600
     16 HN1        -0.5190    0.5980   -0.7850 hn        1 JA2      0.306700
     17 H4          3.4470   -1.1570    2.4460 ha        1 JA2      0.148000
     18 H5          5.1750   -0.3030    0.8550 ha        1 JA2      0.141000
     19 H6          4.5420    0.8310   -1.2440 ha        1 JA2      0.141000
     20 H7          2.1470    1.1730   -1.8650 ha        1 JA2      0.141000
     21 H10        -2.3260    0.4410    1.4320 hc        1 JA2      0.058700
     22 H10A       -2.3330   -1.1540    0.5650 hc        1 JA2      0.058700
     23 H11        -1.6030   -2.3050    2.6860 hc        1 JA2      0.070700
     24 H11A       -1.5970   -0.7170    3.5490 hc        1 JA2      0.070700
     25 H12        -4.0560   -2.0150    2.1700 hc        1 JA2      0.054700
     26 H12A       -4.0490   -0.4250    3.0350 hc        1 JA2      0.054700
     27 H13        -3.2710   -1.5720    5.1380 hc        1 JA2      0.073700
     28 H13A       -3.2810   -3.1660    4.2700 hc        1 JA2      0.073700
     29 H14        -5.7540   -2.8890    3.7710 hx        1 JA2      0.113700
     30 H14A       -5.7440   -1.2780    4.6490 hx        1 JA2      0.113700
     31 HN15       -5.1300   -3.9390    5.8680 hn        1 JA2      0.461467
     32 HN1A       -6.5480   -3.0740    6.0370 hn        1 JA2      0.461467
     33 H153       -5.1200   -2.4780    6.6650 hn        1 JA2      0.461467
@<TRIPOS>BOND
     1    1    2 1   
     2    1    8 1   
     3    1   16 1   
     4    2    3 ar  
     5    2    7 ar  
     6    3    4 ar  
     7    3    9 1   
     8    4    5 ar  
     9    4   17 1   
    10    5    6 ar  
    11    5   18 1   
    12    6    7 ar  
    13    6   19 1   
    14    7   20 1   
    15    8    9 2   
    16    8   10 1   
    17   10   11 1   
    18   10   21 1   
    19   10   22 1   
    20   11   12 1   
    21   11   23 1   
    22   11   24 1   
    23   12   13 1   
    24   12   25 1   
    25   12   26 1   
    26   13   14 1   
    27   13   27 1   
    28   13   28 1   
    29   14   15 1   
    30   14   29 1   
    31   14   30 1   
    32   15   31 1   
    33   15   32 1   
    34   15   33 1   
@<TRIPOS>SUBSTRUCTURE
     1 JA2         1 TEMP              0 ****  ****    0 ROOT
