@<TRIPOS>MOLECULE
JA3
   29    30     1     0     0
SMALL
bcc


@<TRIPOS>ATOM
      1 F1         -0.3960    0.1540    0.1860 f         1 JA3     -0.135900
      2 C8          0.9530    0.2250    0.0690 ca        1 JA3      0.102900
      3 C9          1.7840    0.0010    1.1920 ca        1 JA3     -0.072300
      4 C10         1.2050   -0.3200    2.5260 c3        1 JA3     -0.042100
      5 C11         1.3730    0.8170    3.5060 c3        1 JA3     -0.090100
      6 C12         3.1680    0.0770    1.0410 ca        1 JA3     -0.132000
      7 C           3.7340    0.3680   -0.2080 ca        1 JA3      0.127100
      8 O           5.1010    0.4330   -0.2810 oh        1 JA3     -0.486100
      9 C7          1.5060    0.5230   -1.1880 ca        1 JA3     -0.149000
     10 C1          2.8930    0.5880   -1.3170 ca        1 JA3      0.015100
     11 O1          3.5150    0.9930   -2.4990 os        1 JA3     -0.236200
     12 C2          3.2040    0.2590   -3.6340 ca        1 JA3     -0.036200
     13 C6          3.4770    0.9070   -4.8800 ca        1 JA3      0.603500
     14 F           3.9590    2.1710   -4.8870 f         1 JA3     -0.204200
     15 N           3.2790    0.2890   -6.0760 nb        1 JA3     -0.665000
     16 C5          2.8040   -0.9680   -6.0470 ca        1 JA3      0.399200
     17 C4          2.5080   -1.6750   -4.8690 ca        1 JA3     -0.232300
     18 C3          2.7130   -1.0490   -3.6400 ca        1 JA3     -0.121000
     19 H7          0.8550    0.7040   -2.0550 ha        1 JA3      0.165000
     20 H101        1.7130   -1.2390    2.9290 hc        1 JA3      0.058700
     21 H102        0.1130   -0.5630    2.4200 hc        1 JA3      0.058700
     22 H12         3.8320   -0.0900    1.9030 ha        1 JA3      0.163000
     23 H111        0.8360    1.7280    3.1490 hc        1 JA3      0.040367
     24 H112        2.4540    1.0720    3.6320 hc        1 JA3      0.040367
     25 H113        0.9570    0.5260    4.5000 hc        1 JA3      0.040367
     26 H           5.3430    0.6780   -1.1890 ho        1 JA3      0.440000
     27 H3          2.4900   -1.5620   -2.6920 ha        1 JA3      0.161000
     28 H5          2.6530   -1.4300   -7.0410 h4        1 JA3      0.035100
     29 H4          2.1230   -2.7030   -4.9180 ha        1 JA3      0.154000
@<TRIPOS>BOND
     1    1    2 1   
     2    2    3 ar  
     3    2    9 ar  
     4    3    4 1   
     5    3    6 ar  
     6    4    5 1   
     7    4   20 1   
     8    4   21 1   
     9    5   23 1   
    10    5   24 1   
    11    5   25 1   
    12    6    7 ar  
    13    6   22 1   
    14    7    8 1   
    15    7   10 ar  
    16    8   26 1   
    17    9   10 ar  
    18    9   19 1   
    19   10   11 1   
    20   11   12 1   
    21   12   13 ar  
    22   12   18 ar  
    23   13   14 1   
    24   13   15 ar  
    25   15   16 ar  
    26   16   17 ar  
    27   16   28 1   
    28   17   18 ar  
    29   17   29 1   
    30   18   27 1   
@<TRIPOS>SUBSTRUCTURE
     1 JA3         1 TEMP              0 ****  ****    0 ROOT
