@<TRIPOS>MOLECULE
JAC
   44    47     1     0     0
SMALL
bcc


@<TRIPOS>ATOM
      1 C1         -0.0730    0.4290   -0.0520 c3        1 JAC      0.632600
      2 F1          0.9960   -0.3720   -0.3650 f         1 JAC     -0.230300
      3 N1          0.1880    0.4090    2.4570 nc        1 JAC     -0.450800
      4 O1         -4.1780   -0.9730    1.8310 os        1 JAC     -0.408600
      5 C2         -0.6020    0.2410    1.3530 cd        1 JAC      0.233600
      6 F2          0.3600    1.7030   -0.3220 f         1 JAC     -0.230300
      7 N2         -0.5760    0.1610    3.5300 na        1 JAC      0.191300
      8 O2          0.5210   -1.9140   10.1210 o         1 JAC     -0.628500
      9 C3         -1.8910   -0.1710    3.1580 cc        1 JAC     -0.085600
     10 F3         -0.9950    0.1670   -1.0350 f         1 JAC     -0.230300
     11 N3          2.1780   -0.4330    9.3970 n         1 JAC     -0.473800
     12 C4         -3.0710   -0.5100    3.9750 c3        1 JAC     -0.047100
     13 C5         -4.3180   -0.3490    3.1010 c3        1 JAC      0.130400
     14 C6         -3.1730   -0.3910    0.9970 c3        1 JAC      0.201700
     15 C7         -1.9350   -0.1260    1.7490 cd        1 JAC     -0.240600
     16 C8         -0.0880    0.2730    4.8690 ca        1 JAC      0.009800
     17 C9         -0.5200   -0.6380    5.8550 ca        1 JAC     -0.124000
     18 C10        -0.0490   -0.5170    7.1580 ca        1 JAC     -0.109000
     19 C11         0.8600    0.4900    7.4980 ca        1 JAC     -0.115300
     20 C12         1.3320    0.6210    8.9210 c3        1 JAC      0.146300
     21 C13         3.5780   -0.5030    9.0180 c3        1 JAC      0.081000
     22 C14         4.0830   -1.9090    9.4110 c3        1 JAC     -0.093400
     23 C15         2.8700   -2.6480    9.9670 c3        1 JAC     -0.158400
     24 C16         1.7060   -1.6730    9.8450 c         1 JAC      0.694500
     25 C17         1.2960    1.3830    6.5170 ca        1 JAC     -0.109000
     26 C18         0.8290    1.2860    5.2090 ca        1 JAC     -0.124000
     27 H4         -3.1540    0.1480    4.8790 hc        1 JAC      0.071700
     28 H4A        -2.9940   -1.5750    4.3240 hc        1 JAC      0.071700
     29 H5         -4.5570    0.7390    2.9670 h1        1 JAC      0.057700
     30 H5A        -5.1900   -0.8810    3.5660 h1        1 JAC      0.057700
     31 H6         -3.0160   -1.1510    0.1830 h1        1 JAC      0.070200
     32 H6A        -3.5700    0.5630    0.5530 h1        1 JAC      0.070200
     33 H9         -1.2220   -1.4490    5.6050 ha        1 JAC      0.154500
     34 H10        -0.3880   -1.2250    7.9350 ha        1 JAC      0.153500
     35 H12         0.4200    0.6470    9.5910 h1        1 JAC      0.070700
     36 H12A        1.8940    1.5920    9.0400 h1        1 JAC      0.070700
     37 H13         4.1460    0.2950    9.5690 h1        1 JAC      0.048700
     38 H13A        3.7040   -0.3270    7.9150 h1        1 JAC      0.048700
     39 H14         4.8920   -1.8290   10.1760 hc        1 JAC      0.058700
     40 H14A        4.5010   -2.4330    8.5180 hc        1 JAC      0.058700
     41 H15         3.0050   -2.9300   11.0400 hc        1 JAC      0.083200
     42 H15A        2.6360   -3.5720    9.3850 hc        1 JAC      0.083200
     43 H17         2.0130    2.1780    6.7740 ha        1 JAC      0.153500
     44 H18         1.1900    2.0000    4.4510 ha        1 JAC      0.154500
@<TRIPOS>BOND
     1    1    2 1   
     2    1    5 1   
     3    1    6 1   
     4    1   10 1   
     5    3    5 2   
     6    3    7 1   
     7    4   13 1   
     8    4   14 1   
     9    5   15 1   
    10    7    9 1   
    11    7   16 1   
    12    8   24 2   
    13    9   12 1   
    14    9   15 2   
    15   11   20 1   
    16   11   21 1   
    17   11   24 1   
    18   12   13 1   
    19   12   27 1   
    20   12   28 1   
    21   13   29 1   
    22   13   30 1   
    23   14   15 1   
    24   14   31 1   
    25   14   32 1   
    26   16   17 ar  
    27   16   26 ar  
    28   17   18 ar  
    29   17   33 1   
    30   18   19 ar  
    31   18   34 1   
    32   19   20 1   
    33   19   25 ar  
    34   20   35 1   
    35   20   36 1   
    36   21   22 1   
    37   21   37 1   
    38   21   38 1   
    39   22   23 1   
    40   22   39 1   
    41   22   40 1   
    42   23   24 1   
    43   23   41 1   
    44   23   42 1   
    45   25   26 ar  
    46   25   43 1   
    47   26   44 1   
@<TRIPOS>SUBSTRUCTURE
     1 JAC         1 TEMP              0 ****  ****    0 ROOT
