@<TRIPOS>MOLECULE
JAC
   44    47     1     0     0
SMALL
bcc


@<TRIPOS>ATOM
      1 C1         -4.3530   -1.7980   -0.2410 c3        1 JAC      0.632600
      2 F1         -4.1300   -2.8840    0.5670 f         1 JAC     -0.230300
      3 N1         -1.9580   -1.0530   -0.5090 nc        1 JAC     -0.450800
      4 O1         -4.0890    2.7500    1.0270 os        1 JAC     -0.408600
      5 C2         -3.2570   -0.7550   -0.2010 cd        1 JAC      0.233600
      6 F2         -4.5730   -2.3330   -1.4860 f         1 JAC     -0.230300
      7 N2         -1.2500    0.0770   -0.3680 na        1 JAC      0.191300
      8 O2          5.4290    1.7050    0.9280 o         1 JAC     -0.628500
      9 C3         -2.0690    1.1480    0.0330 cc        1 JAC     -0.085600
     10 F3         -5.5840   -1.3290    0.1500 f         1 JAC     -0.230300
     11 N3          5.2530   -0.1390   -0.4970 n         1 JAC     -0.473800
     12 C4         -1.7490    2.5620    0.3020 c3        1 JAC     -0.047100
     13 C5         -3.0540    3.3610    0.2680 c3        1 JAC      0.130400
     14 C6         -4.5200    1.4840    0.5220 c3        1 JAC      0.201700
     15 C7         -3.3780    0.6340    0.1470 cd        1 JAC     -0.240600
     16 C8          0.1500    0.1510   -0.6390 ca        1 JAC      0.009800
     17 C9          0.9830    0.9560    0.1630 ca        1 JAC     -0.124000
     18 C10         2.3440    1.0320   -0.1140 ca        1 JAC     -0.109000
     19 C11         2.8990    0.3050   -1.1730 ca        1 JAC     -0.115300
     20 C12         4.3690    0.4260   -1.4720 c3        1 JAC      0.146300
     21 C13         5.4640   -1.5740   -0.4150 c3        1 JAC      0.081000
     22 C14         6.1780   -1.8490    0.9270 c3        1 JAC     -0.093400
     23 C15         6.2930   -0.4970    1.6240 c3        1 JAC     -0.158400
     24 C16         5.6150    0.5010    0.6940 c         1 JAC      0.694500
     25 C17         2.0740   -0.5020   -1.9580 ca        1 JAC     -0.109000
     26 C18         0.7070   -0.5850   -1.7050 ca        1 JAC     -0.124000
     27 H4         -1.2810    2.6540    1.3200 hc        1 JAC      0.071700
     28 H4A        -1.0300    2.9770   -0.4510 hc        1 JAC      0.071700
     29 H5         -3.3920    3.5020   -0.7930 h1        1 JAC      0.057700
     30 H5A        -2.9120    4.3590    0.7620 h1        1 JAC      0.057700
     31 H6         -5.1170    1.0390    1.3650 h1        1 JAC      0.070200
     32 H6A        -5.1890    1.6520   -0.3670 h1        1 JAC      0.070200
     33 H9          0.5700    1.5240    1.0120 ha        1 JAC      0.154500
     34 H10         2.9990    1.6660    0.5090 ha        1 JAC      0.153500
     35 H12         4.6190    1.5260   -1.5550 h1        1 JAC      0.070700
     36 H12A        4.5890   -0.0680   -2.4630 h1        1 JAC      0.070700
     37 H13         4.4860   -2.1260   -0.4680 h1        1 JAC      0.048700
     38 H13A        6.1010   -1.9000   -1.2820 h1        1 JAC      0.048700
     39 H14         5.5850   -2.5700    1.5390 hc        1 JAC      0.058700
     40 H14A        7.1860   -2.2950    0.7450 hc        1 JAC      0.058700
     41 H15         5.7730   -0.4870    2.6130 hc        1 JAC      0.083200
     42 H15A        7.3570   -0.1940    1.7810 hc        1 JAC      0.083200
     43 H17         2.5010   -1.0820   -2.7920 ha        1 JAC      0.153500
     44 H18         0.0770   -1.2310   -2.3360 ha        1 JAC      0.154500
@<TRIPOS>BOND
     1    1    2 1   
     2    1    5 1   
     3    1    6 1   
     4    1   10 1   
     5    3    5 2   
     6    3    7 1   
     7    4   13 1   
     8    4   14 1   
     9    5   15 1   
    10    7    9 1   
    11    7   16 1   
    12    8   24 2   
    13    9   12 1   
    14    9   15 2   
    15   11   20 1   
    16   11   21 1   
    17   11   24 1   
    18   12   13 1   
    19   12   27 1   
    20   12   28 1   
    21   13   29 1   
    22   13   30 1   
    23   14   15 1   
    24   14   31 1   
    25   14   32 1   
    26   16   17 ar  
    27   16   26 ar  
    28   17   18 ar  
    29   17   33 1   
    30   18   19 ar  
    31   18   34 1   
    32   19   20 1   
    33   19   25 ar  
    34   20   35 1   
    35   20   36 1   
    36   21   22 1   
    37   21   37 1   
    38   21   38 1   
    39   22   23 1   
    40   22   39 1   
    41   22   40 1   
    42   23   24 1   
    43   23   41 1   
    44   23   42 1   
    45   25   26 ar  
    46   25   43 1   
    47   26   44 1   
@<TRIPOS>SUBSTRUCTURE
     1 JAC         1 TEMP              0 ****  ****    0 ROOT
