@<TRIPOS>MOLECULE
JAC
   44    43     1     0     0
SMALL
bcc


@<TRIPOS>ATOM
      1 C1          3.4320   -1.7560   -3.5970 c3        1 JAC      0.514000
      2 F1          4.2130   -0.8990   -4.2620 f         1 JAC     -0.159000
      3 N1          1.9470   -1.0410   -1.8420 n2        1 JAC     -0.015000
      4 O1          5.9600   -0.4000    0.4110 os        1 JAC     -0.265000
      5 C2          3.2500   -1.2700   -2.1630 c2        1 JAC     -0.189000
      6 F2          2.2320   -1.8320   -4.2020 f         1 JAC     -0.159000
      7 N2          1.9090   -0.4230   -0.5800 n3        1 JAC     -0.048000
      8 O2         -3.9670    1.7390   -1.0990 o         1 JAC     -0.350000
      9 C3          3.1650   -0.2830   -0.1490 c1        1 JAC     -0.056000
     10 F3          4.0000   -2.9580   -3.5870 f         1 JAC     -0.159000
     11 N3         -4.0880    0.7000    1.1620 n         1 JAC     -0.332000
     12 C4          3.8100    0.4200    1.0590 c2        1 JAC     -0.132000
     13 C5          5.2350    0.6020    1.0100 c3        1 JAC     -0.019000
     14 C6          5.5930   -0.7890   -0.8400 c3        1 JAC      0.044000
     15 C7          4.0250   -0.8120   -1.1350 c2        1 JAC     -0.167000
     16 C8          0.7030   -0.0460   -0.0380 c1        1 JAC      0.054000
     17 C9          0.1870    1.2020   -0.3090 c1        1 JAC     -0.107500
     18 C10        -1.0120    1.5970    0.2630 c1        1 JAC     -0.107500
     19 C11        -1.6910    0.7400    1.1050 c1        1 JAC     -0.108000
     20 C12        -2.9040    1.2140    1.8220 c3        1 JAC      0.022000
     21 C13        -5.0200    0.1250    1.7000 c3        1 JAC     -0.035000
     22 C14        -5.9360   -0.5370    0.4880 c3        1 JAC     -0.172000
     23 C15        -5.9830    0.3250   -0.4660 c3        1 JAC     -0.187000
     24 C16        -4.6130    1.1280   -0.2320 c2        1 JAC      0.301000
     25 C17        -1.1730   -0.5160    1.3790 c1        1 JAC     -0.113000
     26 C18         0.0200   -0.9090    0.8100 c1        1 JAC     -0.137000
     27 H4          3.3960    1.3010    1.1520 ha        1 JAC      0.109500
     28 H4A         3.6000   -0.1020    1.8600 ha        1 JAC      0.109500
     29 H5          5.3990    1.4170    0.4960 h1        1 JAC      0.097000
     30 H5A         5.5430    0.6610    1.9340 h1        1 JAC      0.097000
     31 H6          5.9970   -0.1410   -1.4730 h1        1 JAC      0.110000
     32 H6A         5.9190   -1.7040   -0.9610 h1        1 JAC      0.110000
     33 H9          0.6590    1.8000   -0.8960 ha        1 JAC      0.165000
     34 H10        -1.3740    2.4740    0.0720 ha        1 JAC      0.165000
     35 H12        -2.9240    2.1940    1.8150 h1        1 JAC      0.110000
     36 H12A       -2.8820    0.8940    2.7490 h1        1 JAC      0.110000
     37 H13        -4.6810   -0.5840    2.2930 h1        1 JAC      0.087000
     38 H13A       -5.5530    0.7600    2.2120 h1        1 JAC      0.087000
     39 H14        -5.5240   -1.3580    0.1730 hc        1 JAC      0.098000
     40 H14A       -6.8550   -0.7240    0.8220 hc        1 JAC      0.098000
     41 H15        -6.8130    0.8920   -0.6000 hc        1 JAC      0.123000
     42 H15A       -5.9500   -0.1720   -1.3320 hc        1 JAC      0.123000
     43 H17        -1.6490   -1.1150    1.9680 ha        1 JAC      0.139000
     44 H18         0.3930   -1.8130    1.0080 ha        1 JAC      0.146000
@<TRIPOS>BOND
     1    1    2 1   
     2    1    5 1   
     3    1    6 1   
     4    1   10 1   
     5    3    5 1   
     6    3    7 1   
     7    4   13 1   
     8    4   14 1   
     9    5   15 1   
    10    7    9 1   
    11    7   16 1   
    12    8   24 1   
    13    9   15 1   
    14   11   20 1   
    15   11   21 1   
    16   11   24 1   
    17   12   13 1   
    18   12   27 1   
    19   12   28 1   
    20   13   29 1   
    21   13   30 1   
    22   14   15 1   
    23   14   31 1   
    24   14   32 1   
    25   16   26 1   
    26   17   18 1   
    27   17   33 1   
    28   18   34 1   
    29   19   20 1   
    30   19   25 1   
    31   20   35 1   
    32   20   36 1   
    33   21   22 1   
    34   21   37 1   
    35   21   38 1   
    36   22   23 1   
    37   22   39 1   
    38   22   40 1   
    39   23   24 1   
    40   23   41 1   
    41   23   42 1   
    42   25   43 1   
    43   26   44 1   
@<TRIPOS>SUBSTRUCTURE
     1 JAC         1 TEMP              0 ****  ****    0 ROOT
