@<TRIPOS>MOLECULE
JAC
   44    47     1     0     0
SMALL
bcc


@<TRIPOS>ATOM
      1 C1         -0.0770    0.4420   -0.0490 c3        1 JAC      0.632600
      2 F1          0.9930   -0.3570   -0.3660 f         1 JAC     -0.230300
      3 N1          0.1860    0.4150    2.4590 nc        1 JAC     -0.450800
      4 O1         -4.1790   -0.9710    1.8320 os        1 JAC     -0.408600
      5 C2         -0.6050    0.2490    1.3560 cd        1 JAC      0.233600
      6 F2          0.3540    1.7170   -0.3160 f         1 JAC     -0.230300
      7 N2         -0.5780    0.1630    3.5330 na        1 JAC      0.191300
      8 O2          0.5250   -1.9290   10.1170 o         1 JAC     -0.628500
      9 C3         -1.8920   -0.1700    3.1600 cc        1 JAC     -0.085600
     10 F3         -1.0000    0.1810   -1.0330 f         1 JAC     -0.230300
     11 N3          2.1800   -0.4450    9.3960 n         1 JAC     -0.473800
     12 C4         -3.0710   -0.5130    3.9770 c3        1 JAC     -0.047100
     13 C5         -4.3190   -0.3510    3.1040 c3        1 JAC      0.130400
     14 C6         -3.1750   -0.3860    1.0000 c3        1 JAC      0.201700
     15 C7         -1.9370   -0.1210    1.7510 cd        1 JAC     -0.240600
     16 C8         -0.0890    0.2710    4.8710 ca        1 JAC      0.009800
     17 C9         -0.5190   -0.6430    5.8550 ca        1 JAC     -0.124000
     18 C10        -0.0470   -0.5250    7.1580 ca        1 JAC     -0.109000
     19 C11         0.8600    0.4820    7.5010 ca        1 JAC     -0.115300
     20 C12         1.3330    0.6100    8.9240 c3        1 JAC      0.146300
     21 C13         3.5810   -0.5120    9.0160 c3        1 JAC      0.081000
     22 C14         4.0880   -1.9190    9.4040 c3        1 JAC     -0.093400
     23 C15         2.8750   -2.6610    9.9600 c3        1 JAC     -0.158400
     24 C16         1.7100   -1.6860    9.8400 c         1 JAC      0.694500
     25 C17         1.2940    1.3780    6.5220 ca        1 JAC     -0.109000
     26 C18         0.8270    1.2850    5.2130 ca        1 JAC     -0.124000
     27 H4         -2.9930   -1.5790    4.3230 hc        1 JAC      0.071700
     28 H4A        -3.1550    0.1420    4.8830 hc        1 JAC      0.071700
     29 H5         -5.1900   -0.8850    3.5680 h1        1 JAC      0.057700
     30 H5A        -4.5590    0.7370    2.9730 h1        1 JAC      0.057700
     31 H6         -3.0180   -1.1430    0.1830 h1        1 JAC      0.070200
     32 H6A        -3.5740    0.5690    0.5580 h1        1 JAC      0.070200
     33 H9         -1.2200   -1.4540    5.6030 ha        1 JAC      0.154500
     34 H10        -0.3850   -1.2360    7.9330 ha        1 JAC      0.153500
     35 H12         0.4220    0.6330    9.5940 h1        1 JAC      0.070700
     36 H12A        1.8940    1.5810    9.0450 h1        1 JAC      0.070700
     37 H13         3.7050   -0.3330    7.9130 h1        1 JAC      0.048700
     38 H13A        4.1480    0.2850    9.5680 h1        1 JAC      0.048700
     39 H14         4.5050   -2.4400    8.5090 hc        1 JAC      0.058700
     40 H14A        4.8970   -1.8410   10.1690 hc        1 JAC      0.058700
     41 H15         3.0110   -2.9460   11.0320 hc        1 JAC      0.083200
     42 H15A        2.6420   -3.5830    9.3750 hc        1 JAC      0.083200
     43 H17         2.0110    2.1740    6.7800 ha        1 JAC      0.153500
     44 H18         1.1860    2.0010    4.4570 ha        1 JAC      0.154500
@<TRIPOS>BOND
     1    1    2 1   
     2    1    5 1   
     3    1    6 1   
     4    1   10 1   
     5    3    5 2   
     6    3    7 1   
     7    4   13 1   
     8    4   14 1   
     9    5   15 1   
    10    7    9 1   
    11    7   16 1   
    12    8   24 2   
    13    9   12 1   
    14    9   15 2   
    15   11   20 1   
    16   11   21 1   
    17   11   24 1   
    18   12   13 1   
    19   12   27 1   
    20   12   28 1   
    21   13   29 1   
    22   13   30 1   
    23   14   15 1   
    24   14   31 1   
    25   14   32 1   
    26   16   17 ar  
    27   16   26 ar  
    28   17   18 ar  
    29   17   33 1   
    30   18   19 ar  
    31   18   34 1   
    32   19   20 1   
    33   19   25 ar  
    34   20   35 1   
    35   20   36 1   
    36   21   22 1   
    37   21   37 1   
    38   21   38 1   
    39   22   23 1   
    40   22   39 1   
    41   22   40 1   
    42   23   24 1   
    43   23   41 1   
    44   23   42 1   
    45   25   26 ar  
    46   25   43 1   
    47   26   44 1   
@<TRIPOS>SUBSTRUCTURE
     1 JAC         1 TEMP              0 ****  ****    0 ROOT
