@<TRIPOS>MOLECULE
JAC
   44    47     1     0     0
SMALL
bcc


@<TRIPOS>ATOM
      1 C1         -0.0750    0.4270   -0.0510 c3        1 JAC      0.632600
      2 F1          0.9980   -0.3680   -0.3640 f         1 JAC     -0.230300
      3 N1          0.1850    0.4080    2.4570 nc        1 JAC     -0.450800
      4 O1         -4.1750   -0.9930    1.8300 os        1 JAC     -0.408600
      5 C2         -0.6040    0.2360    1.3540 cd        1 JAC      0.233600
      6 F2          0.3510    1.7030   -0.3220 f         1 JAC     -0.230300
      7 N2         -0.5790    0.1570    3.5310 na        1 JAC      0.191300
      8 O2          0.5300   -1.9150   10.1200 o         1 JAC     -0.628500
      9 C3         -1.8920   -0.1810    3.1580 cc        1 JAC     -0.085600
     10 F3         -0.9960    0.1600   -1.0350 f         1 JAC     -0.230300
     11 N3          2.1780   -0.4230    9.3970 n         1 JAC     -0.473800
     12 C4         -3.0710   -0.5250    3.9740 c3        1 JAC     -0.047100
     13 C5         -4.3180   -0.3700    3.1000 c3        1 JAC      0.130400
     14 C6         -3.1720   -0.4070    0.9970 c3        1 JAC      0.201700
     15 C7         -1.9350   -0.1360    1.7490 cd        1 JAC     -0.240600
     16 C8         -0.0920    0.2710    4.8700 ca        1 JAC      0.009800
     17 C9         -0.5190   -0.6410    5.8560 ca        1 JAC     -0.124000
     18 C10        -0.0490   -0.5190    7.1590 ca        1 JAC     -0.109000
     19 C11         0.8540    0.4930    7.4990 ca        1 JAC     -0.115300
     20 C12         1.3250    0.6260    8.9220 c3        1 JAC      0.146300
     21 C13         3.5780   -0.4840    9.0190 c3        1 JAC      0.081000
     22 C14         4.0920   -1.8870    9.4100 c3        1 JAC     -0.093400
     23 C15         2.8830   -2.6340    9.9660 c3        1 JAC     -0.158400
     24 C16         1.7130   -1.6660    9.8440 c         1 JAC      0.694500
     25 C17         1.2860    1.3880    6.5190 ca        1 JAC     -0.109000
     26 C18         0.8200    1.2900    5.2100 ca        1 JAC     -0.124000
     27 H4         -2.9890   -1.5900    4.3240 hc        1 JAC      0.071700
     28 H4A        -3.1570    0.1320    4.8780 hc        1 JAC      0.071700
     29 H5         -5.1880   -0.9060    3.5650 h1        1 JAC      0.057700
     30 H5A        -4.5620    0.7170    2.9660 h1        1 JAC      0.057700
     31 H6         -3.0110   -1.1660    0.1820 h1        1 JAC      0.070200
     32 H6A        -3.5740    0.5450    0.5520 h1        1 JAC      0.070200
     33 H9         -1.2170   -1.4560    5.6050 ha        1 JAC      0.154500
     34 H10        -0.3850   -1.2280    7.9350 ha        1 JAC      0.153500
     35 H12         1.8810    1.6010    9.0420 h1        1 JAC      0.070700
     36 H12A        0.4140    0.6470    9.5920 h1        1 JAC      0.070700
     37 H13         3.7030   -0.3050    7.9160 h1        1 JAC      0.048700
     38 H13A        4.1410    0.3170    9.5700 h1        1 JAC      0.048700
     39 H14         4.5130   -2.4080    8.5160 hc        1 JAC      0.058700
     40 H14A        4.9010   -1.8030   10.1750 hc        1 JAC      0.058700
     41 H15         3.0200   -2.9170   11.0380 hc        1 JAC      0.083200
     42 H15A        2.6550   -3.5590    9.3820 hc        1 JAC      0.083200
     43 H17         1.9990    2.1870    6.7750 ha        1 JAC      0.153500
     44 H18         1.1770    2.0050    4.4520 ha        1 JAC      0.154500
@<TRIPOS>BOND
     1    1    2 1   
     2    1    5 1   
     3    1    6 1   
     4    1   10 1   
     5    3    5 2   
     6    3    7 1   
     7    4   13 1   
     8    4   14 1   
     9    5   15 1   
    10    7    9 1   
    11    7   16 1   
    12    8   24 2   
    13    9   12 1   
    14    9   15 2   
    15   11   20 1   
    16   11   21 1   
    17   11   24 1   
    18   12   13 1   
    19   12   27 1   
    20   12   28 1   
    21   13   29 1   
    22   13   30 1   
    23   14   15 1   
    24   14   31 1   
    25   14   32 1   
    26   16   17 ar  
    27   16   26 ar  
    28   17   18 ar  
    29   17   33 1   
    30   18   19 ar  
    31   18   34 1   
    32   19   20 1   
    33   19   25 ar  
    34   20   35 1   
    35   20   36 1   
    36   21   22 1   
    37   21   37 1   
    38   21   38 1   
    39   22   23 1   
    40   22   39 1   
    41   22   40 1   
    42   23   24 1   
    43   23   41 1   
    44   23   42 1   
    45   25   26 ar  
    46   25   43 1   
    47   26   44 1   
@<TRIPOS>SUBSTRUCTURE
     1 JAC         1 TEMP              0 ****  ****    0 ROOT
