@<TRIPOS>MOLECULE
JAD
   37    39     1     0     0
SMALL
bcc


@<TRIPOS>ATOM
      1 Cl1         0.0380   -0.4250   -0.1650 cl        1 JAD     -0.067400
      2 C3          1.7220   -0.1940   -0.1440 ca        1 JAD      0.038400
      3 C2          2.3790   -0.0370    1.0880 ca        1 JAD     -0.003000
      4 C7          1.6550   -0.0670    2.3120 cg        1 JAD      0.232800
      5 N1          1.0710   -0.0890    3.3170 n1        1 JAD     -0.346800
      6 C4          2.4420   -0.1660   -1.3520 ca        1 JAD     -0.057300
      7 C8          1.7360   -0.3710   -2.6390 c3        1 JAD     -0.059800
      8 C5          3.8310    0.0470   -1.3040 ca        1 JAD     -0.073900
      9 C6          4.4860    0.1880   -0.0730 ca        1 JAD     -0.104000
     10 C1          3.7670    0.1480    1.1160 ca        1 JAD     -0.093000
     11 C9          4.6270    0.1230   -2.5280 ce        1 JAD      0.318900
     12 C11         4.5900    1.3570   -3.4570 c3        1 JAD      0.072800
     13 O2          5.1030    2.5210   -2.8340 os        1 JAD     -0.392600
     14 C15         4.1200    3.2910   -2.1590 c3        1 JAD      0.109700
     15 C10         5.6390    0.9290   -4.5290 c3        1 JAD      0.117500
     16 C14         5.0440    0.7040   -5.9350 c3        1 JAD      0.134100
     17 O1          5.6490    1.6590   -6.7890 oh        1 JAD     -0.585800
     18 C13         5.4040   -0.7380   -6.3250 c3        1 JAD     -0.143400
     19 C12         6.2530   -1.3040   -5.1780 c3        1 JAD      0.165800
     20 N3          6.1880   -0.3850   -4.0230 nh        1 JAD     -0.386700
     21 N2          5.4770   -0.7970   -2.9340 n2        1 JAD     -0.389400
     22 H1          1.0180    0.4680   -2.8250 hc        1 JAD      0.055700
     23 H2          1.1540   -1.3270   -2.6120 hc        1 JAD      0.055700
     24 H3          2.4500   -0.4240   -3.4970 hc        1 JAD      0.055700
     25 H4          5.5780    0.3310   -0.0540 ha        1 JAD      0.161000
     26 H5          4.2860    0.2590    2.0810 ha        1 JAD      0.154000
     27 H7          3.5640    1.5290   -3.8690 h1        1 JAD      0.065700
     28 H8          3.6390    2.6910   -1.3480 h1        1 JAD      0.041033
     29 H9          3.3460    3.6580   -2.8780 h1        1 JAD      0.041033
     30 H10         4.6960    4.1490   -1.7300 h1        1 JAD      0.041033
     31 H11         6.4820    1.6710   -4.5720 h1        1 JAD      0.132700
     32 H12         3.9300    0.8540   -5.9400 h1        1 JAD      0.041700
     33 H13         5.3280    1.4800   -7.6810 ho        1 JAD      0.405000
     34 H14         5.9840   -0.7570   -7.2800 hc        1 JAD      0.060200
     35 H15         4.4770   -1.3450   -6.4660 hc        1 JAD      0.060200
     36 H16         5.9340   -2.3490   -4.9170 h1        1 JAD      0.072700
     37 H17         7.3370   -1.3310   -5.4740 h1        1 JAD      0.072700
@<TRIPOS>BOND
     1    1    2 1   
     2    2    3 ar  
     3    2    6 ar  
     4    3    4 1   
     5    3   10 ar  
     6    4    5 3   
     7    6    7 1   
     8    6    8 ar  
     9    7   22 1   
    10    7   23 1   
    11    7   24 1   
    12    8    9 ar  
    13    8   11 1   
    14    9   10 ar  
    15    9   25 1   
    16   10   26 1   
    17   11   12 1   
    18   11   21 2   
    19   12   13 1   
    20   12   15 1   
    21   12   27 1   
    22   13   14 1   
    23   14   28 1   
    24   14   29 1   
    25   14   30 1   
    26   15   16 1   
    27   15   20 1   
    28   15   31 1   
    29   16   17 1   
    30   16   18 1   
    31   16   32 1   
    32   17   33 1   
    33   18   19 1   
    34   18   34 1   
    35   18   35 1   
    36   19   20 1   
    37   19   36 1   
    38   19   37 1   
    39   20   21 1   
@<TRIPOS>SUBSTRUCTURE
     1 JAD         1 TEMP              0 ****  ****    0 ROOT
