@<TRIPOS>MOLECULE
JAD
   37    39     1     0     0
SMALL
bcc


@<TRIPOS>ATOM
      1 CL1         0.0430   -0.4340   -0.1550 cl        1 JAD     -0.066400
      2 C3          1.7240   -0.1840   -0.1460 ca        1 JAD      0.038400
      3 C2          2.3840    0.0080    1.0800 ca        1 JAD     -0.002000
      4 C7          1.6650   -0.0020    2.3070 cg        1 JAD      0.231800
      5 N1          1.0850   -0.0080    3.3150 n1        1 JAD     -0.344800
      6 C4          2.4400   -0.1740   -1.3570 ca        1 JAD     -0.056300
      7 C8          1.7310   -0.4170   -2.6360 c3        1 JAD     -0.060800
      8 C5          3.8260    0.0560   -1.3190 ca        1 JAD     -0.075900
      9 C6          4.4840    0.2320   -0.0940 ca        1 JAD     -0.105000
     10 C1          3.7700    0.2090    1.0980 ca        1 JAD     -0.094000
     11 C9          4.6170    0.1140   -2.5470 ce        1 JAD      0.317900
     12 C11         4.5690    1.3250   -3.5030 c3        1 JAD      0.068800
     13 O2          5.0580    2.5200   -2.9210 os        1 JAD     -0.399600
     14 C15         4.0760    3.2530   -2.2030 c3        1 JAD      0.109700
     15 C10         5.6310    0.8880   -4.5600 c3        1 JAD      0.077500
     16 C14         5.0610    0.6620   -5.9770 c3        1 JAD      0.137100
     17 O1          5.6920    1.4970   -6.9300 oh        1 JAD     -0.587800
     18 C13         5.4000   -0.7900   -6.3440 c3        1 JAD     -0.105400
     19 C12         6.2290   -1.3560   -5.1840 c3        1 JAD      0.161800
     20 N3          6.1730   -0.4230   -4.0390 nh        1 JAD     -0.384700
     21 N2          5.4660   -0.8140   -2.9410 n2        1 JAD     -0.385400
     22 H1          1.0020    0.4080   -2.8380 hc        1 JAD      0.056033
     23 H2          1.1620   -1.3810   -2.5850 hc        1 JAD      0.056033
     24 H3          2.4430   -0.4820   -3.4950 hc        1 JAD      0.056033
     25 H4          5.5750    0.3870   -0.0820 ha        1 JAD      0.160000
     26 H5          4.2910    0.3470    2.0590 ha        1 JAD      0.154000
     27 H7          3.5420    1.4680   -3.9240 h1        1 JAD      0.063700
     28 H8          4.6330    4.1440   -1.8170 h1        1 JAD      0.042033
     29 H9          3.2470    3.5710   -2.8830 h1        1 JAD      0.042033
     30 H10         3.6700    2.6430   -1.3590 h1        1 JAD      0.042033
     31 H11         6.4820    1.6210   -4.5840 h1        1 JAD      0.117700
     32 H12         3.9530    0.8420   -6.0010 h1        1 JAD      0.041700
     33 H13         5.5510    2.4090   -6.6460 ho        1 JAD      0.407000
     34 H14         4.4600   -1.3770   -6.4870 hc        1 JAD      0.069700
     35 H15         5.9840   -0.8220   -7.2970 hc        1 JAD      0.069700
     36 H16         5.8910   -2.3920   -4.9130 h1        1 JAD      0.073200
     37 H17         7.3160   -1.4050   -5.4700 h1        1 JAD      0.073200
@<TRIPOS>BOND
     1    1    2 1   
     2    2    3 ar  
     3    2    6 ar  
     4    3    4 1   
     5    3   10 ar  
     6    4    5 3   
     7    6    7 1   
     8    6    8 ar  
     9    7   22 1   
    10    7   23 1   
    11    7   24 1   
    12    8    9 ar  
    13    8   11 1   
    14    9   10 ar  
    15    9   25 1   
    16   10   26 1   
    17   11   12 1   
    18   11   21 2   
    19   12   13 1   
    20   12   15 1   
    21   12   27 1   
    22   13   14 1   
    23   14   28 1   
    24   14   29 1   
    25   14   30 1   
    26   15   16 1   
    27   15   20 1   
    28   15   31 1   
    29   16   17 1   
    30   16   18 1   
    31   16   32 1   
    32   17   33 1   
    33   18   19 1   
    34   18   34 1   
    35   18   35 1   
    36   19   20 1   
    37   19   36 1   
    38   19   37 1   
    39   20   21 1   
@<TRIPOS>SUBSTRUCTURE
     1 JAD         1 TEMP              0 ****  ****    0 ROOT
