@<TRIPOS>MOLECULE
JAF
   39    40     1     0     0
SMALL
bcc


@<TRIPOS>ATOM
      1 CAB         0.3220    0.4020    0.2770 c3        1 JAF     -0.087800
      2 CAO         1.7520    0.3160   -0.1090 ca        1 JAF     -0.008800
      3 CAK         2.7300    0.5600    0.8540 ca        1 JAF     -0.182000
      4 CAQ         4.0880    0.4430    0.5250 ca        1 JAF      0.185100
      5 OAF         5.0950    0.6780    1.4160 oh        1 JAF     -0.468100
      6 CAL         4.4820    0.0650   -0.7720 ca        1 JAF     -0.182000
      7 CAP         3.5200   -0.1840   -1.7450 ca        1 JAF     -0.008800
      8 CAC         3.9580   -0.6250   -3.0920 c3        1 JAF     -0.087800
      9 CAT         2.1470   -0.0270   -1.4250 ca        1 JAF     -0.089400
     10 NAM         1.1390   -0.2630   -2.4370 n4        1 JAF     -0.548300
     11 SAU         0.4490    1.2960   -3.4300 sy        1 JAF      1.492200
     12 OAD         0.3810    0.6870   -4.6710 o         1 JAF     -0.582800
     13 OAE        -0.6930    1.5160   -2.6840 o         1 JAF     -0.582800
     14 CAS         1.5800    2.3900   -3.2900 ca        1 JAF     -0.590500
     15 CAI         2.5880    2.5410   -4.2740 ca        1 JAF      0.057500
     16 CAG         3.5260    3.5500   -4.2120 ca        1 JAF     -0.215000
     17 CAR         3.4920    4.4630   -3.1350 ca        1 JAF      0.269100
     18 OAN         4.3570    5.4900   -2.9640 os        1 JAF     -0.285900
     19 CAA         5.3670    5.6860   -3.9640 c3        1 JAF      0.100700
     20 CAH         2.4960    4.3380   -2.1300 ca        1 JAF     -0.215000
     21 CAJ         1.5720    3.3250   -2.2200 ca        1 JAF      0.057500
     22 H1         -0.2370    1.1250   -0.3710 hc        1 JAF      0.066533
     23 H2          0.2130    0.7430    1.3380 hc        1 JAF      0.066533
     24 H3         -0.1660   -0.6030    0.1960 hc        1 JAF      0.066533
     25 H4          2.4320    0.8330    1.8790 ha        1 JAF      0.170500
     26 H5          4.7080    0.8800    2.2840 ho        1 JAF      0.443000
     27 H6          5.5560   -0.0430   -0.9960 ha        1 JAF      0.170500
     28 H7          3.5770   -1.6550   -3.3140 hc        1 JAF      0.066533
     29 H8          5.0750   -0.6600   -3.1580 hc        1 JAF      0.066533
     30 H9          3.5920    0.0760   -3.8840 hc        1 JAF      0.066533
     31 H10         1.5000   -0.9340   -3.1160 hn        1 JAF      0.443300
     32 H11         2.6060    1.8380   -5.1300 ha        1 JAF      0.165000
     33 H12         4.2890    3.6450   -5.0010 ha        1 JAF      0.179500
     34 H13         4.8940    5.8910   -4.9550 h1        1 JAF      0.072033
     35 H14         5.9140    6.5890   -3.5860 h1        1 JAF      0.072033
     36 H15         6.0410    4.7980   -4.0100 h1        1 JAF      0.072033
     37 H16         2.4780    5.0650   -1.3020 ha        1 JAF      0.179500
     38 H17         0.7840    3.2370   -1.4460 ha        1 JAF      0.165000
     39 HAM2        0.3320   -0.6970   -1.9840 hn        1 JAF      0.443300
@<TRIPOS>BOND
     1    1    2 1   
     2    1   22 1   
     3    1   23 1   
     4    1   24 1   
     5    2    3 ar  
     6    2    9 ar  
     7    3    4 ar  
     8    3   25 1   
     9    4    5 1   
    10    4    6 ar  
    11    5   26 1   
    12    6    7 ar  
    13    6   27 1   
    14    7    8 1   
    15    7    9 ar  
    16    8   28 1   
    17    8   29 1   
    18    8   30 1   
    19    9   10 1   
    20   10   11 1   
    21   10   31 1   
    22   10   39 1   
    23   11   12 2   
    24   11   13 2   
    25   11   14 1   
    26   14   15 ar  
    27   14   21 ar  
    28   15   16 ar  
    29   15   32 1   
    30   16   17 ar  
    31   16   33 1   
    32   17   18 1   
    33   17   20 ar  
    34   18   19 1   
    35   19   34 1   
    36   19   35 1   
    37   19   36 1   
    38   20   21 ar  
    39   20   37 1   
    40   21   38 1   
@<TRIPOS>SUBSTRUCTURE
     1 JAF         1 TEMP              0 ****  ****    0 ROOT
