@<TRIPOS>MOLECULE
JAF
   38    39     1     0     0
SMALL
bcc


@<TRIPOS>ATOM
      1 CAB         3.3260    1.6110   -0.9320 c3        1 JAF     -0.067800
      2 CAO         2.9250    0.3270   -0.3070 ca        1 JAF     -0.026800
      3 CAK         3.6740   -0.8170   -0.5910 ca        1 JAF     -0.192500
      4 CAQ         3.3480   -2.0380    0.0070 ca        1 JAF      0.137100
      5 OAF         4.0470   -3.1970   -0.2390 oh        1 JAF     -0.496100
      6 CAL         2.2800   -2.1300    0.9100 ca        1 JAF     -0.192500
      7 CAP         1.5200   -0.9990    1.1960 ca        1 JAF     -0.026800
      8 CAC         0.4190   -1.1060    2.1850 c3        1 JAF     -0.067800
      9 CAT         1.8120    0.2400    0.5650 ca        1 JAF      0.082600
     10 NAM         1.0260    1.3740    0.8550 nh        1 JAF     -0.788500
     11 SAU        -0.1050    2.0740   -0.0800 sy        1 JAF      1.522200
     12 OAD        -0.5950    3.1830    0.6520 o         1 JAF     -0.658300
     13 OAE         0.3840    2.3440   -1.3740 o         1 JAF     -0.658300
     14 CAS        -1.3250    0.9260   -0.2040 ca        1 JAF     -0.428500
     15 CAI        -2.3360    0.8500    0.7610 ca        1 JAF      0.021000
     16 CAG        -3.3790   -0.0620    0.6510 ca        1 JAF     -0.212500
     17 CAR        -3.4170   -0.9220   -0.4570 ca        1 JAF      0.190100
     18 OAN        -4.3910   -1.8660   -0.6770 os        1 JAF     -0.318900
     19 CAA        -5.4390   -1.9370    0.2870 c3        1 JAF      0.109700
     20 CAH        -2.4140   -0.8600   -1.4470 ca        1 JAF     -0.212500
     21 CAJ        -1.3880    0.0610   -1.3080 ca        1 JAF      0.021000
     22 H1          2.5620    1.9360   -1.6860 hc        1 JAF      0.055033
     23 H2          3.4170    2.4130   -0.1570 hc        1 JAF      0.055033
     24 H3          4.3110    1.5150   -1.4520 hc        1 JAF      0.055033
     25 H4          4.5280   -0.7530   -1.2820 ha        1 JAF      0.145500
     26 H5          4.7530   -2.9920   -0.8690 ho        1 JAF      0.421000
     27 H6          2.0570   -3.0970    1.3850 ha        1 JAF      0.145500
     28 H7         -0.5530   -0.7880    1.7280 hc        1 JAF      0.055033
     29 H8          0.3060   -2.1560    2.5520 hc        1 JAF      0.055033
     30 H9          0.6260   -0.4470    3.0650 hc        1 JAF      0.055033
     31 H10         1.1660    1.7040    1.7850 hn        1 JAF      0.452800
     32 H11        -2.3130    1.5450    1.6200 ha        1 JAF      0.156000
     33 H12        -4.1620   -0.0950    1.4210 ha        1 JAF      0.152500
     34 H13        -5.9920   -0.9680    0.3370 h1        1 JAF      0.050700
     35 H14        -6.0980   -2.7510   -0.1100 h1        1 JAF      0.050700
     36 H15        -5.0310   -2.2120    1.2900 h1        1 JAF      0.050700
     37 H16        -2.4640   -1.5370   -2.3120 ha        1 JAF      0.152500
     38 H17        -0.6090    0.1300   -2.0890 ha        1 JAF      0.156000
@<TRIPOS>BOND
     1    1    2 1   
     2    1   22 1   
     3    1   23 1   
     4    1   24 1   
     5    2    3 ar  
     6    2    9 ar  
     7    3    4 ar  
     8    3   25 1   
     9    4    5 1   
    10    4    6 ar  
    11    5   26 1   
    12    6    7 ar  
    13    6   27 1   
    14    7    8 1   
    15    7    9 ar  
    16    8   28 1   
    17    8   29 1   
    18    8   30 1   
    19    9   10 1   
    20   10   11 1   
    21   10   31 1   
    22   11   12 2   
    23   11   13 2   
    24   11   14 1   
    25   14   15 ar  
    26   14   21 ar  
    27   15   16 ar  
    28   15   32 1   
    29   16   17 ar  
    30   16   33 1   
    31   17   18 1   
    32   17   20 ar  
    33   18   19 1   
    34   19   34 1   
    35   19   35 1   
    36   19   36 1   
    37   20   21 ar  
    38   20   37 1   
    39   21   38 1   
@<TRIPOS>SUBSTRUCTURE
     1 JAF         1 TEMP              0 ****  ****    0 ROOT
