@<TRIPOS>MOLECULE
JAF
   38    39     1     0     0
SMALL
bcc


@<TRIPOS>ATOM
      1 CAB         0.0180   -0.2110    0.1630 c3        1 JAF     -0.067800
      2 CAO         1.4950   -0.1370    0.0540 ca        1 JAF     -0.026800
      3 CAK         2.2590   -0.2600    1.2180 ca        1 JAF     -0.192500
      4 CAQ         3.6540   -0.2300    1.1500 ca        1 JAF      0.137100
      5 OAF         4.4560   -0.3410    2.2630 oh        1 JAF     -0.496100
      6 CAL         4.3090   -0.0950   -0.0820 ca        1 JAF     -0.192500
      7 CAP         3.5600    0.0350   -1.2490 ca        1 JAF     -0.026800
      8 CAC         4.2700    0.1370   -2.5480 c3        1 JAF     -0.067800
      9 CAT         2.1410    0.0500   -1.1930 ca        1 JAF      0.082600
     10 NAM         1.3960    0.1960   -2.3810 nu        1 JAF     -0.788500
     11 SAU         0.5950    1.5090   -2.9060 sy        1 JAF      1.522200
     12 OAD         0.0000    1.1460   -4.1390 o         1 JAF     -0.658300
     13 OAE        -0.2720    2.0190   -1.9180 o         1 JAF     -0.658300
     14 CAS         1.7920    2.6500   -3.1980 ca        1 JAF     -0.428500
     15 CAI         2.4460    2.6990   -4.4350 ca        1 JAF      0.021000
     16 CAG         3.4070    3.6650   -4.7120 ca        1 JAF     -0.212500
     17 CAR         3.7220    4.6130   -3.7270 ca        1 JAF      0.190100
     18 OAN         4.6530    5.6120   -3.8780 os        1 JAF     -0.318900
     19 CAA         5.3090    5.6870   -5.1410 c3        1 JAF      0.109700
     20 CAH         3.0710    4.5900   -2.4760 ca        1 JAF     -0.212500
     21 CAJ         2.1180    3.6140   -2.2310 ca        1 JAF      0.021000
     22 H1         -0.4420    0.7870   -0.0580 hc        1 JAF      0.055033
     23 H2         -0.3920   -0.9550   -0.5640 hc        1 JAF      0.055033
     24 H3         -0.2940   -0.5210    1.1910 hc        1 JAF      0.055033
     25 H4          1.7570   -0.3870    2.1890 ha        1 JAF      0.145500
     26 H5          3.8810   -0.4330    3.0370 ho        1 JAF      0.421000
     27 H6          5.4080   -0.0970   -0.1130 ha        1 JAF      0.145500
     28 H7          5.3780    0.1480   -2.4040 hc        1 JAF      0.055033
     29 H8          4.0090   -0.7360   -3.1980 hc        1 JAF      0.055033
     30 H9          3.9770    1.0760   -3.0850 hc        1 JAF      0.055033
     31 H10         1.4620   -0.6060   -2.9690 hn        1 JAF      0.452800
     32 H11         2.1780    1.9630   -5.2150 ha        1 JAF      0.156000
     33 H12         3.9000    3.6820   -5.6930 ha        1 JAF      0.152500
     34 H13         5.8930    4.7550   -5.3350 h1        1 JAF      0.050700
     35 H14         5.9910    6.5660   -5.0240 h1        1 JAF      0.050700
     36 H15         4.5690    5.8650   -5.9580 h1        1 JAF      0.050700
     37 H16         3.3260    5.3450   -1.7190 ha        1 JAF      0.152500
     38 H17         1.5890    3.6010   -1.2600 ha        1 JAF      0.156000
@<TRIPOS>BOND
     1    1    2 1   
     2    1   22 1   
     3    1   23 1   
     4    1   24 1   
     5    2    3 ar  
     6    2    9 ar  
     7    3    4 ar  
     8    3   25 1   
     9    4    5 1   
    10    4    6 ar  
    11    5   26 1   
    12    6    7 ar  
    13    6   27 1   
    14    7    8 1   
    15    7    9 ar  
    16    8   28 1   
    17    8   29 1   
    18    8   30 1   
    19    9   10 1   
    20   10   11 1   
    21   10   31 1   
    22   11   12 2   
    23   11   13 2   
    24   11   14 1   
    25   14   15 ar  
    26   14   21 ar  
    27   15   16 ar  
    28   15   32 1   
    29   16   17 ar  
    30   16   33 1   
    31   17   18 1   
    32   17   20 ar  
    33   18   19 1   
    34   19   34 1   
    35   19   35 1   
    36   19   36 1   
    37   20   21 ar  
    38   20   37 1   
    39   21   38 1   
@<TRIPOS>SUBSTRUCTURE
     1 JAF         1 TEMP              0 ****  ****    0 ROOT
