@<TRIPOS>MOLECULE
JAF
   38    31     1     0     0
SMALL
bcc


@<TRIPOS>ATOM
      1 CAB        -1.4850   -0.6930    3.2280 c3        1 JAF     -0.196000
      2 CAO         0.0510   -0.6480    3.2510 c2        1 JAF     -0.007000
      3 CAK         0.7340   -0.7280    4.4590 c2        1 JAF     -0.223000
      4 CAQ         2.1190   -0.7690    4.4710 c1        1 JAF      0.097000
      5 OAF         2.8080   -0.8040    5.6900 oh        1 JAF     -0.249000
      6 CAL         2.8210   -0.7310    3.2830 c1        1 JAF     -0.167000
      7 CAP         2.1420   -0.6510    2.0780 c1        1 JAF     -0.013000
      8 CAC         2.9160   -0.7120    0.7580 c2        1 JAF     -0.195000
      9 CAT         0.7550   -0.6100    2.0640 c1        1 JAF     -0.016000
     10 NAM         0.0560   -0.5890    0.8260 n2        1 JAF     -0.848000
     11 SAU        -0.8700    0.7570    0.4050 s4        1 JAF      2.093800
     12 OAD        -2.1330    0.7590    1.0940 o         1 JAF     -0.550900
     13 OAE        -0.2710    1.9920    0.9050 o         1 JAF     -0.550900
     14 CAS        -1.0960    0.8180   -1.3410 c1        1 JAF     -0.364000
     15 CAI        -0.3680    1.7080   -2.0950 c1        1 JAF     -0.107000
     16 CAG        -0.6420    1.8560   -3.4610 c1        1 JAF     -0.107000
     17 CAR        -1.6550    1.1010   -4.0560 c1        1 JAF     -0.364000
     18 OAN        -1.9980    1.3190   -5.4280 o         1 JAF     -0.202000
     19 CAA        -1.3030    0.4740   -6.3410 c3        1 JAF     -0.080000
     20 CAH        -2.3840    0.2110   -3.3010 c1        1 JAF     -0.087500
     21 CAJ        -2.1110    0.0620   -1.9390 c1        1 JAF     -0.087500
     22 H1         -1.7820   -1.0140    2.3730 hc        1 JAF      0.095333
     23 H2         -1.8410    0.2120    3.3810 hc        1 JAF      0.095333
     24 H3         -1.8040   -1.2870    3.9250 hc        1 JAF      0.095333
     25 H4          0.2320   -0.7880    5.3070 ha        1 JAF      0.137000
     26 H5          2.8920   -1.6420    5.9570 ho        1 JAF      0.220000
     27 H6          3.8210   -0.7620    3.2920 ha        1 JAF      0.154000
     28 H7          3.6600   -1.4000    0.8350 ha        1 JAF      0.095667
     29 H8          2.3010   -0.9700    0.0260 ha        1 JAF      0.095667
     30 H9          3.2930    0.1450    0.5700 ha        1 JAF      0.095667
     31 H10         0.1430   -1.2550    0.2630 hn        1 JAF      0.246000
     32 H11         0.3340    2.2290   -1.6830 ha        1 JAF      0.152000
     33 H12        -0.1350    2.4770   -3.9850 ha        1 JAF      0.152000
     34 H13        -0.3740    0.5820   -6.2240 h1        1 JAF      0.091000
     35 H14        -1.5520   -0.4840   -6.1700 h1        1 JAF      0.091000
     36 H15        -1.5510    0.7200   -7.2750 h1        1 JAF      0.091000
     37 H16        -3.1060   -0.3280   -3.7250 ha        1 JAF      0.158000
     38 H17        -2.6180   -0.5560   -1.4150 ha        1 JAF      0.158000
@<TRIPOS>BOND
     1    1    2 1   
     2    1   22 1   
     3    1   23 1   
     4    1   24 1   
     5    2    3 1   
     6    2    9 1   
     7    3    4 1   
     8    3   25 1   
     9    4    5 1   
    10    5   26 1   
    11    6    7 1   
    12    6   27 1   
    13    7    9 1   
    14    8   28 1   
    15    8   29 1   
    16    8   30 1   
    17   10   11 1   
    18   10   31 1   
    19   11   12 1   
    20   11   13 1   
    21   14   21 1   
    22   15   16 1   
    23   15   32 1   
    24   16   33 1   
    25   17   20 1   
    26   18   19 1   
    27   19   34 1   
    28   19   35 1   
    29   19   36 1   
    30   20   37 1   
    31   21   38 1   
@<TRIPOS>SUBSTRUCTURE
     1 JAF         1 TEMP              0 ****  ****    0 ROOT
