@<TRIPOS>MOLECULE
JAF
   38    39     1     0     0
SMALL
bcc


@<TRIPOS>ATOM
      1 CAB         0.0250   -0.2190    0.1650 c3        1 JAF     -0.067800
      2 CAO         1.5010   -0.1380    0.0580 ca        1 JAF     -0.026800
      3 CAK         2.2630   -0.2520    1.2230 ca        1 JAF     -0.192500
      4 CAQ         3.6590   -0.2160    1.1570 ca        1 JAF      0.137100
      5 OAF         4.4600   -0.3200    2.2710 oh        1 JAF     -0.496100
      6 CAL         4.3150   -0.0820   -0.0740 ca        1 JAF     -0.192500
      7 CAP         3.5680    0.0410   -1.2430 ca        1 JAF     -0.026800
      8 CAC         4.2790    0.1430   -2.5410 c3        1 JAF     -0.067800
      9 CAT         2.1480    0.0490   -1.1890 ca        1 JAF      0.082600
     10 NAM         1.4040    0.1880   -2.3790 nh        1 JAF     -0.788500
     11 SAU         0.5970    1.4950   -2.9090 sy        1 JAF      1.522200
     12 OAD         0.0070    1.1250   -4.1420 o         1 JAF     -0.658300
     13 OAE        -0.2740    2.0030   -1.9250 o         1 JAF     -0.658300
     14 CAS         1.7890    2.6410   -3.2030 ca        1 JAF     -0.428500
     15 CAI         2.4460    2.6900   -4.4380 ca        1 JAF      0.021000
     16 CAG         3.4010    3.6600   -4.7160 ca        1 JAF     -0.212500
     17 CAR         3.7100    4.6130   -3.7330 ca        1 JAF      0.190100
     18 OAN         4.6360    5.6160   -3.8850 os        1 JAF     -0.318900
     19 CAA         5.2930    5.6910   -5.1480 c3        1 JAF      0.109700
     20 CAH         3.0570    4.5900   -2.4830 ca        1 JAF     -0.212500
     21 CAJ         2.1090    3.6100   -2.2380 ca        1 JAF      0.021000
     22 H1         -0.2880   -0.5270    1.1920 hc        1 JAF      0.055033
     23 H2         -0.3810   -0.9670   -0.5610 hc        1 JAF      0.055033
     24 H3         -0.4410    0.7770   -0.0600 hc        1 JAF      0.055033
     25 H4          1.7610   -0.3790    2.1930 ha        1 JAF      0.145500
     26 H5          3.8840   -0.4120    3.0450 ho        1 JAF      0.421000
     27 H6          5.4150   -0.0790   -0.1030 ha        1 JAF      0.145500
     28 H7          4.0230   -0.7340   -3.1890 hc        1 JAF      0.055033
     29 H8          3.9820    1.0780   -3.0820 hc        1 JAF      0.055033
     30 H9          5.3870    0.1590   -2.3960 hc        1 JAF      0.055033
     31 H10         1.4750   -0.6160   -2.9650 hn        1 JAF      0.452800
     32 H11         2.1820    1.9500   -5.2160 ha        1 JAF      0.156000
     33 H12         3.8960    3.6770   -5.6970 ha        1 JAF      0.152500
     34 H13         5.8830    4.7620   -5.3380 h1        1 JAF      0.050700
     35 H14         4.5540    5.8640   -5.9670 h1        1 JAF      0.050700
     36 H15         5.9710    6.5740   -5.0320 h1        1 JAF      0.050700
     37 H16         3.3070    5.3480   -1.7280 ha        1 JAF      0.152500
     38 H17         1.5780    3.5960   -1.2680 ha        1 JAF      0.156000
@<TRIPOS>BOND
     1    1    2 1   
     2    1   22 1   
     3    1   23 1   
     4    1   24 1   
     5    2    3 ar  
     6    2    9 ar  
     7    3    4 ar  
     8    3   25 1   
     9    4    5 1   
    10    4    6 ar  
    11    5   26 1   
    12    6    7 ar  
    13    6   27 1   
    14    7    8 1   
    15    7    9 ar  
    16    8   28 1   
    17    8   29 1   
    18    8   30 1   
    19    9   10 1   
    20   10   11 1   
    21   10   31 1   
    22   11   12 2   
    23   11   13 2   
    24   11   14 1   
    25   14   15 ar  
    26   14   21 ar  
    27   15   16 ar  
    28   15   32 1   
    29   16   17 ar  
    30   16   33 1   
    31   17   18 1   
    32   17   20 ar  
    33   18   19 1   
    34   19   34 1   
    35   19   35 1   
    36   19   36 1   
    37   20   21 ar  
    38   20   37 1   
    39   21   38 1   
@<TRIPOS>SUBSTRUCTURE
     1 JAF         1 TEMP              0 ****  ****    0 ROOT
