@<TRIPOS>MOLECULE
JAI
   52    48     1     0     0
SMALL
bcc


@<TRIPOS>ATOM
      1 C          -0.3190    0.4990    0.5440 c         1 JAI      0.716600
      2 N           0.5920    3.4740   -1.1720 n         1 JAI     -0.675000
      3 O1         -0.4270   -0.7970    0.1120 os        1 JAI     -0.435900
      4 O2         -1.0920    1.4310    0.5410 o         1 JAI     -0.541500
      5 CA          0.8640   -0.3320    0.6990 cx        1 JAI      0.045100
      6 CB          1.2640   -0.9340    2.0180 c3        1 JAI     -0.032500
      7 C01        10.6010    3.4100   -5.3550 c3        1 JAI     -0.111800
      8 C02         8.0020    5.9040   -6.3280 c3        1 JAI     -0.025000
      9 C03         6.7220    5.3230   -6.5750 c1        1 JAI     -0.164100
     10 C04         5.6480    4.8380   -6.7870 c1        1 JAI     -0.161500
     11 C05         4.9200    2.3410   -2.8440 cc        1 JAI     -0.109000
     12 C06         4.9810    3.3500   -3.7240 cd        1 JAI     -0.109000
     13 C07         1.7970    2.8460   -6.1780 c         1 JAI      0.567900
     14 C09         0.6140    2.1050   -6.7190 c3        1 JAI     -0.202400
     15 C10         0.1890    0.9860   -5.8050 c3        1 JAI     -0.093100
     16 C11         3.7770    3.2070   -2.9500 cc        1 JAI     -0.016000
     17 C13         1.7550    2.8830   -1.6050 c         1 JAI      0.686300
     18 O14         2.0780    1.7640   -1.1360 o         1 JAI     -0.675100
     19 CG1         1.8780   -2.2760    1.7910 c2        1 JAI     -0.165200
     20 CG2         0.0950   -1.0500    2.9780 c3        1 JAI     -0.101100
     21 HN          1.6800   -0.2470   -0.0530 h1        1 JAI      0.147700
     22 HA          0.0300    3.0200   -0.4930 hn        1 JAI      0.316500
     23 HB          2.0300   -0.2340    2.4680 hc        1 JAI      0.073700
     24 H01         7.9420    6.6530   -5.4960 hc        1 JAI      0.054033
     25 H01A       11.3830    2.6760   -5.0640 hc        1 JAI      0.028200
     26 H01B       10.1520    3.8550   -4.4400 hc        1 JAI      0.028200
     27 H02        11.0590    4.2140   -5.9720 hc        1 JAI      0.028200
     28 H02A        9.8100    2.8950   -5.9430 hc        1 JAI      0.028200
     29 H03         8.3780    6.4260   -7.2460 hc        1 JAI      0.054033
     30 H04         8.7470    5.1140   -6.0410 hc        1 JAI      0.054033
     31 H05         5.3410    1.4830   -2.3570 ha        1 JAI      0.210000
     32 H05A        4.6930    4.4100   -6.9860 ha        1 JAI      0.188500
     33 H06         5.4880    3.9090   -4.4910 ha        1 JAI      0.210000
     34 H09         1.8550    2.9240   -5.0660 h4        1 JAI      0.007200
     35 H09A        0.8490    1.7050   -7.7410 hc        1 JAI      0.072200
     36 H10        -0.0650    1.3740   -4.7890 hc        1 JAI      0.043367
     37 H10A       -0.2250    2.8440   -6.8370 hc        1 JAI      0.072200
     38 H11         1.0050    0.2310   -5.6980 hc        1 JAI      0.043367
     39 H12         2.1140    4.4840   -3.0950 ha        1 JAI      0.140000
     40 H12A       -0.7110    0.4730   -6.2220 hc        1 JAI      0.043367
     41 HD1         3.6960   -1.9590    2.8680 ha        1 JAI      0.114500
     42 HD1A        2.6240   -0.7770    4.5880 ha        1 JAI      0.000000
     43 HD1B        3.0510   -0.5250    5.0500 ha        1 JAI      0.000000
     44 HG1         1.2590   -2.9660    1.1940 ha        1 JAI      0.134000
     45 HG1A        3.4900   -3.6300    2.0950 ha        1 JAI      0.114500
     46 HG2         0.4490   -1.4360    3.9640 hc        1 JAI      0.047700
     47 HG2A       -0.3770   -0.0490    3.1320 hc        1 JAI      0.047700
     48 HG2B       -0.6750   -1.7480    2.5710 hc        1 JAI      0.047700
     49 CD1         3.0670   -2.6320    2.2690 c2        1 JAI     -0.213000
     50 C12         2.5570    3.5970   -2.6170 cf        1 JAI     -0.299200
     51 HN3         0.3240    4.3660   -1.4950 hn        1 JAI      0.316500
     52 O3          2.6570    3.3550   -6.9010 o         1 JAI     -0.554100
@<TRIPOS>BOND
     1    1    3 1   
     2    1    4 2   
     3    1    5 1   
     4    2   17 1   
     5    2   22 1   
     6    2   51 1   
     7    3    5 1   
     8    5    6 1   
     9    5   21 1   
    10    6   19 1   
    11    6   20 1   
    12    6   23 1   
    13    7   25 1   
    14    7   26 1   
    15    7   27 1   
    16    7   28 1   
    17    8    9 1   
    18    8   24 1   
    19    8   29 1   
    20    8   30 1   
    21    9   10 3   
    22   10   32 1   
    23   11   12 2   
    24   11   16 1   
    25   11   31 1   
    26   12   16 1   
    27   12   33 1   
    28   13   14 1   
    29   13   34 1   
    30   13   52 2   
    31   14   15 1   
    32   14   35 1   
    33   14   37 1   
    34   15   36 1   
    35   15   38 1   
    36   15   40 1   
    37   16   50 2   
    38   17   18 2   
    39   17   50 1   
    40   19   44 1   
    41   19   49 2   
    42   20   46 1   
    43   20   47 1   
    44   20   48 1   
    45   39   50 1   
    46   41   49 1   
    47   42   43 1   
    48   45   49 1   
@<TRIPOS>SUBSTRUCTURE
     1 JAI         1 TEMP              0 ****  ****    0 ROOT
