@<TRIPOS>MOLECULE
JAI
   52    48     1     0     0
SMALL
bcc


@<TRIPOS>ATOM
      1 C          -1.6820   -0.3600   -1.4080 c         1 JAI      0.751800
      2 N           4.8590    1.7340   -1.2290 nt        1 JAI     -0.669000
      3 O1         -2.2970   -0.7830   -0.2330 os        1 JAI     -0.373200
      4 O2         -2.0570   -0.2850   -2.5530 o         1 JAI     -0.523500
      5 CA         -0.9360   -0.3160   -0.2140 cc        1 JAI     -0.077100
      6 CB          0.0210   -0.1470    0.6730 c2        1 JAI     -0.068200
      7 C01         8.1250    3.7840   -2.9610 c3        1 JAI     -0.121300
      8 C02         5.5880    6.1980   -4.3760 cx        1 JAI     -0.082000
      9 C03         6.8840    6.8110   -4.7820 cu        1 JAI     -0.197700
     10 C04         5.8510    7.0560   -5.5640 cu        1 JAI     -0.197700
     11 C05         5.2040    2.3340   -4.5520 cu        1 JAI     -0.191200
     12 C06         4.2500    1.9700   -5.3860 cu        1 JAI     -0.191200
     13 C07         0.6460    1.2650   -6.9480 c1        1 JAI      0.555500
     14 C09        -0.4200    0.8490   -6.3990 c1        1 JAI     -0.399900
     15 C10        -1.5100    0.4210   -5.8330 c2        1 JAI      0.019900
     16 C11         4.2170    1.3400   -4.0320 cx        1 JAI     -0.088300
     17 C13         3.5660    1.4890   -1.6070 c         1 JAI      0.670100
     18 O14         2.7320    1.1020   -0.7580 o         1 JAI     -0.656100
     19 CG1        -0.1390   -0.4420    2.1180 c3        1 JAI     -0.053200
     20 CG2         4.3560    0.6710    2.2190 c3        1 JAI     -0.121300
     21 HN          5.3190    1.1800    1.9950 hc        1 JAI      0.030575
     22 HA          5.1370    1.5680   -0.2920 hn        1 JAI      0.314500
     23 HB          1.0050    0.2460    0.3450 ha        1 JAI      0.194000
     24 H01         5.0250    6.5960   -3.5120 hc        1 JAI      0.050700
     25 H01A        7.5820    4.6300   -3.4430 hc        1 JAI      0.030575
     26 H01B        7.4370    3.2480   -2.2710 hc        1 JAI      0.030575
     27 H02         8.9900    4.1790   -2.3860 hc        1 JAI      0.030575
     28 H02A        8.4890    3.0820   -3.7430 hc        1 JAI      0.030575
     29 H03         7.9150    6.9140   -4.5210 ha        1 JAI      0.188500
     30 H04         5.4210    5.1100   -4.4990 hc        1 JAI      0.050700
     31 H05         6.0820    2.8950   -4.3040 ha        1 JAI      0.203000
     32 H05A        5.4060    7.5090   -6.4250 ha        1 JAI      0.188500
     33 H06         3.7460    2.0060   -6.3340 ha        1 JAI      0.203000
     34 H09         3.6960    2.0850   -8.6760 ha        1 JAI      0.002000
     35 H09A        3.5260    2.7280   -8.5500 ha        1 JAI      0.002000
     36 H10        -2.4290    0.2230   -6.4100 ha        1 JAI      0.127500
     37 H10A       -1.5810    0.2320   -4.7460 ha        1 JAI      0.127500
     38 H11         4.5230    0.2790   -3.9190 hc        1 JAI      0.070700
     39 H12         2.9010    2.8190   -3.1490 hc        1 JAI      0.081200
     40 H12A        2.2300    1.1370   -3.2440 hc        1 JAI      0.081200
     41 HD1        -1.0430   -1.0850    2.2910 hc        1 JAI      0.060700
     42 HD1A        1.9970   -0.4820    2.5300 hc        1 JAI      0.041033
     43 HD1B        1.2580   -2.1020    2.1910 hc        1 JAI      0.041033
     44 HG1        -0.3160    0.5320    2.6540 hc        1 JAI      0.060700
     45 HG1A        0.9540   -1.2860    3.7800 hc        1 JAI      0.041033
     46 HG2         3.8910    1.1410    3.1130 hc        1 JAI      0.030575
     47 HG2A        4.5460   -0.4050    2.4240 hc        1 JAI      0.030575
     48 HG2B        3.6680    0.7690    1.3480 hc        1 JAI      0.030575
     49 CD1         1.0870   -1.1150    2.6840 c3        1 JAI     -0.095100
     50 C12         3.1630    1.7320   -3.0480 c3        1 JAI     -0.143400
     51 HN3         5.5400    1.9910   -1.8980 hn        1 JAI      0.314500
     52 O3          1.6550    1.6590   -7.4590 o         1 JAI     -0.430500
@<TRIPOS>BOND
     1    1    3 1   
     2    1    4 2   
     3    1    5 1   
     4    2   17 1   
     5    2   22 1   
     6    2   51 1   
     7    3    5 1   
     8    5    6 2   
     9    6   19 1   
    10    6   23 1   
    11    7   25 1   
    12    7   26 1   
    13    7   27 1   
    14    7   28 1   
    15    8    9 1   
    16    8   10 1   
    17    8   24 1   
    18    8   30 1   
    19    9   10 2   
    20    9   29 1   
    21   10   32 1   
    22   11   12 2   
    23   11   16 1   
    24   11   31 1   
    25   12   16 1   
    26   12   33 1   
    27   13   14 2   
    28   13   52 2   
    29   14   15 2   
    30   15   36 1   
    31   15   37 1   
    32   16   38 1   
    33   16   50 1   
    34   17   18 2   
    35   17   50 1   
    36   19   41 1   
    37   19   44 1   
    38   19   49 1   
    39   20   21 1   
    40   20   46 1   
    41   20   47 1   
    42   20   48 1   
    43   34   35 1   
    44   39   50 1   
    45   40   50 1   
    46   42   49 1   
    47   43   49 1   
    48   45   49 1   
@<TRIPOS>SUBSTRUCTURE
     1 JAI         1 TEMP              0 ****  ****    0 ROOT
