@<TRIPOS>MOLECULE
JAI
   52    47     1     0     0
SMALL
bcc


@<TRIPOS>ATOM
      1 C           1.8060   -1.2070    3.3150 c         1 JAI      0.703600
      2 N           0.9840    1.1530   -0.2700 n         1 JAI     -0.669000
      3 O1          1.1940   -1.4550    4.3240 o         1 JAI     -0.497500
      4 O2          1.3950   -0.8350    2.0530 os        1 JAI     -0.458900
      5 CA          2.8470   -0.9920    2.3230 cx        1 JAI      0.050100
      6 CB          3.6600    0.2790    2.2500 c3        1 JAI     -0.001600
      7 C01         7.0700    1.5470   -2.7070 c3        1 JAI     -0.088100
      8 C02         6.3470    2.6020   -1.9000 c3        1 JAI     -0.032300
      9 C03         6.4350    3.9030   -2.4960 c1        1 JAI     -0.132100
     10 C04         6.5050    4.9960   -2.9790 c1        1 JAI     -0.178500
     11 C05         3.4610    2.6420   -4.0920 cc        1 JAI     -0.113000
     12 C06         2.3870    2.7370   -4.8890 cd        1 JAI     -0.113000
     13 C07         0.4690    3.8920   -8.8750 c         1 JAI      0.575900
     14 C09         0.5790    3.1830  -10.1890 c3        1 JAI     -0.205400
     15 C10        -0.6430    3.3900  -11.0430 c3        1 JAI     -0.093100
     16 C11         2.1880    2.2600   -3.5470 cc        1 JAI     -0.015000
     17 C13         1.9100    1.4480   -1.2470 c         1 JAI      0.682300
     18 O14         3.1310    1.4060   -0.9510 o         1 JAI     -0.671100
     19 CG1         5.0220    0.0080    2.6310 c1        1 JAI     -0.143100
     20 CG2         3.0580    1.3910    3.0930 c3        1 JAI     -0.099100
     21 HN          1.2960    0.8160    0.6080 hn        1 JAI      0.310000
     22 HA          3.2970   -1.8590    1.7970 h1        1 JAI      0.118700
     23 HB          3.6500    0.6190    1.1580 hc        1 JAI      0.137700
     24 H01         6.7790    2.6410   -0.8600 hc        1 JAI      0.080200
     25 H01A        4.2070    0.4480   -2.8480 ha        1 JAI      0.000667
     26 H01B        4.7540    0.0830   -3.0150 ha        1 JAI      0.000667
     27 H02         8.1550    1.7920   -2.8050 hc        1 JAI      0.036700
     28 H02A        6.9690    0.5570   -2.2000 hc        1 JAI      0.036700
     29 H03         6.6320    1.4650   -3.7310 hc        1 JAI      0.036700
     30 H04         5.2590    2.3080   -1.7850 hc        1 JAI      0.080200
     31 H05         4.5130    2.7510   -3.8970 ha        1 JAI      0.217500
     32 H05A        6.5660    5.9640   -3.4050 ha        1 JAI      0.161500
     33 H06         1.9310    2.9780   -5.8330 ha        1 JAI      0.217500
     34 H09         0.7530    2.0880  -10.0160 hc        1 JAI      0.075200
     35 H09A       -0.1650    4.8080   -8.8710 h4        1 JAI     -0.001800
     36 H10        -0.8130    4.4760  -11.2410 hc        1 JAI      0.041700
     37 H10A        1.4890    3.5820  -10.7150 hc        1 JAI      0.075200
     38 H11        -1.5510    2.9770  -10.5420 hc        1 JAI      0.041700
     39 H12        -0.5160    2.8700  -12.0240 hc        1 JAI      0.041700
     40 H12A        0.3190    1.7170   -2.7600 ha        1 JAI      0.138000
     41 HD1         5.4420    0.4450   -0.1030 ha        1 JAI      0.000667
     42 HD1A        4.7360    2.6500    0.3500 ha        1 JAI      0.000667
     43 HD1B        4.3730    2.8680    0.8800 ha        1 JAI      0.000667
     44 HG1         7.1700   -0.3770    3.2050 ha        1 JAI      0.167500
     45 HG1A        5.2240    0.2580   -0.7180 ha        1 JAI      0.000667
     46 HG2         2.0110    1.5880    2.7570 hc        1 JAI      0.051367
     47 HG2A        3.0440    1.1120    4.1730 hc        1 JAI      0.051367
     48 HG2B        3.6570    2.3260    2.9690 hc        1 JAI      0.051367
     49 CD1         6.1600   -0.1970    2.9360 c1        1 JAI     -0.135500
     50 C12         1.4000    1.8170   -2.5790 cf        1 JAI     -0.295200
     51 HN3         0.0290    1.0580   -0.4940 hn        1 JAI      0.310000
     52 O3          1.0460    3.5090   -7.8550 o         1 JAI     -0.551100
@<TRIPOS>BOND
     1    1    3 2   
     2    1    4 1   
     3    1    5 1   
     4    2   17 1   
     5    2   21 1   
     6    2   51 1   
     7    4    5 1   
     8    5    6 1   
     9    5   22 1   
    10    6   19 1   
    11    6   20 1   
    12    6   23 1   
    13    7    8 1   
    14    7   27 1   
    15    7   28 1   
    16    7   29 1   
    17    8    9 1   
    18    8   24 1   
    19    8   30 1   
    20    9   10 3   
    21   10   32 1   
    22   11   12 2   
    23   11   16 1   
    24   11   31 1   
    25   12   16 1   
    26   12   33 1   
    27   13   14 1   
    28   13   35 1   
    29   13   52 2   
    30   14   15 1   
    31   14   34 1   
    32   14   37 1   
    33   15   36 1   
    34   15   38 1   
    35   15   39 1   
    36   16   50 2   
    37   17   18 2   
    38   17   50 1   
    39   19   49 3   
    40   20   46 1   
    41   20   47 1   
    42   20   48 1   
    43   25   26 1   
    44   40   50 1   
    45   41   45 1   
    46   42   43 1   
    47   44   49 1   
@<TRIPOS>SUBSTRUCTURE
     1 JAI         1 TEMP              0 ****  ****    0 ROOT
