@<TRIPOS>MOLECULE
JAI
   51    51     1     0     0
SMALL
bcc


@<TRIPOS>ATOM
      1 C          -2.9860   -0.7400    1.1630 c         1 JAI      0.904600
      2 N          -1.8590    0.6360   -0.5900 n         1 JAI     -0.504900
      3 O1         -2.4350   -1.7540    0.6400 o         1 JAI     -0.835800
      4 O2         -3.5540   -0.7350    2.2860 o         1 JAI     -0.835800
      5 CA         -2.9500    0.6190    0.3720 c3        1 JAI     -0.054300
      6 CB         -4.3130    0.8690   -0.3130 c3        1 JAI     -0.040700
      7 C01         6.5260    3.5600    1.3810 c3        1 JAI     -0.088100
      8 C02         5.3600    2.6540    1.0730 c3        1 JAI     -0.051200
      9 C03         5.7580    1.4720    0.2720 c2        1 JAI     -0.187200
     10 C04         4.9380    0.4700   -0.0580 c2        1 JAI     -0.167200
     11 C05         3.5160    0.3790    0.3490 c3        1 JAI     -0.037200
     12 C06         2.6570   -0.3300   -0.6820 c3        1 JAI     -0.168700
     13 C07         2.9160   -1.8220   -0.7650 c         1 JAI      0.576100
     14 C09         1.6160   -2.5720   -0.6440 c3        1 JAI     -0.181400
     15 C10         0.5110   -1.5310   -0.7080 c3        1 JAI     -0.106400
     16 C11         1.1580   -0.1880   -0.3560 c3        1 JAI     -0.061700
     17 C13        -0.7510    1.4350   -0.4130 c         1 JAI      0.639100
     18 O14        -0.7780    2.5260    0.2000 o         1 JAI     -0.640100
     19 CG1        -5.3910    0.9690    0.7570 c3        1 JAI     -0.083400
     20 CG2        -4.6270   -0.2220   -1.3150 c3        1 JAI     -0.090100
     21 HN         -1.6830   -0.2800   -0.9600 hn        1 JAI      0.308500
     22 HA         -2.7830    1.4440    1.1230 h1        1 JAI      0.072700
     23 HB         -4.2630    1.8540   -0.8570 hc        1 JAI      0.025700
     24 H01         7.3090    3.0140    1.9600 hc        1 JAI      0.028700
     25 H01A        6.9890    3.9410    0.4390 hc        1 JAI      0.028700
     26 H01B        6.1850    4.4350    1.9860 hc        1 JAI      0.028700
     27 H02         4.8880    2.3130    2.0350 hc        1 JAI      0.049700
     28 H02A        4.5730    3.2340    0.5160 hc        1 JAI      0.049700
     29 H03         6.8100    1.4530   -0.0580 ha        1 JAI      0.113000
     30 H04         5.3060   -0.3840   -0.6550 ha        1 JAI      0.142000
     31 H05         3.4540   -0.1680    1.3300 hc        1 JAI      0.058200
     32 H05A        3.0880    1.4060    0.5170 hc        1 JAI      0.058200
     33 H06         2.8690    0.1040   -1.6990 hc        1 JAI      0.073700
     34 H09         1.5210   -3.3330   -1.4580 hc        1 JAI      0.073200
     35 H09A        1.5970   -3.1180    0.3350 hc        1 JAI      0.073200
     36 H10         0.0800   -1.4980   -1.7420 hc        1 JAI      0.087700
     37 H10A       -0.3300   -1.7750   -0.0000 hc        1 JAI      0.087700
     38 H11         1.0440   -0.0190    0.7510 hc        1 JAI      0.074700
     39 H12         1.2540    1.8600   -1.0540 hc        1 JAI      0.056200
     40 H12A        0.3600    0.7380   -2.1620 hc        1 JAI      0.056200
     41 HD1        -6.4220    2.6700   -0.1150 hc        1 JAI      0.016033
     42 HD1A       -7.1040    1.0610   -0.5810 hc        1 JAI      0.016033
     43 HD1B       -7.3940    1.7180    1.0800 hc        1 JAI      0.016033
     44 HG1        -5.6210   -0.0620    1.1390 hc        1 JAI      0.063200
     45 HG1A       -4.9860    1.5440    1.6330 hc        1 JAI      0.063200
     46 HG2        -5.6920   -0.1620   -1.6440 hc        1 JAI      0.029700
     47 HG2A       -3.9770   -0.1250   -2.2170 hc        1 JAI      0.029700
     48 HG2B       -4.4450   -1.2270   -0.8560 hc        1 JAI      0.029700
     49 CD1        -6.6440    1.6400    0.2560 c3        1 JAI     -0.085100
     50 C12         0.5450    0.9910   -1.0870 c3        1 JAI     -0.155400
     51 O3          4.0190   -2.3440   -0.9390 o         1 JAI     -0.558100
@<TRIPOS>BOND
     1    1    3 1   
     2    1    4 1   
     3    1    5 1   
     4    2    5 1   
     5    2   17 1   
     6    2   21 1   
     7    5    6 1   
     8    5   22 1   
     9    6   19 1   
    10    6   20 1   
    11    6   23 1   
    12    7    8 1   
    13    7   24 1   
    14    7   25 1   
    15    7   26 1   
    16    8    9 1   
    17    8   27 1   
    18    8   28 1   
    19    9   10 2   
    20    9   29 1   
    21   10   11 1   
    22   10   30 1   
    23   11   12 1   
    24   11   31 1   
    25   11   32 1   
    26   12   13 1   
    27   12   16 1   
    28   12   33 1   
    29   13   14 1   
    30   13   51 2   
    31   14   15 1   
    32   14   34 1   
    33   14   35 1   
    34   15   16 1   
    35   15   36 1   
    36   15   37 1   
    37   16   38 1   
    38   16   50 1   
    39   17   18 2   
    40   17   50 1   
    41   19   44 1   
    42   19   45 1   
    43   19   49 1   
    44   20   46 1   
    45   20   47 1   
    46   20   48 1   
    47   39   50 1   
    48   40   50 1   
    49   41   49 1   
    50   42   49 1   
    51   43   49 1   
@<TRIPOS>SUBSTRUCTURE
     1 JAI         1 TEMP              0 ****  ****    0 ROOT
