@<TRIPOS>MOLECULE
JAK
   36    39     1     0     0
SMALL
bcc


@<TRIPOS>ATOM
      1 C1          0.0630   -0.0080   -0.0860 c3        1 JAK     -0.110400
      2 C2          1.5490   -0.0040   -0.0190 cc        1 JAK      0.392800
      3 N3          2.2730    0.0010    1.1200 nd        1 JAK     -0.542100
      4 C4          3.6140    0.0030    0.7170 ca        1 JAK     -0.088900
      5 C5          4.8060    0.0080    1.4950 ca        1 JAK      0.481200
      6 N6          6.0220    0.0090    0.9670 nb        1 JAK     -0.686000
      7 C7          6.0880    0.0050   -0.4090 ca        1 JAK      0.417800
      8 C8          4.9600   -0.0000   -1.3330 ca        1 JAK     -0.190100
      9 C9          3.6920   -0.0010   -0.7340 ca        1 JAK      0.002800
     10 N10         2.3720   -0.0060   -1.1870 na        1 JAK     -0.149300
     11 C11         1.8810   -0.0110   -2.5450 c3        1 JAK      0.062000
     12 C12         2.2830    1.2460   -3.3350 c3        1 JAK     -0.097400
     13 C13         1.6950    1.1940   -4.7430 c3        1 JAK      0.163800
     14 N14         2.0360   -0.0190   -5.4580 n3        1 JAK     -0.823200
     15 C15         1.7010   -1.2300   -4.7360 c3        1 JAK      0.163800
     16 C16         2.2890   -1.2710   -3.3270 c3        1 JAK     -0.097400
     17 C17         5.5140   -0.0030   -2.6590 cc        1 JAK     -0.179200
     18 C18         6.9030    0.0010   -2.5260 cd        1 JAK     -0.121100
     19 N19         7.2610    0.0060   -1.1790 na        1 JAK     -0.273100
     20 H1         -0.3020    0.9000   -0.6260 hc        1 JAK      0.060033
     21 H1A        -0.2980   -0.9220   -0.6210 hc        1 JAK      0.060033
     22 H1B        -0.3680   -0.0060    0.9460 hc        1 JAK      0.060033
     23 H5          4.7480    0.0110    2.5990 h4        1 JAK      0.036100
     24 H11         0.7480   -0.0140   -2.4750 h1        1 JAK      0.059700
     25 H12         3.3990    1.3300   -3.3840 hc        1 JAK      0.065200
     26 H12A        1.8930    2.1630   -2.8220 hc        1 JAK      0.065200
     27 H13         2.1070    2.0600   -5.3350 h1        1 JAK      0.031700
     28 H13A        0.5760    1.3380   -4.6630 h1        1 JAK      0.031700
     29 HN14        1.5970   -0.0230   -6.3600 hn        1 JAK      0.367800
     30 H15         2.1170   -2.0970   -5.3230 h1        1 JAK      0.031700
     31 H15A        0.5830   -1.3790   -4.6550 h1        1 JAK      0.031700
     32 H16         3.4050   -1.3500   -3.3760 hc        1 JAK      0.065200
     33 H16A        1.9030   -2.1870   -2.8090 hc        1 JAK      0.065200
     34 H17         4.9680   -0.0070   -3.5980 ha        1 JAK      0.165000
     35 H18         7.6710    0.0010   -3.3020 h4        1 JAK      0.168000
     36 H171        8.1770    0.0090   -0.8160 hn        1 JAK      0.308700
@<TRIPOS>BOND
     1    1    2 1   
     2    1   20 1   
     3    1   21 1   
     4    1   22 1   
     5    2    3 2   
     6    2   10 1   
     7    3    4 1   
     8    4    5 ar  
     9    4    9 ar  
    10    5    6 ar  
    11    5   23 1   
    12    6    7 ar  
    13    7    8 ar  
    14    7   19 1   
    15    8    9 ar  
    16    8   17 1   
    17    9   10 1   
    18   10   11 1   
    19   11   12 1   
    20   11   16 1   
    21   11   24 1   
    22   12   13 1   
    23   12   25 1   
    24   12   26 1   
    25   13   14 1   
    26   13   27 1   
    27   13   28 1   
    28   14   15 1   
    29   14   29 1   
    30   15   16 1   
    31   15   30 1   
    32   15   31 1   
    33   16   32 1   
    34   16   33 1   
    35   17   18 2   
    36   17   34 1   
    37   18   19 1   
    38   18   35 1   
    39   19   36 1   
@<TRIPOS>SUBSTRUCTURE
     1 JAK         1 TEMP              0 ****  ****    0 ROOT
