@<TRIPOS>MOLECULE
JAK
   36    39     1     0     0
SMALL
bcc


@<TRIPOS>ATOM
      1 C1          0.0590   -0.0040   -0.0920 c3        1 JAK     -0.110400
      2 C2          1.5450   -0.0010   -0.0220 cc        1 JAK      0.392800
      3 N3          2.2670    0.0050    1.1180 nd        1 JAK     -0.542100
      4 C4          3.6090    0.0050    0.7180 ca        1 JAK     -0.088900
      5 C5          4.7990    0.0110    1.4980 ca        1 JAK      0.481200
      6 N6          6.0160    0.0110    0.9720 nb        1 JAK     -0.686000
      7 C7          6.0850    0.0050   -0.4040 ca        1 JAK      0.417800
      8 C8          4.9580   -0.0010   -1.3290 ca        1 JAK     -0.190100
      9 C9          3.6890   -0.0010   -0.7330 ca        1 JAK      0.002800
     10 N10         2.3700   -0.0050   -1.1880 na        1 JAK     -0.149300
     11 C11         1.8820   -0.0110   -2.5470 c3        1 JAK      0.062000
     12 C12         2.2860    1.2450   -3.3370 c3        1 JAK     -0.097400
     13 C13         1.7010    1.1920   -4.7470 c3        1 JAK      0.163800
     14 N14         2.0420   -0.0220   -5.4600 n3        1 JAK     -0.823200
     15 C15         1.7050   -1.2310   -4.7370 c3        1 JAK      0.163800
     16 C16         2.2900   -1.2720   -3.3280 c3        1 JAK     -0.097400
     17 C17         5.5150   -0.0050   -2.6540 cc        1 JAK     -0.179200
     18 C18         6.9040   -0.0020   -2.5190 cd        1 JAK     -0.121100
     19 N19         7.2590    0.0040   -1.1710 na        1 JAK     -0.273100
     20 H1         -0.3740   -0.0010    0.9400 hc        1 JAK      0.060033
     21 H1A        -0.3040    0.9040   -0.6330 hc        1 JAK      0.060033
     22 H1B        -0.3010   -0.9180   -0.6260 hc        1 JAK      0.060033
     23 H5          4.7390    0.0150    2.6020 h4        1 JAK      0.036100
     24 H11         0.7490   -0.0120   -2.4800 h1        1 JAK      0.059700
     25 H12         3.4020    1.3290   -3.3850 hc        1 JAK      0.065200
     26 H12A        1.8960    2.1630   -2.8260 hc        1 JAK      0.065200
     27 H13         2.1140    2.0570   -5.3390 h1        1 JAK      0.031700
     28 H13A        0.5820    1.3370   -4.6690 h1        1 JAK      0.031700
     29 HN14        1.6050   -0.0260   -6.3630 hn        1 JAK      0.367800
     30 H15         2.1210   -2.1000   -5.3230 h1        1 JAK      0.031700
     31 H15A        0.5860   -1.3790   -4.6590 h1        1 JAK      0.031700
     32 H16         3.4070   -1.3520   -3.3740 hc        1 JAK      0.065200
     33 H16A        1.9030   -2.1870   -2.8090 hc        1 JAK      0.065200
     34 H17         4.9710   -0.0100   -3.5950 ha        1 JAK      0.165000
     35 H18         7.6730   -0.0040   -3.2930 h4        1 JAK      0.168000
     36 H171        8.1750    0.0070   -0.8070 hn        1 JAK      0.308700
@<TRIPOS>BOND
     1    1    2 1   
     2    1   20 1   
     3    1   21 1   
     4    1   22 1   
     5    2    3 2   
     6    2   10 1   
     7    3    4 1   
     8    4    5 ar  
     9    4    9 ar  
    10    5    6 ar  
    11    5   23 1   
    12    6    7 ar  
    13    7    8 ar  
    14    7   19 1   
    15    8    9 ar  
    16    8   17 1   
    17    9   10 1   
    18   10   11 1   
    19   11   12 1   
    20   11   16 1   
    21   11   24 1   
    22   12   13 1   
    23   12   25 1   
    24   12   26 1   
    25   13   14 1   
    26   13   27 1   
    27   13   28 1   
    28   14   15 1   
    29   14   29 1   
    30   15   16 1   
    31   15   30 1   
    32   15   31 1   
    33   16   32 1   
    34   16   33 1   
    35   17   18 2   
    36   17   34 1   
    37   18   19 1   
    38   18   35 1   
    39   19   36 1   
@<TRIPOS>SUBSTRUCTURE
     1 JAK         1 TEMP              0 ****  ****    0 ROOT
