@<TRIPOS>MOLECULE
JAK
   36    39     1     0     0
SMALL
bcc


@<TRIPOS>ATOM
      1 C1          1.0930    3.5720    0.0140 c3        1 JAK     -0.110400
      2 C2          0.0530    2.5100    0.0150 cc        1 JAK      0.392800
      3 N3         -1.2790    2.7290    0.0230 nd        1 JAK     -0.542100
      4 C4         -1.8720    1.4610    0.0210 ca        1 JAK     -0.088900
      5 C5         -3.2470    1.0910    0.0270 ca        1 JAK      0.481200
      6 N6         -3.6630   -0.1670    0.0240 nb        1 JAK     -0.686000
      7 C7         -2.6820   -1.1350    0.0140 ca        1 JAK      0.417800
      8 C8         -1.2410   -0.9090    0.0060 ca        1 JAK     -0.190100
      9 C9         -0.8430    0.4360    0.0100 ca        1 JAK      0.002800
     10 N10         0.3750    1.1170    0.0070 na        1 JAK     -0.149300
     11 C11         1.7150    0.5780   -0.0040 c3        1 JAK      0.062000
     12 C12         2.0380   -0.2530    1.2490 c3        1 JAK     -0.097400
     13 C13         3.4790   -0.7540    1.1920 c3        1 JAK      0.163800
     14 N14         3.7830   -1.4790   -0.0250 n3        1 JAK     -0.823200
     15 C15         3.4650   -0.7430   -1.2310 c3        1 JAK      0.163800
     16 C16         2.0230   -0.2410   -1.2670 c3        1 JAK     -0.097400
     17 C17        -0.6230   -2.2060   -0.0030 cc        1 JAK     -0.179200
     18 C18        -1.6470   -3.1530   -0.0010 cd        1 JAK     -0.121100
     19 N19        -2.8900   -2.5210    0.0090 na        1 JAK     -0.273100
     20 H1          1.7310    3.4890   -0.9020 hc        1 JAK      0.060033
     21 H1A         0.6110    4.5820    0.0210 hc        1 JAK      0.060033
     22 H1B         1.7410    3.4810    0.9210 hc        1 JAK      0.060033
     23 H5         -4.0310    1.8700    0.0350 h4        1 JAK      0.036100
     24 H11         2.4180    1.4690   -0.0040 h1        1 JAK      0.059700
     25 H12         1.9170    0.3750    2.1690 hc        1 JAK      0.065200
     26 H12A        1.3310   -1.1190    1.3310 hc        1 JAK      0.065200
     27 H13         4.1660    0.1330    1.3390 h1        1 JAK      0.031700
     28 H13A        3.6480   -1.4590    2.0550 h1        1 JAK      0.031700
     29 HN14        4.7470   -1.7530   -0.0310 hn        1 JAK      0.367800
     30 H15         4.1510    0.1450   -1.3780 h1        1 JAK      0.031700
     31 H15A        3.6240   -1.4400   -2.1020 h1        1 JAK      0.031700
     32 H16         1.3150   -1.1060   -1.3490 hc        1 JAK      0.065200
     33 H16A        1.8920    0.3950   -2.1800 hc        1 JAK      0.065200
     34 H17         0.4420   -2.4250   -0.0100 ha        1 JAK      0.165000
     35 H18        -1.5810   -4.2420   -0.0070 h4        1 JAK      0.168000
     36 H171       -3.7710   -2.9620    0.0110 hn        1 JAK      0.308700
@<TRIPOS>BOND
     1    1    2 1   
     2    1   20 1   
     3    1   21 1   
     4    1   22 1   
     5    2    3 2   
     6    2   10 1   
     7    3    4 1   
     8    4    5 ar  
     9    4    9 ar  
    10    5    6 ar  
    11    5   23 1   
    12    6    7 ar  
    13    7    8 ar  
    14    7   19 1   
    15    8    9 ar  
    16    8   17 1   
    17    9   10 1   
    18   10   11 1   
    19   11   12 1   
    20   11   16 1   
    21   11   24 1   
    22   12   13 1   
    23   12   25 1   
    24   12   26 1   
    25   13   14 1   
    26   13   27 1   
    27   13   28 1   
    28   14   15 1   
    29   14   29 1   
    30   15   16 1   
    31   15   30 1   
    32   15   31 1   
    33   16   32 1   
    34   16   33 1   
    35   17   18 2   
    36   17   34 1   
    37   18   19 1   
    38   18   35 1   
    39   19   36 1   
@<TRIPOS>SUBSTRUCTURE
     1 JAK         1 TEMP              0 ****  ****    0 ROOT
