@<TRIPOS>MOLECULE
JAN
   56    60     1     0     0
SMALL
bcc


@<TRIPOS>ATOM
      1 C1          2.8760   -3.2710    1.0740 c3        1 JAN      0.023600
      2 N1          2.8150   -2.3810    2.1850 na        1 JAN     -0.185900
      3 C2          3.7290   -2.3530    3.2510 cc        1 JAN      0.380400
      4 N2          3.3960   -1.4190    4.1680 nd        1 JAN     -0.665000
      5 C3          2.2320   -0.8250    3.6960 cd        1 JAN      0.297200
      6 C4          1.8480   -1.4040    2.4640 cc        1 JAN     -0.202900
      7 C5          0.6580   -1.0630    1.5940 c3        1 JAN      0.374100
      8 C6         -0.2920   -0.2040    2.4280 ca        1 JAN     -0.096300
      9 C7         -0.9570   -0.7930    3.5140 ca        1 JAN     -0.101000
     10 C8         -1.8470   -0.0510    4.2870 ca        1 JAN     -0.132000
     11 C9         -2.0740    1.2940    3.9780 ca        1 JAN      0.024400
     12 CL1        -3.1600    2.2040    4.9160 cl        1 JAN     -0.091400
     13 C10        -1.4110    1.8930    2.9050 ca        1 JAN     -0.132000
     14 C11        -0.5240    1.1410    2.1340 ca        1 JAN     -0.101000
     15 N3         -0.0250   -2.3040    1.2000 n3        1 JAN     -0.906800
     16 C12         1.1630   -0.2610    0.3920 ca        1 JAN     -0.161300
     17 C13         0.4780   -0.2630   -0.8160 ca        1 JAN     -0.078000
     18 C14         0.9400    0.4580   -1.9300 ca        1 JAN     -0.128800
     19 C15         2.3360    0.5090    0.4960 ca        1 JAN     -0.063000
     20 C16         2.8210    1.2260   -0.5800 ca        1 JAN     -0.186000
     21 C17         2.1450    1.2120   -1.8310 ca        1 JAN      0.103600
     22 N4          2.6440    1.9120   -2.9290 n         1 JAN     -0.347000
     23 C18         3.8600    2.6750   -2.7930 c3        1 JAN      0.062300
     24 C19         1.9780    1.8830   -4.1720 c         1 JAN      0.694700
     25 O1          2.4560    2.5010   -5.1440 o         1 JAN     -0.626500
     26 C20         0.7310    1.1150   -4.2560 cc        1 JAN     -0.221200
     27 C21         0.2270    0.4440   -3.1930 cd        1 JAN      0.069600
     28 C22        -1.0330   -0.2970   -3.3270 ca        1 JAN     -0.063800
     29 C23        -2.1510    0.0600   -2.5630 ca        1 JAN     -0.112000
     30 C24        -3.3500   -0.6390   -2.7260 ca        1 JAN      0.012400
     31 CL2        -4.7050   -0.2050   -1.7990 cl        1 JAN     -0.082400
     32 C25        -3.4450   -1.6910   -3.6440 ca        1 JAN     -0.116000
     33 C26        -2.3290   -2.0370   -4.4030 ca        1 JAN     -0.122000
     34 C27        -1.1290   -1.3450   -4.2520 ca        1 JAN     -0.112000
     35 H11A        2.1330   -4.1060    1.1970 h1        1 JAN      0.055367
     36 H12         2.6540   -2.7150    0.1240 h1        1 JAN      0.055367
     37 H13A        3.9070   -3.7120    1.0060 h1        1 JAN      0.055367
     38 H2          4.5950   -3.0200    3.3000 h5        1 JAN      0.060100
     39 H3          1.7260   -0.0310    4.2450 h4        1 JAN      0.048100
     40 H7         -0.7680   -1.8490    3.7660 ha        1 JAN      0.153000
     41 H8         -2.3630   -0.5230    5.1360 ha        1 JAN      0.150000
     42 H10        -1.5840    2.9530    2.6640 ha        1 JAN      0.150000
     43 H11        -0.0070    1.6290    1.2930 ha        1 JAN      0.153000
     44 HN31       -0.9930   -2.1270    1.0180 hn        1 JAN      0.358800
     45 HN32        0.4020   -2.6950    0.3840 hn        1 JAN      0.358800
     46 H13        -0.4640   -0.8270   -0.9290 ha        1 JAN      0.142000
     47 H15         2.8790    0.5460    1.4570 ha        1 JAN      0.161000
     48 H16         3.7450    1.8110   -0.4520 ha        1 JAN      0.147000
     49 H181        4.1070    3.1710   -3.7700 h1        1 JAN      0.060367
     50 H182        3.7320    3.4650   -2.0050 h1        1 JAN      0.060367
     51 H183        4.7090    1.9980   -2.5040 h1        1 JAN      0.060367
     52 H20         0.2370    1.1350   -5.2400 ha        1 JAN      0.171000
     53 H23        -2.0840    0.8920   -1.8440 ha        1 JAN      0.157000
     54 H25        -4.3930   -2.2370   -3.7680 ha        1 JAN      0.152000
     55 H26        -2.3980   -2.8610   -5.1300 ha        1 JAN      0.143000
     56 H27        -0.2530   -1.6180   -4.8610 ha        1 JAN      0.145000
@<TRIPOS>BOND
     1    1    2 1   
     2    1   35 1   
     3    1   36 1   
     4    1   37 1   
     5    2    3 1   
     6    2    6 1   
     7    3    4 2   
     8    3   38 1   
     9    4    5 1   
    10    5    6 2   
    11    5   39 1   
    12    6    7 1   
    13    7    8 1   
    14    7   15 1   
    15    7   16 1   
    16    8    9 ar  
    17    8   14 ar  
    18    9   10 ar  
    19    9   40 1   
    20   10   11 ar  
    21   10   41 1   
    22   11   12 1   
    23   11   13 ar  
    24   13   14 ar  
    25   13   42 1   
    26   14   43 1   
    27   15   44 1   
    28   15   45 1   
    29   16   17 ar  
    30   16   19 ar  
    31   17   18 ar  
    32   17   46 1   
    33   18   21 ar  
    34   18   27 1   
    35   19   20 ar  
    36   19   47 1   
    37   20   21 ar  
    38   20   48 1   
    39   21   22 1   
    40   22   23 1   
    41   22   24 1   
    42   23   49 1   
    43   23   50 1   
    44   23   51 1   
    45   24   25 2   
    46   24   26 1   
    47   26   27 2   
    48   26   52 1   
    49   27   28 1   
    50   28   29 ar  
    51   28   34 ar  
    52   29   30 ar  
    53   29   53 1   
    54   30   31 1   
    55   30   32 ar  
    56   32   33 ar  
    57   32   54 1   
    58   33   34 ar  
    59   33   55 1   
    60   34   56 1   
@<TRIPOS>SUBSTRUCTURE
     1 JAN         1 TEMP              0 ****  ****    0 ROOT
