@<TRIPOS>MOLECULE
JAN
   57    61     1     0     0
SMALL
bcc


@<TRIPOS>ATOM
      1 C1          0.2210   -0.2380    0.2740 c3        1 JAN     -0.001400
      2 N1          1.6290   -0.0740    0.1280 na        1 JAN     -0.206900
      3 C2          2.5590   -0.0410    1.1720 cc        1 JAN      0.451400
      4 N2          3.8300    0.0540    0.7120 nd        1 JAN     -0.648000
      5 C3          3.7350    0.0800   -0.6690 cd        1 JAN      0.397200
      6 C4          2.3780    0.0020   -1.0700 cc        1 JAN     -0.350900
      7 C5          1.8210   -0.0270   -2.4530 c3        1 JAN      0.415100
      8 C6          2.9050    0.2380   -3.4760 ca        1 JAN     -0.176300
      9 C7          3.6920    1.3960   -3.3660 ca        1 JAN     -0.095500
     10 C8          4.6870    1.6670   -4.2990 ca        1 JAN     -0.121000
     11 C9          4.9130    0.7700   -5.3540 ca        1 JAN      0.052400
     12 Cl1         6.1210    1.0940   -6.4880 cl        1 JAN     -0.028400
     13 C10         4.1430   -0.3920   -5.4620 ca        1 JAN     -0.121000
     14 C11         3.1420   -0.6530   -4.5270 ca        1 JAN     -0.095500
     15 N3          0.8340    1.1720   -2.5500 nz        1 JAN     -0.867600
     16 C12         1.0520   -1.2960   -2.7350 ca        1 JAN     -0.222300
     17 C13         0.0680   -1.3630   -3.7200 ca        1 JAN     -0.075000
     18 C14        -0.6290   -2.5470   -3.9860 ca        1 JAN     -0.121800
     19 C15         1.3800   -2.4700   -2.0300 ca        1 JAN     -0.048000
     20 C16         0.7170   -3.6550   -2.2730 ca        1 JAN     -0.182000
     21 C17        -0.3220   -3.7320   -3.2460 ca        1 JAN      0.137600
     22 N4         -1.0120   -4.9120   -3.4690 n         1 JAN     -0.343000
     23 C18        -0.6660   -6.0990   -2.7220 c3        1 JAN      0.052300
     24 C19        -2.0520   -4.9790   -4.4330 c         1 JAN      0.690700
     25 O1         -2.6680   -6.0440   -4.5950 o         1 JAN     -0.574500
     26 C20        -2.3450   -3.7600   -5.1990 cc        1 JAN     -0.191200
     27 C21        -1.6690   -2.6040   -5.0000 cd        1 JAN      0.051600
     28 C22        -1.9920   -1.4160   -5.7980 ca        1 JAN     -0.077800
     29 C23        -1.0260   -0.8370   -6.6310 ca        1 JAN     -0.127000
     30 C24        -1.3590    0.2790   -7.4040 ca        1 JAN      0.006400
     31 Cl2        -0.1820    0.9850   -8.4010 cl        1 JAN     -0.071400
     32 C25        -2.6520    0.8140   -7.3650 ca        1 JAN     -0.109000
     33 C26        -3.6110    0.2250   -6.5420 ca        1 JAN     -0.116000
     34 C27        -3.2880   -0.8840   -5.7620 ca        1 JAN     -0.113000
     35 H11A       -0.3000    0.7550    0.1910 h1        1 JAN      0.066700
     36 H12        -0.0050   -0.6700    1.2870 h1        1 JAN      0.066700
     37 H13A       -0.1720   -0.9390   -0.5130 h1        1 JAN      0.066700
     38 H2          2.2670   -0.0810    2.2310 h5        1 JAN      0.087100
     39 H3          4.6220    0.1410   -1.3060 h4        1 JAN      0.068100
     40 H7          3.5510    2.0910   -2.5220 ha        1 JAN      0.149000
     41 H8          5.3010    2.5780   -4.2040 ha        1 JAN      0.171500
     42 H10         4.3250   -1.1070   -6.2820 ha        1 JAN      0.171500
     43 H11         2.5480   -1.5780   -4.6240 ha        1 JAN      0.149000
     44 HN31        1.2670    1.9940   -2.1230 hn        1 JAN      0.450800
     45 HN32        0.6340    1.3670   -3.5340 hn        1 JAN      0.450800
     46 H13        -0.1780   -0.4860   -4.3420 ha        1 JAN      0.133000
     47 H15         2.1920   -2.4540   -1.2820 ha        1 JAN      0.163000
     48 H16         1.0100   -4.5520   -1.7030 ha        1 JAN      0.165000
     49 H181       -1.3250   -6.9530   -3.0420 h1        1 JAN      0.070367
     50 H182        0.4050   -6.3770   -2.9150 h1        1 JAN      0.070367
     51 H183       -0.8150   -5.9190   -1.6240 h1        1 JAN      0.070367
     52 H20        -3.1450   -3.8640   -5.9500 ha        1 JAN      0.186000
     53 H23        -0.0190   -1.2770   -6.6940 ha        1 JAN      0.152000
     54 H25        -2.9140    1.6830   -7.9890 ha        1 JAN      0.163000
     55 H26        -4.6340    0.6320   -6.5190 ha        1 JAN      0.155000
     56 H27        -4.0550   -1.3530   -5.1250 ha        1 JAN      0.150000
     57 H33        -0.0330    0.9400   -2.0620 hn        1 JAN      0.450800
@<TRIPOS>BOND
     1    1    2 1   
     2    1   35 1   
     3    1   36 1   
     4    1   37 1   
     5    2    3 1   
     6    2    6 1   
     7    3    4 2   
     8    3   38 1   
     9    4    5 1   
    10    5    6 2   
    11    5   39 1   
    12    6    7 1   
    13    7    8 1   
    14    7   15 1   
    15    7   16 1   
    16    8    9 ar  
    17    8   14 ar  
    18    9   10 ar  
    19    9   40 1   
    20   10   11 ar  
    21   10   41 1   
    22   11   12 1   
    23   11   13 ar  
    24   13   14 ar  
    25   13   42 1   
    26   14   43 1   
    27   15   44 1   
    28   15   45 1   
    29   15   57 1   
    30   16   17 ar  
    31   16   19 ar  
    32   17   18 ar  
    33   17   46 1   
    34   18   21 ar  
    35   18   27 1   
    36   19   20 ar  
    37   19   47 1   
    38   20   21 ar  
    39   20   48 1   
    40   21   22 1   
    41   22   23 1   
    42   22   24 1   
    43   23   49 1   
    44   23   50 1   
    45   23   51 1   
    46   24   25 2   
    47   24   26 1   
    48   26   27 2   
    49   26   52 1   
    50   27   28 1   
    51   28   29 ar  
    52   28   34 ar  
    53   29   30 ar  
    54   29   53 1   
    55   30   31 1   
    56   30   32 ar  
    57   32   33 ar  
    58   32   54 1   
    59   33   34 ar  
    60   33   55 1   
    61   34   56 1   
@<TRIPOS>SUBSTRUCTURE
     1 JAN         1 TEMP              0 ****  ****    0 ROOT
