@<TRIPOS>MOLECULE
JAN
   57    61     1     0     0
SMALL
bcc


@<TRIPOS>ATOM
      1 C1          0.2180   -0.2380    0.2720 c3        1 JAN     -0.001400
      2 N1          1.6280   -0.0770    0.1280 na        1 JAN     -0.206900
      3 C2          2.5560   -0.0460    1.1740 cc        1 JAN      0.451400
      4 N2          3.8270    0.0450    0.7150 nd        1 JAN     -0.648000
      5 C3          3.7350    0.0720   -0.6650 cd        1 JAN      0.397200
      6 C4          2.3780   -0.0020   -1.0680 cc        1 JAN     -0.350900
      7 C5          1.8230   -0.0300   -2.4530 c3        1 JAN      0.415100
      8 C6          2.9090    0.2330   -3.4740 ca        1 JAN     -0.176300
      9 C7          3.7000    1.3880   -3.3630 ca        1 JAN     -0.095500
     10 C8          4.6960    1.6560   -4.2940 ca        1 JAN     -0.121000
     11 C9          4.9220    0.7590   -5.3480 ca        1 JAN      0.052400
     12 CL1         6.1320    1.0800   -6.4810 cl        1 JAN     -0.028400
     13 C10         4.1480   -0.4010   -5.4580 ca        1 JAN     -0.121000
     14 C11         3.1450   -0.6590   -4.5240 ca        1 JAN     -0.095500
     15 N3          0.8390    1.1720   -2.5510 n4        1 JAN     -0.867600
     16 C12         1.0510   -1.2980   -2.7350 ca        1 JAN     -0.222300
     17 C13         0.0680   -1.3620   -3.7200 ca        1 JAN     -0.075000
     18 C14        -0.6320   -2.5430   -3.9880 ca        1 JAN     -0.121800
     19 C15         1.3770   -2.4720   -2.0310 ca        1 JAN     -0.048000
     20 C16         0.7110   -3.6550   -2.2750 ca        1 JAN     -0.182000
     21 C17        -0.3270   -3.7300   -3.2480 ca        1 JAN      0.137600
     22 N4         -1.0200   -4.9090   -3.4730 n         1 JAN     -0.343000
     23 C18        -0.6760   -6.0970   -2.7260 c3        1 JAN      0.052300
     24 C19        -2.0590   -4.9730   -4.4370 c         1 JAN      0.690700
     25 O1         -2.6770   -6.0370   -4.6000 o         1 JAN     -0.574500
     26 C20        -2.3490   -3.7520   -5.2020 cc        1 JAN     -0.191200
     27 C21        -1.6720   -2.5980   -5.0020 cd        1 JAN      0.051600
     28 C22        -1.9920   -1.4090   -5.7990 ca        1 JAN     -0.077800
     29 C23        -1.0260   -0.8310   -6.6310 ca        1 JAN     -0.127000
     30 C24        -1.3570    0.2860   -7.4030 ca        1 JAN      0.006400
     31 CL2        -0.1780    0.9910   -8.4000 cl        1 JAN     -0.071400
     32 C25        -2.6480    0.8240   -7.3640 ca        1 JAN     -0.109000
     33 C26        -3.6080    0.2360   -6.5420 ca        1 JAN     -0.116000
     34 C27        -3.2880   -0.8750   -5.7620 ca        1 JAN     -0.113000
     35 H11A       -0.0110   -0.6690    1.2840 h1        1 JAN      0.066700
     36 H12        -0.3000    0.7570    0.1880 h1        1 JAN      0.066700
     37 H13A       -0.1750   -0.9370   -0.5160 h1        1 JAN      0.066700
     38 H2          2.2610   -0.0850    2.2320 h5        1 JAN      0.087100
     39 H3          4.6230    0.1320   -1.3010 h4        1 JAN      0.068100
     40 H7          3.5590    2.0830   -2.5190 ha        1 JAN      0.149000
     41 H8          5.3120    2.5660   -4.1980 ha        1 JAN      0.171500
     42 H10         4.3290   -1.1160   -6.2780 ha        1 JAN      0.171500
     43 H11         2.5490   -1.5820   -4.6220 ha        1 JAN      0.149000
     44 HN31        0.6410    1.3670   -3.5350 hn        1 JAN      0.450800
     45 HN32        1.2740    1.9920   -2.1230 hn        1 JAN      0.450800
     46 H13        -0.1770   -0.4840   -4.3420 ha        1 JAN      0.133000
     47 H15         2.1880   -2.4580   -1.2820 ha        1 JAN      0.163000
     48 H16         1.0030   -4.5530   -1.7050 ha        1 JAN      0.165000
     49 H181       -0.8250   -5.9170   -1.6280 h1        1 JAN      0.070367
     50 H182        0.3950   -6.3760   -2.9180 h1        1 JAN      0.070367
     51 H183       -1.3360   -6.9490   -3.0480 h1        1 JAN      0.070367
     52 H20        -3.1490   -3.8540   -5.9540 ha        1 JAN      0.186000
     53 H23        -0.0190   -1.2730   -6.6960 ha        1 JAN      0.152000
     54 H25        -2.9080    1.6940   -7.9870 ha        1 JAN      0.163000
     55 H26        -4.6300    0.6450   -6.5180 ha        1 JAN      0.155000
     56 H27        -4.0550   -1.3420   -5.1260 ha        1 JAN      0.150000
     57 H33        -0.0290    0.9420   -2.0640 hn        1 JAN      0.450800
@<TRIPOS>BOND
     1    1    2 1   
     2    1   35 1   
     3    1   36 1   
     4    1   37 1   
     5    2    3 1   
     6    2    6 1   
     7    3    4 2   
     8    3   38 1   
     9    4    5 1   
    10    5    6 2   
    11    5   39 1   
    12    6    7 1   
    13    7    8 1   
    14    7   15 1   
    15    7   16 1   
    16    8    9 ar  
    17    8   14 ar  
    18    9   10 ar  
    19    9   40 1   
    20   10   11 ar  
    21   10   41 1   
    22   11   12 1   
    23   11   13 ar  
    24   13   14 ar  
    25   13   42 1   
    26   14   43 1   
    27   15   44 1   
    28   15   45 1   
    29   15   57 1   
    30   16   17 ar  
    31   16   19 ar  
    32   17   18 ar  
    33   17   46 1   
    34   18   21 ar  
    35   18   27 1   
    36   19   20 ar  
    37   19   47 1   
    38   20   21 ar  
    39   20   48 1   
    40   21   22 1   
    41   22   23 1   
    42   22   24 1   
    43   23   49 1   
    44   23   50 1   
    45   23   51 1   
    46   24   25 2   
    47   24   26 1   
    48   26   27 2   
    49   26   52 1   
    50   27   28 1   
    51   28   29 ar  
    52   28   34 ar  
    53   29   30 ar  
    54   29   53 1   
    55   30   31 1   
    56   30   32 ar  
    57   32   33 ar  
    58   32   54 1   
    59   33   34 ar  
    60   33   55 1   
    61   34   56 1   
@<TRIPOS>SUBSTRUCTURE
     1 JAN         1 TEMP              0 ****  ****    0 ROOT
