@<TRIPOS>MOLECULE
JAO
   57    56     1     0     0
SMALL
bcc


@<TRIPOS>ATOM
      1 CAB         7.8980    1.3860   -0.7670 c3        1 JAO     -0.089100
      2 CAE         8.8150   -0.7650    0.0990 c3        1 JAO      0.132400
      3 CAF       -11.1290   -0.2990   -0.1040 c3        1 JAO     -0.092100
      4 CAG        -9.8710    0.4680    0.2120 c3        1 JAO     -0.080400
      5 CAH        -8.6320   -0.3370   -0.1200 c3        1 JAO     -0.079400
      6 CAI        -7.3700    0.4370    0.1980 c3        1 JAO     -0.079400
      7 CAJ        -6.1330   -0.3680   -0.1340 c3        1 JAO     -0.079400
      8 CAK        -4.8720    0.4060    0.1840 c3        1 JAO     -0.079400
      9 CAL        -3.6340   -0.4000   -0.1480 c3        1 JAO     -0.079400
     10 CAM        -2.3730    0.3740    0.1700 c3        1 JAO     -0.079400
     11 CAN        -1.1350   -0.4310   -0.1630 c3        1 JAO     -0.079400
     12 CAO         0.1260    0.3430    0.1560 c3        1 JAO     -0.079400
     13 CAP         1.3640   -0.4630   -0.1770 c3        1 JAO     -0.079400
     14 CAQ         2.6250    0.3110    0.1410 c3        1 JAO     -0.079400
     15 CAR         3.8630   -0.4940   -0.1920 c3        1 JAO     -0.079400
     16 CAS         5.1240    0.2810    0.1290 c3        1 JAO     -0.078400
     17 CAT         6.3600   -0.5240   -0.2130 c3        1 JAO     -0.077400
     18 CAU         7.6400    0.2110    0.1520 c3        1 JAO     -0.067700
     19 O3          9.9260   -0.1260    0.7100 oh        1 JAO     -0.601800
     20 H1          8.8900    1.8410   -0.5250 hc        1 JAO      0.037700
     21 H2          7.9070    1.0590   -1.8350 hc        1 JAO      0.037700
     22 H3          7.1070    2.1630   -0.6410 hc        1 JAO      0.037700
     23 H4          8.5690   -1.7060    0.6600 h1        1 JAO      0.020700
     24 H5        -11.1710   -1.2480    0.4840 hc        1 JAO      0.032700
     25 H6        -12.0290    0.3120    0.1480 hc        1 JAO      0.032700
     26 H7        -11.1710   -0.5580   -1.1890 hc        1 JAO      0.032700
     27 H8         -9.8590    1.4280   -0.3680 hc        1 JAO      0.038700
     28 H9         -9.8580    0.7400    1.3000 hc        1 JAO      0.038700
     29 H10        -8.6410   -1.2970    0.4600 hc        1 JAO      0.039700
     30 H11        -8.6420   -0.6090   -1.2090 hc        1 JAO      0.039700
     31 H12        -7.3620    1.3970   -0.3820 hc        1 JAO      0.039700
     32 H13        -7.3610    0.7090    1.2860 hc        1 JAO      0.039700
     33 H14        -6.1420   -1.3290    0.4460 hc        1 JAO      0.039700
     34 H15        -6.1420   -0.6410   -1.2230 hc        1 JAO      0.039700
     35 H16        -4.8630    1.3650   -0.3970 hc        1 JAO      0.039700
     36 H17        -4.8620    0.6780    1.2720 hc        1 JAO      0.039700
     37 H18        -3.6430   -1.3600    0.4320 hc        1 JAO      0.039700
     38 H19        -2.3640    1.3340   -0.4110 hc        1 JAO      0.039700
     39 H20        -1.1440   -1.3910    0.4180 hc        1 JAO      0.039700
     40 H21        -1.1450   -0.7040   -1.2510 hc        1 JAO      0.039700
     41 H22         0.1350    1.3030   -0.4250 hc        1 JAO      0.039700
     42 H23         0.1360    0.6150    1.2440 hc        1 JAO      0.039700
     43 H24         1.3550   -1.4230    0.4040 hc        1 JAO      0.039700
     44 H25         1.3540   -0.7350   -1.2650 hc        1 JAO      0.039700
     45 H26         2.6340    1.2720   -0.4390 hc        1 JAO      0.039700
     46 H27         2.6350    0.5840    1.2300 hc        1 JAO      0.039700
     47 H28         3.8530   -1.4540    0.3880 hc        1 JAO      0.039200
     48 H29         3.8540   -0.7640   -1.2810 hc        1 JAO      0.039200
     49 H30         5.1280    1.2440   -0.4460 hc        1 JAO      0.042200
     50 H31         6.3220   -1.5010    0.3380 hc        1 JAO      0.039700
     51 H32         7.5580    0.5940    1.2080 hc        1 JAO      0.064700
     52 H33        -3.6430   -0.6720   -1.2370 hc        1 JAO      0.039700
     53 H34        -2.3630    0.6460    1.2580 hc        1 JAO      0.039700
     54 H35         5.1360    0.5460    1.2190 hc        1 JAO      0.042200
     55 H36         6.3640   -0.7600   -1.3100 hc        1 JAO      0.039700
     56 H37         9.0590   -1.0280   -0.9650 h1        1 JAO      0.020700
     57 H38        10.6660   -0.7390    0.6390 ho        1 JAO      0.398000
@<TRIPOS>BOND
     1    1   18 1   
     2    1   20 1   
     3    1   21 1   
     4    1   22 1   
     5    2   18 1   
     6    2   19 1   
     7    2   23 1   
     8    2   56 1   
     9    3    4 1   
    10    3   24 1   
    11    3   25 1   
    12    3   26 1   
    13    4    5 1   
    14    4   27 1   
    15    4   28 1   
    16    5    6 1   
    17    5   29 1   
    18    5   30 1   
    19    6    7 1   
    20    6   31 1   
    21    6   32 1   
    22    7    8 1   
    23    7   33 1   
    24    7   34 1   
    25    8    9 1   
    26    8   35 1   
    27    8   36 1   
    28    9   10 1   
    29    9   37 1   
    30    9   52 1   
    31   10   11 1   
    32   10   38 1   
    33   10   53 1   
    34   11   12 1   
    35   11   39 1   
    36   11   40 1   
    37   12   13 1   
    38   12   41 1   
    39   12   42 1   
    40   13   14 1   
    41   13   43 1   
    42   13   44 1   
    43   14   15 1   
    44   14   45 1   
    45   14   46 1   
    46   15   16 1   
    47   15   47 1   
    48   15   48 1   
    49   16   17 1   
    50   16   49 1   
    51   16   54 1   
    52   17   18 1   
    53   17   50 1   
    54   17   55 1   
    55   18   51 1   
    56   19   57 1   
@<TRIPOS>SUBSTRUCTURE
     1 JAO         1 TEMP              0 ****  ****    0 ROOT
