@<TRIPOS>MOLECULE
JAO
   57    56     1     0     0
SMALL
bcc


@<TRIPOS>ATOM
      1 CAB        -0.0110   -0.1360   -0.1270 c3        1 JAO     -0.089100
      2 CAE         2.1730   -1.1870   -0.7150 c3        1 JAO      0.132400
      3 CAF         2.8210    9.1790   16.3200 c3        1 JAO     -0.092100
      4 CAG         2.3270    9.1560   14.8960 c3        1 JAO     -0.080400
      5 CAH         2.7000    7.8640   14.2000 c3        1 JAO     -0.079400
      6 CAI         2.2010    7.8460   12.7700 c3        1 JAO     -0.079400
      7 CAJ         2.5750    6.5540   12.0750 c3        1 JAO     -0.079400
      8 CAK         2.0760    6.5360   10.6460 c3        1 JAO     -0.079400
      9 CAL         2.4500    5.2440    9.9500 c3        1 JAO     -0.079400
     10 CAM         1.9500    5.2250    8.5210 c3        1 JAO     -0.079400
     11 CAN         2.3240    3.9340    7.8260 c3        1 JAO     -0.079400
     12 CAO         1.8240    3.9140    6.3970 c3        1 JAO     -0.079400
     13 CAP         2.1970    2.6230    5.7020 c3        1 JAO     -0.079400
     14 CAQ         1.6960    2.6030    4.2740 c3        1 JAO     -0.079400
     15 CAR         2.0680    1.3120    3.5780 c3        1 JAO     -0.079400
     16 CAS         1.5690    1.2940    2.1490 c3        1 JAO     -0.078400
     17 CAT         1.9350   -0.0030    1.4590 c3        1 JAO     -0.077400
     18 CAU         1.4920   -0.0220    0.0050 c3        1 JAO     -0.067700
     19 O3          1.9640   -1.0070   -2.1070 oh        1 JAO     -0.601800
     20 H1         -0.3900   -1.0300    0.4250 hc        1 JAO      0.037700
     21 H2         -0.2870   -0.2400   -1.2040 hc        1 JAO      0.037700
     22 H3         -0.5100    0.7730    0.2850 hc        1 JAO      0.037700
     23 H4          1.7320   -2.1640   -0.3820 h1        1 JAO      0.020700
     24 H5          2.3790    8.3350   16.9040 hc        1 JAO      0.032700
     25 H6          3.9330    9.0820   16.3530 hc        1 JAO      0.032700
     26 H7          2.5350   10.1380   16.8140 hc        1 JAO      0.032700
     27 H8          1.2110    9.2790   14.8830 hc        1 JAO      0.038700
     28 H9          2.7610   10.0230   14.3330 hc        1 JAO      0.038700
     29 H10         2.2650    6.9960   14.7610 hc        1 JAO      0.039700
     30 H11         3.8150    7.7400   14.2110 hc        1 JAO      0.039700
     31 H12         2.6360    8.7150   12.2090 hc        1 JAO      0.039700
     32 H13         1.0860    7.9700   12.7590 hc        1 JAO      0.039700
     33 H14         2.1400    5.6860   12.6360 hc        1 JAO      0.039700
     34 H15         3.6900    6.4300   12.0860 hc        1 JAO      0.039700
     35 H16         0.9610    6.6600   10.6350 hc        1 JAO      0.039700
     36 H17         2.5100    7.4040   10.0840 hc        1 JAO      0.039700
     37 H18         3.5650    5.1200    9.9610 hc        1 JAO      0.039700
     38 H19         2.3840    6.0940    7.9600 hc        1 JAO      0.039700
     39 H20         1.8900    3.0650    8.3880 hc        1 JAO      0.039700
     40 H21         3.4390    3.8100    7.8360 hc        1 JAO      0.039700
     41 H22         2.2580    4.7830    5.8350 hc        1 JAO      0.039700
     42 H23         0.7090    4.0390    6.3870 hc        1 JAO      0.039700
     43 H24         1.7630    1.7540    6.2640 hc        1 JAO      0.039700
     44 H25         3.3120    2.4990    5.7120 hc        1 JAO      0.039700
     45 H26         2.1300    3.4720    3.7110 hc        1 JAO      0.039700
     46 H27         0.5810    2.7280    4.2640 hc        1 JAO      0.039700
     47 H28         3.1830    1.1870    3.5890 hc        1 JAO      0.039200
     48 H29         1.6330    0.4430    4.1400 hc        1 JAO      0.039200
     49 H30         0.4550    1.4260    2.1400 hc        1 JAO      0.042200
     50 H31         3.0480   -0.1410    1.5110 hc        1 JAO      0.039700
     51 H32         1.8250    0.9320   -0.4950 hc        1 JAO      0.064700
     52 H33         2.0160    4.3750   10.5120 hc        1 JAO      0.039700
     53 H34         0.8350    5.3490    8.5110 hc        1 JAO      0.039700
     54 H35         2.0090    2.1580    1.5860 hc        1 JAO      0.042200
     55 H36         1.4680   -0.8650    2.0040 hc        1 JAO      0.039700
     56 H37         3.2750   -1.1920   -0.4980 h1        1 JAO      0.020700
     57 H38         2.3680   -1.7640   -2.5450 ho        1 JAO      0.398000
@<TRIPOS>BOND
     1    1   18 1   
     2    1   20 1   
     3    1   21 1   
     4    1   22 1   
     5    2   18 1   
     6    2   19 1   
     7    2   23 1   
     8    2   56 1   
     9    3    4 1   
    10    3   24 1   
    11    3   25 1   
    12    3   26 1   
    13    4    5 1   
    14    4   27 1   
    15    4   28 1   
    16    5    6 1   
    17    5   29 1   
    18    5   30 1   
    19    6    7 1   
    20    6   31 1   
    21    6   32 1   
    22    7    8 1   
    23    7   33 1   
    24    7   34 1   
    25    8    9 1   
    26    8   35 1   
    27    8   36 1   
    28    9   10 1   
    29    9   37 1   
    30    9   52 1   
    31   10   11 1   
    32   10   38 1   
    33   10   53 1   
    34   11   12 1   
    35   11   39 1   
    36   11   40 1   
    37   12   13 1   
    38   12   41 1   
    39   12   42 1   
    40   13   14 1   
    41   13   43 1   
    42   13   44 1   
    43   14   15 1   
    44   14   45 1   
    45   14   46 1   
    46   15   16 1   
    47   15   47 1   
    48   15   48 1   
    49   16   17 1   
    50   16   49 1   
    51   16   54 1   
    52   17   18 1   
    53   17   50 1   
    54   17   55 1   
    55   18   51 1   
    56   19   57 1   
@<TRIPOS>SUBSTRUCTURE
     1 JAO         1 TEMP              0 ****  ****    0 ROOT
