@<TRIPOS>MOLECULE
JAO
   57    56     1     0     0
SMALL
bcc


@<TRIPOS>ATOM
      1 CAB        -5.1140   -4.3600   -6.0880 c3        1 JAO     -0.090100
      2 CAE        -2.8880   -5.1280   -6.8260 c3        1 JAO      0.132400
      3 CAF         4.7410    5.4670    7.9760 c3        1 JAO     -0.092100
      4 CAG         4.0530    5.5210    6.6390 c3        1 JAO     -0.080400
      5 CAH         3.7480    4.1060    6.1650 c3        1 JAO     -0.079400
      6 CAI         3.0230    4.1690    4.7750 c3        1 JAO     -0.079400
      7 CAJ         2.6630    2.7300    4.3080 c3        1 JAO     -0.079400
      8 CAK         1.9160    2.7980    2.9660 c3        1 JAO     -0.079400
      9 CAL         1.5090    1.3750    2.5370 c3        1 JAO     -0.079400
     10 CAM         0.7800    1.4290    1.1660 c3        1 JAO     -0.079400
     11 CAN         0.3070    0.0030    0.7770 c3        1 JAO     -0.079400
     12 CAO        -0.3450    0.0430   -0.6380 c3        1 JAO     -0.079400
     13 CAP        -0.8610   -1.3740   -1.0160 c3        1 JAO     -0.079400
     14 CAQ        -1.4330   -1.3430   -2.4210 c3        1 JAO     -0.079400
     15 CAR        -2.0280   -2.7330   -2.7770 c3        1 JAO     -0.079400
     16 CAS        -2.5250   -2.7130   -4.2270 c3        1 JAO     -0.080400
     17 CAT        -3.1210   -4.0890   -4.5860 c3        1 JAO     -0.078400
     18 CAU        -3.6130   -4.0760   -6.0510 c3        1 JAO     -0.067700
     19 O3         -3.1270   -4.9390   -8.2370 oh        1 JAO     -0.602800
     20 H1         -5.4340   -4.3280   -7.0280 hc        1 JAO      0.037367
     21 H2         -5.5850   -3.6890   -5.5610 hc        1 JAO      0.037367
     22 H3         -5.2870   -5.2510   -5.7140 hc        1 JAO      0.037367
     23 H4         -1.9240   -5.0620   -6.6440 h1        1 JAO      0.021200
     24 H5          5.5330    4.9010    7.9110 hc        1 JAO      0.032700
     25 H6          4.1310    5.0990    8.6400 hc        1 JAO      0.032700
     26 H7          5.0090    6.3750    8.2430 hc        1 JAO      0.032700
     27 H8          4.6290    5.9580    5.9990 hc        1 JAO      0.038700
     28 H9          3.2260    6.0190    6.7220 hc        1 JAO      0.038700
     29 H10         3.1680    3.6620    6.8150 hc        1 JAO      0.039700
     30 H11         4.5860    3.6030    6.0760 hc        1 JAO      0.039700
     31 H12         2.1990    4.7020    4.8590 hc        1 JAO      0.039700
     32 H13         3.6190    4.5890    4.1140 hc        1 JAO      0.039700
     33 H14         2.0920    2.3030    4.9780 hc        1 JAO      0.039700
     34 H15         3.4770    2.2120    4.1990 hc        1 JAO      0.039700
     35 H16         2.4990    3.1890    2.2880 hc        1 JAO      0.039700
     36 H17         1.1270    3.3430    3.0650 hc        1 JAO      0.039700
     37 H18         0.8910    0.9780    3.2310 hc        1 JAO      0.039700
     38 H19        -0.0080    2.0340    1.2320 hc        1 JAO      0.039700
     39 H20         1.0690   -0.6010    0.7670 hc        1 JAO      0.039700
     40 H21        -0.3380   -0.3060    1.4180 hc        1 JAO      0.039700
     41 H22         0.3280    0.3370   -1.3030 hc        1 JAO      0.039700
     42 H23        -1.0830    0.6620   -0.6330 hc        1 JAO      0.039700
     43 H24        -1.5600   -1.6470   -0.3850 hc        1 JAO      0.039200
     44 H25        -0.1430   -1.9930   -0.9810 hc        1 JAO      0.039200
     45 H26        -2.1380   -0.6660   -2.4710 hc        1 JAO      0.040200
     46 H27        -0.7200   -1.1210   -3.0590 hc        1 JAO      0.040200
     47 H28        -2.7800   -2.9330   -2.1740 hc        1 JAO      0.039200
     48 H29        -1.3170   -3.4390   -2.6740 hc        1 JAO      0.039200
     49 H30        -1.7920   -2.5200   -4.8120 hc        1 JAO      0.040700
     50 H31        -3.8840   -4.2870   -3.9830 hc        1 JAO      0.041700
     51 H32        -3.4330   -3.1850   -6.4530 hc        1 JAO      0.066700
     52 H33         2.3130    0.8150    2.4570 hc        1 JAO      0.039700
     53 H34         1.4080    1.7730    0.4680 hc        1 JAO      0.039700
     54 H35        -3.2010   -2.0340   -4.3250 hc        1 JAO      0.040700
     55 H36        -2.4290   -4.7840   -4.4790 hc        1 JAO      0.041700
     56 H37        -3.2120   -6.0170   -6.5540 h1        1 JAO      0.021200
     57 H38        -2.7230   -5.5790   -8.6920 ho        1 JAO      0.398000
@<TRIPOS>BOND
     1    1   18 1   
     2    1   20 1   
     3    1   21 1   
     4    1   22 1   
     5    2   18 1   
     6    2   19 1   
     7    2   23 1   
     8    2   56 1   
     9    3    4 1   
    10    3   24 1   
    11    3   25 1   
    12    3   26 1   
    13    4    5 1   
    14    4   27 1   
    15    4   28 1   
    16    5    6 1   
    17    5   29 1   
    18    5   30 1   
    19    6    7 1   
    20    6   31 1   
    21    6   32 1   
    22    7    8 1   
    23    7   33 1   
    24    7   34 1   
    25    8    9 1   
    26    8   35 1   
    27    8   36 1   
    28    9   10 1   
    29    9   37 1   
    30    9   52 1   
    31   10   11 1   
    32   10   38 1   
    33   10   53 1   
    34   11   12 1   
    35   11   39 1   
    36   11   40 1   
    37   12   13 1   
    38   12   41 1   
    39   12   42 1   
    40   13   14 1   
    41   13   43 1   
    42   13   44 1   
    43   14   15 1   
    44   14   45 1   
    45   14   46 1   
    46   15   16 1   
    47   15   47 1   
    48   15   48 1   
    49   16   17 1   
    50   16   49 1   
    51   16   54 1   
    52   17   18 1   
    53   17   50 1   
    54   17   55 1   
    55   18   51 1   
    56   19   57 1   
@<TRIPOS>SUBSTRUCTURE
     1 JAO         1 TEMP              0 ****  ****    0 ROOT
