@<TRIPOS>MOLECULE
JAO
   57    56     1     0     0
SMALL
bcc


@<TRIPOS>ATOM
      1 CAB        -0.0090   -0.1330   -0.1300 c3        1 JAO     -0.089100
      2 CAE         2.1740   -1.1860   -0.7150 c3        1 JAO      0.132400
      3 CAF         2.8240    9.1790   16.3200 c3        1 JAO     -0.092100
      4 CAG         2.3300    9.1560   14.8960 c3        1 JAO     -0.080400
      5 CAH         2.7000    7.8640   14.2000 c3        1 JAO     -0.079400
      6 CAI         2.2030    7.8460   12.7710 c3        1 JAO     -0.079400
      7 CAJ         2.5740    6.5530   12.0760 c3        1 JAO     -0.079400
      8 CAK         2.0760    6.5350   10.6460 c3        1 JAO     -0.079400
      9 CAL         2.4470    5.2420    9.9510 c3        1 JAO     -0.079400
     10 CAM         1.9490    5.2240    8.5220 c3        1 JAO     -0.079400
     11 CAN         2.3200    3.9320    7.8270 c3        1 JAO     -0.079400
     12 CAO         1.8220    3.9140    6.3980 c3        1 JAO     -0.079400
     13 CAP         2.1930    2.6210    5.7030 c3        1 JAO     -0.079400
     14 CAQ         1.6950    2.6030    4.2740 c3        1 JAO     -0.079400
     15 CAR         2.0660    1.3110    3.5790 c3        1 JAO     -0.079400
     16 CAS         1.5690    1.2940    2.1490 c3        1 JAO     -0.078400
     17 CAT         1.9340   -0.0030    1.4590 c3        1 JAO     -0.077400
     18 CAU         1.4940   -0.0200    0.0040 c3        1 JAO     -0.067700
     19 O3          1.9680   -1.0050   -2.1080 oh        1 JAO     -0.601800
     20 H1         -0.3900   -1.0260    0.4200 hc        1 JAO      0.037700
     21 H2         -0.2830   -0.2350   -1.2090 hc        1 JAO      0.037700
     22 H3         -0.5070    0.7770    0.2810 hc        1 JAO      0.037700
     23 H4          1.7310   -2.1630   -0.3840 h1        1 JAO      0.020700
     24 H5          2.3800    8.3370   16.9040 hc        1 JAO      0.032700
     25 H6          3.9360    9.0790   16.3530 hc        1 JAO      0.032700
     26 H7          2.5400   10.1390   16.8140 hc        1 JAO      0.032700
     27 H8          1.2150    9.2820   14.8820 hc        1 JAO      0.038700
     28 H9          2.7670   10.0230   14.3320 hc        1 JAO      0.038700
     29 H10         2.2640    6.9960   14.7610 hc        1 JAO      0.039700
     30 H11         3.8150    7.7370   14.2120 hc        1 JAO      0.039700
     31 H12         2.6400    8.7130   12.2090 hc        1 JAO      0.039700
     32 H13         1.0880    7.9730   12.7590 hc        1 JAO      0.039700
     33 H14         2.1370    5.6860   12.6370 hc        1 JAO      0.039700
     34 H15         3.6880    6.4260   12.0870 hc        1 JAO      0.039700
     35 H16         0.9610    6.6620   10.6340 hc        1 JAO      0.039700
     36 H17         2.5130    7.4030   10.0850 hc        1 JAO      0.039700
     37 H18         3.5620    5.1160    9.9630 hc        1 JAO      0.039700
     38 H19         2.3860    6.0920    7.9610 hc        1 JAO      0.039700
     39 H20         1.8830    3.0640    8.3890 hc        1 JAO      0.039700
     40 H21         3.4350    3.8050    7.8390 hc        1 JAO      0.039700
     41 H22         2.2590    4.7820    5.8360 hc        1 JAO      0.039700
     42 H23         0.7080    4.0400    6.3860 hc        1 JAO      0.039700
     43 H24         1.7570    1.7540    6.2640 hc        1 JAO      0.039700
     44 H25         3.3080    2.4950    5.7140 hc        1 JAO      0.039700
     45 H26         2.1320    3.4710    3.7120 hc        1 JAO      0.039700
     46 H27         0.5810    2.7300    4.2620 hc        1 JAO      0.039700
     47 H28         3.1810    1.1830    3.5920 hc        1 JAO      0.039200
     48 H29         1.6280    0.4430    4.1390 hc        1 JAO      0.039200
     49 H30         0.4550    1.4290    2.1380 hc        1 JAO      0.042200
     50 H31         3.0470   -0.1430    1.5130 hc        1 JAO      0.039700
     51 H32         1.8290    0.9330   -0.4940 hc        1 JAO      0.064700
     52 H33         2.0100    4.3750   10.5130 hc        1 JAO      0.039700
     53 H34         0.8350    5.3510    8.5100 hc        1 JAO      0.039700
     54 H35         2.0120    2.1580    1.5870 hc        1 JAO      0.042200
     55 H36         1.4640   -0.8640    2.0030 hc        1 JAO      0.039700
     56 H37         3.2760   -1.1920   -0.4960 h1        1 JAO      0.020700
     57 H38         2.3720   -1.7630   -2.5450 ho        1 JAO      0.398000
@<TRIPOS>BOND
     1    1   18 1   
     2    1   20 1   
     3    1   21 1   
     4    1   22 1   
     5    2   18 1   
     6    2   19 1   
     7    2   23 1   
     8    2   56 1   
     9    3    4 1   
    10    3   24 1   
    11    3   25 1   
    12    3   26 1   
    13    4    5 1   
    14    4   27 1   
    15    4   28 1   
    16    5    6 1   
    17    5   29 1   
    18    5   30 1   
    19    6    7 1   
    20    6   31 1   
    21    6   32 1   
    22    7    8 1   
    23    7   33 1   
    24    7   34 1   
    25    8    9 1   
    26    8   35 1   
    27    8   36 1   
    28    9   10 1   
    29    9   37 1   
    30    9   52 1   
    31   10   11 1   
    32   10   38 1   
    33   10   53 1   
    34   11   12 1   
    35   11   39 1   
    36   11   40 1   
    37   12   13 1   
    38   12   41 1   
    39   12   42 1   
    40   13   14 1   
    41   13   43 1   
    42   13   44 1   
    43   14   15 1   
    44   14   45 1   
    45   14   46 1   
    46   15   16 1   
    47   15   47 1   
    48   15   48 1   
    49   16   17 1   
    50   16   49 1   
    51   16   54 1   
    52   17   18 1   
    53   17   50 1   
    54   17   55 1   
    55   18   51 1   
    56   19   57 1   
@<TRIPOS>SUBSTRUCTURE
     1 JAO         1 TEMP              0 ****  ****    0 ROOT
