@<TRIPOS>MOLECULE
JAR
   51    54     1     0     0
SMALL
bcc


@<TRIPOS>ATOM
      1 C1         -4.0860   -3.5750    0.5970 c3        1 JAR     -0.108100
      2 C2         -3.5190   -2.6370   -0.4670 c3        1 JAR      0.074000
      3 C3         -3.8670   -3.1780   -1.8540 c3        1 JAR     -0.108100
      4 N4         -3.9690   -1.2520   -0.2830 na        1 JAR      0.110400
      5 N5         -5.2620   -0.8700   -0.3360 nc        1 JAR     -0.506800
      6 C6         -5.3260    0.4670   -0.1310 cd        1 JAR      0.377200
      7 C7         -4.0030    0.9910    0.0680 cd        1 JAR     -0.374900
      8 C8         -3.4350    2.2890    0.3220 c         1 JAR      0.749100
      9 O9         -4.0290    3.3740    0.4420 o         1 JAR     -0.622500
     10 N10        -2.0190    2.2830    0.4430 n         1 JAR     -0.496400
     11 C11        -1.2560    1.1180    0.3280 cd        1 JAR      0.517900
     12 N12        -1.7510   -0.0980    0.0940 nc        1 JAR     -0.618100
     13 C13        -3.1350   -0.1530   -0.0360 cc        1 JAR      0.171100
     14 C14         0.2500    1.2820    0.4810 c3        1 JAR     -0.128000
     15 C16         1.0050    0.8680   -0.8070 c3        1 JAR      0.160800
     16 N17         2.2060    0.1160   -0.4370 n3        1 JAR     -0.702600
     17 C18         3.4330    0.8820   -0.6250 c3        1 JAR      0.201100
     18 C19         4.6810    0.0940   -0.3560 ca        1 JAR     -0.089300
     19 C20         4.9530   -1.0680   -1.0870 ca        1 JAR     -0.116500
     20 C21         6.1340   -1.7740   -0.8630 ca        1 JAR     -0.133000
     21 C22         7.0500   -1.3240    0.0880 ca        1 JAR     -0.127000
     22 C23         6.7810   -0.1670    0.8190 ca        1 JAR     -0.133000
     23 C24         5.5990    0.5390    0.6010 ca        1 JAR     -0.116500
     24 C25         2.0050   -0.3650    0.9320 c3        1 JAR      0.151800
     25 C26         0.8390    0.4050    1.6000 c3        1 JAR     -0.081700
     26 C28         1.3160    1.2330    2.7680 c3        1 JAR     -0.095100
     27 H1         -3.8250   -3.2230    1.6230 hc        1 JAR      0.051033
     28 H1A        -5.1960   -3.6510    0.5150 hc        1 JAR      0.051033
     29 H1B        -3.6430   -4.5900    0.4450 hc        1 JAR      0.051033
     30 H2         -2.3930   -2.6130   -0.3630 h1        1 JAR      0.084700
     31 H3         -4.9720   -3.2440   -1.9930 hc        1 JAR      0.051033
     32 H3A        -3.4430   -2.5280   -2.6560 hc        1 JAR      0.051033
     33 H3B        -3.4290   -4.2000   -1.9530 hc        1 JAR      0.051033
     34 H6         -6.2700    1.0160   -0.1270 h4        1 JAR      0.058100
     35 HN10       -1.5650    3.1510    0.6220 hn        1 JAR      0.334500
     36 H14         0.4900    2.3600    0.7000 hc        1 JAR      0.062700
     37 H16         0.3800    0.1790   -1.4370 h1        1 JAR      0.064700
     38 H16A        1.2460    1.7790   -1.4190 h1        1 JAR      0.064700
     39 H18         3.4560    1.2060   -1.7070 h1        1 JAR      0.038700
     40 H18A        3.4450    1.8190    0.0090 h1        1 JAR      0.038700
     41 H20         4.2280   -1.4230   -1.8340 ha        1 JAR      0.136500
     42 H21         6.3430   -2.6870   -1.4390 ha        1 JAR      0.131500
     43 H22         7.9820   -1.8810    0.2620 ha        1 JAR      0.131000
     44 H23         7.5020    0.1890    1.5700 ha        1 JAR      0.131500
     45 H24         5.3920    1.4510    1.1810 ha        1 JAR      0.136500
     46 H25         1.7360   -1.4540    0.8560 h1        1 JAR      0.061700
     47 H25A        2.9440   -0.2770    1.5430 h1        1 JAR      0.061700
     48 H26         0.0840   -0.3370    1.9700 hc        1 JAR      0.079700
     49 H28         2.1040    1.9580    2.4490 hc        1 JAR      0.039700
     50 H28A        0.4680    1.8050    3.2150 hc        1 JAR      0.039700
     51 H28B        1.7480    0.5690    3.5560 hc        1 JAR      0.039700
@<TRIPOS>BOND
     1    1    2 1   
     2    1   27 1   
     3    1   28 1   
     4    1   29 1   
     5    2    3 1   
     6    2    4 1   
     7    2   30 1   
     8    3   31 1   
     9    3   32 1   
    10    3   33 1   
    11    4    5 1   
    12    4   13 1   
    13    5    6 2   
    14    6    7 1   
    15    6   34 1   
    16    7    8 1   
    17    7   13 2   
    18    8    9 2   
    19    8   10 1   
    20   10   11 1   
    21   10   35 1   
    22   11   12 2   
    23   11   14 1   
    24   12   13 1   
    25   14   15 1   
    26   14   25 1   
    27   14   36 1   
    28   15   16 1   
    29   15   37 1   
    30   15   38 1   
    31   16   17 1   
    32   16   24 1   
    33   17   18 1   
    34   17   39 1   
    35   17   40 1   
    36   18   19 ar  
    37   18   23 ar  
    38   19   20 ar  
    39   19   41 1   
    40   20   21 ar  
    41   20   42 1   
    42   21   22 ar  
    43   21   43 1   
    44   22   23 ar  
    45   22   44 1   
    46   23   45 1   
    47   24   25 1   
    48   24   46 1   
    49   24   47 1   
    50   25   26 1   
    51   25   48 1   
    52   26   49 1   
    53   26   50 1   
    54   26   51 1   
@<TRIPOS>SUBSTRUCTURE
     1 JAR         1 TEMP              0 ****  ****    0 ROOT
