@<TRIPOS>MOLECULE
JAR
   51    54     1     0     0
SMALL
bcc


@<TRIPOS>ATOM
      1 C1          0.3930    0.2080    0.5170 c3        1 JAR     -0.108100
      2 C2          1.8610   -0.1750    0.3430 c3        1 JAR      0.074000
      3 C3          2.4830   -0.4290    1.7150 c3        1 JAR     -0.108100
      4 N4          2.0340   -1.3150   -0.5650 na        1 JAR      0.110400
      5 N5          1.5270   -2.5430   -0.3320 nc        1 JAR     -0.506800
      6 C6          1.8730   -3.3560   -1.3580 cd        1 JAR      0.377200
      7 C7          2.6520   -2.6210   -2.3170 cd        1 JAR     -0.374900
      8 C8          3.2890   -2.9190   -3.5730 c         1 JAR      0.749100
      9 O9          3.3110   -4.0020   -4.1820 o         1 JAR     -0.622500
     10 N10         3.9630   -1.8090   -4.1510 ns        1 JAR     -0.496400
     11 C11         3.9960   -0.5480   -3.5510 cd        1 JAR      0.517900
     12 N12         3.4160   -0.2400   -2.3900 nc        1 JAR     -0.618100
     13 C13         2.7420   -1.2900   -1.7750 cc        1 JAR      0.171100
     14 C14         4.7630    0.5340   -4.2980 c3        1 JAR     -0.128000
     15 C16         5.9610    1.0630   -3.4700 c3        1 JAR      0.160800
     16 N17         6.0370    2.5180   -3.6150 n3        1 JAR     -0.702600
     17 C18         7.1460    2.9450   -4.4620 c3        1 JAR      0.201100
     18 C19         7.3080    4.4350   -4.5360 ca        1 JAR     -0.089300
     19 C20         7.5330    5.1780   -3.3720 ca        1 JAR     -0.116500
     20 C21         7.7250    6.5570   -3.4490 ca        1 JAR     -0.133000
     21 C22         7.6960    7.2000   -4.6870 ca        1 JAR     -0.127000
     22 C23         7.4710    6.4620   -5.8480 ca        1 JAR     -0.133000
     23 C24         7.2740    5.0840   -5.7740 ca        1 JAR     -0.116500
     24 C25         4.7230    2.9720   -4.0780 c3        1 JAR      0.151800
     25 C26         3.9050    1.7720   -4.6120 c3        1 JAR     -0.081700
     26 C28         3.6290    1.9010   -6.0910 c3        1 JAR     -0.095100
     27 H1          0.3400    1.1250    1.1520 hc        1 JAR      0.051033
     28 H1A        -0.0850    0.4270   -0.4680 hc        1 JAR      0.051033
     29 H1B        -0.1790   -0.6100    1.0180 hc        1 JAR      0.051033
     30 H2          2.4040    0.6920   -0.1420 h1        1 JAR      0.084700
     31 H3          3.5660   -0.6850    1.6250 hc        1 JAR      0.051033
     32 H3A         1.9610   -1.2620    2.2440 hc        1 JAR      0.051033
     33 H3B         2.3850    0.5010    2.3250 hc        1 JAR      0.051033
     34 H6          1.5790   -4.4070   -1.4000 h4        1 JAR      0.058100
     35 HN10        4.4220   -1.9490   -5.0240 hn        1 JAR      0.334500
     36 H14         5.1600    0.1130   -5.2640 hc        1 JAR      0.062700
     37 H16         6.9070    0.5540   -3.7960 h1        1 JAR      0.064700
     38 H16A        5.8140    0.8600   -2.3740 h1        1 JAR      0.064700
     39 H18         7.0570    2.5320   -5.5110 h1        1 JAR      0.038700
     40 H18A        8.0890    2.5170   -4.0100 h1        1 JAR      0.038700
     41 H20         7.5520    4.6690   -2.3960 ha        1 JAR      0.136500
     42 H21         7.9010    7.1370   -2.5320 ha        1 JAR      0.131500
     43 H22         7.8500    8.2870   -4.7460 ha        1 JAR      0.131000
     44 H23         7.4470    6.9670   -6.8250 ha        1 JAR      0.131500
     45 H24         7.0950    4.5070   -6.6940 ha        1 JAR      0.136500
     46 H25         4.8140    3.7740   -4.8590 h1        1 JAR      0.061700
     47 H25A        4.1990    3.4100   -3.1840 h1        1 JAR      0.061700
     48 H26         2.9260    1.7310   -4.0660 hc        1 JAR      0.079700
     49 H28         4.5810    1.9880   -6.6690 hc        1 JAR      0.039700
     50 H28A        3.0150    2.8130   -6.2870 hc        1 JAR      0.039700
     51 H28B        3.0670    1.0110   -6.4640 hc        1 JAR      0.039700
@<TRIPOS>BOND
     1    1    2 1   
     2    1   27 1   
     3    1   28 1   
     4    1   29 1   
     5    2    3 1   
     6    2    4 1   
     7    2   30 1   
     8    3   31 1   
     9    3   32 1   
    10    3   33 1   
    11    4    5 1   
    12    4   13 1   
    13    5    6 2   
    14    6    7 1   
    15    6   34 1   
    16    7    8 1   
    17    7   13 2   
    18    8    9 2   
    19    8   10 1   
    20   10   11 1   
    21   10   35 1   
    22   11   12 2   
    23   11   14 1   
    24   12   13 1   
    25   14   15 1   
    26   14   25 1   
    27   14   36 1   
    28   15   16 1   
    29   15   37 1   
    30   15   38 1   
    31   16   17 1   
    32   16   24 1   
    33   17   18 1   
    34   17   39 1   
    35   17   40 1   
    36   18   19 ar  
    37   18   23 ar  
    38   19   20 ar  
    39   19   41 1   
    40   20   21 ar  
    41   20   42 1   
    42   21   22 ar  
    43   21   43 1   
    44   22   23 ar  
    45   22   44 1   
    46   23   45 1   
    47   24   25 1   
    48   24   46 1   
    49   24   47 1   
    50   25   26 1   
    51   25   48 1   
    52   26   49 1   
    53   26   50 1   
    54   26   51 1   
@<TRIPOS>SUBSTRUCTURE
     1 JAR         1 TEMP              0 ****  ****    0 ROOT
