@<TRIPOS>MOLECULE
JAR
   51    54     1     0     0
SMALL
bcc


@<TRIPOS>ATOM
      1 C1          0.4100    0.2040    0.5350 c3        1 JAR     -0.108100
      2 C2          1.8740   -0.1890    0.3470 c3        1 JAR      0.074000
      3 C3          2.5030   -0.4630    1.7130 c3        1 JAR     -0.108100
      4 N4          2.0320   -1.3210   -0.5740 na        1 JAR      0.110400
      5 N5          1.5160   -2.5470   -0.3490 nc        1 JAR     -0.506800
      6 C6          1.8490   -3.3530   -1.3860 cd        1 JAR      0.377200
      7 C7          2.6260   -2.6140   -2.3430 cd        1 JAR     -0.374900
      8 C8          3.2510   -2.9040   -3.6070 c         1 JAR      0.749100
      9 O9          3.2600   -3.9800   -4.2270 o         1 JAR     -0.622500
     10 N10         3.9290   -1.7940   -4.1790 n         1 JAR     -0.496400
     11 C11         3.9770   -0.5390   -3.5660 cd        1 JAR      0.517900
     12 N12         3.4090   -0.2390   -2.3970 nc        1 JAR     -0.618100
     13 C13         2.7310   -1.2900   -1.7880 cc        1 JAR      0.171100
     14 C14         4.7470    0.5440   -4.3080 c3        1 JAR     -0.128000
     15 C16         5.9550    1.0560   -3.4840 c3        1 JAR      0.160800
     16 N17         6.0410    2.5120   -3.6160 n3        1 JAR     -0.702600
     17 C18         7.1480    2.9380   -4.4680 c3        1 JAR      0.201100
     18 C19         7.3190    4.4270   -4.5300 ca        1 JAR     -0.089300
     19 C20         7.5610    5.1590   -3.3630 ca        1 JAR     -0.116500
     20 C21         7.7630    6.5360   -3.4300 ca        1 JAR     -0.133000
     21 C22         7.7270    7.1900   -4.6620 ca        1 JAR     -0.127000
     22 C23         7.4850    6.4640   -5.8270 ca        1 JAR     -0.133000
     23 C24         7.2790    5.0860   -5.7630 ca        1 JAR     -0.116500
     24 C25         4.7280    2.9810   -4.0640 c3        1 JAR      0.151800
     25 C26         3.8960    1.7920   -4.6040 c3        1 JAR     -0.081700
     26 C28         3.6090    1.9370   -6.0790 c3        1 JAR     -0.095100
     27 H1         -0.1650   -0.6140    1.0310 hc        1 JAR      0.051033
     28 H1A         0.3690    1.1150    1.1800 hc        1 JAR      0.051033
     29 H1B        -0.0720    0.4380   -0.4440 hc        1 JAR      0.051033
     30 H2          2.4210    0.6780   -0.1320 h1        1 JAR      0.084700
     31 H3          3.5830   -0.7260    1.6130 hc        1 JAR      0.051033
     32 H3A         1.9770   -1.2960    2.2370 hc        1 JAR      0.051033
     33 H3B         2.4170    0.4630    2.3320 hc        1 JAR      0.051033
     34 H6          1.5450   -4.4000   -1.4370 h4        1 JAR      0.058100
     35 HN10        4.3810   -1.9280   -5.0560 hn        1 JAR      0.334500
     36 H14         5.1340    0.1300   -5.2810 hc        1 JAR      0.062700
     37 H16         6.8940    0.5430   -3.8210 h1        1 JAR      0.064700
     38 H16A        5.8140    0.8450   -2.3890 h1        1 JAR      0.064700
     39 H18         8.0900    2.4990   -4.0260 h1        1 JAR      0.038700
     40 H18A        7.0470    2.5340   -5.5190 h1        1 JAR      0.038700
     41 H20         7.5860    4.6410   -2.3920 ha        1 JAR      0.136500
     42 H21         7.9520    7.1080   -2.5100 ha        1 JAR      0.131500
     43 H22         7.8880    8.2770   -4.7140 ha        1 JAR      0.131000
     44 H23         7.4550    6.9770   -6.8000 ha        1 JAR      0.131500
     45 H24         7.0870    4.5190   -6.6860 ha        1 JAR      0.136500
     46 H25         4.8190    3.7890   -4.8390 h1        1 JAR      0.061700
     47 H25A        4.2140    3.4140   -3.1630 h1        1 JAR      0.061700
     48 H26         2.9210    1.7540   -4.0500 hc        1 JAR      0.079700
     49 H28         4.5570    2.0220   -6.6640 hc        1 JAR      0.039700
     50 H28A        3.0370    1.0550   -6.4550 hc        1 JAR      0.039700
     51 H28B        3.0010    2.8560   -6.2610 hc        1 JAR      0.039700
@<TRIPOS>BOND
     1    1    2 1   
     2    1   27 1   
     3    1   28 1   
     4    1   29 1   
     5    2    3 1   
     6    2    4 1   
     7    2   30 1   
     8    3   31 1   
     9    3   32 1   
    10    3   33 1   
    11    4    5 1   
    12    4   13 1   
    13    5    6 2   
    14    6    7 1   
    15    6   34 1   
    16    7    8 1   
    17    7   13 2   
    18    8    9 2   
    19    8   10 1   
    20   10   11 1   
    21   10   35 1   
    22   11   12 2   
    23   11   14 1   
    24   12   13 1   
    25   14   15 1   
    26   14   25 1   
    27   14   36 1   
    28   15   16 1   
    29   15   37 1   
    30   15   38 1   
    31   16   17 1   
    32   16   24 1   
    33   17   18 1   
    34   17   39 1   
    35   17   40 1   
    36   18   19 ar  
    37   18   23 ar  
    38   19   20 ar  
    39   19   41 1   
    40   20   21 ar  
    41   20   42 1   
    42   21   22 ar  
    43   21   43 1   
    44   22   23 ar  
    45   22   44 1   
    46   23   45 1   
    47   24   25 1   
    48   24   46 1   
    49   24   47 1   
    50   25   26 1   
    51   25   48 1   
    52   26   49 1   
    53   26   50 1   
    54   26   51 1   
@<TRIPOS>SUBSTRUCTURE
     1 JAR         1 TEMP              0 ****  ****    0 ROOT
