@<TRIPOS>MOLECULE
JAR
   51    54     1     0     0
SMALL
bcc


@<TRIPOS>ATOM
      1 C1          0.4020    0.2110    0.5350 c3        1 JAR     -0.108100
      2 C2          1.8650   -0.1860    0.3450 c3        1 JAR      0.074000
      3 C3          2.4950   -0.4610    1.7100 c3        1 JAR     -0.108100
      4 N4          2.0190   -1.3170   -0.5760 na        1 JAR      0.110400
      5 N5          1.4990   -2.5420   -0.3510 nc        1 JAR     -0.506800
      6 C6          1.8300   -3.3490   -1.3880 cd        1 JAR      0.377200
      7 C7          2.6100   -2.6120   -2.3450 cd        1 JAR     -0.374900
      8 C8          3.2350   -2.9040   -3.6080 c         1 JAR      0.749100
      9 O9          3.2420   -3.9810   -4.2290 o         1 JAR     -0.622500
     10 N10         3.9180   -1.7960   -4.1800 n         1 JAR     -0.496400
     11 C11         3.9690   -0.5420   -3.5670 cd        1 JAR      0.517900
     12 N12         3.4010   -0.2400   -2.3990 nc        1 JAR     -0.618100
     13 C13         2.7190   -1.2880   -1.7900 cc        1 JAR      0.171100
     14 C14         4.7430    0.5390   -4.3080 c3        1 JAR     -0.128000
     15 C16         5.9520    1.0480   -3.4830 c3        1 JAR      0.160800
     16 N17         6.0420    2.5030   -3.6140 n3        1 JAR     -0.702600
     17 C18         7.1510    2.9260   -4.4640 c3        1 JAR      0.201100
     18 C19         7.3280    4.4150   -4.5250 ca        1 JAR     -0.089300
     19 C20         7.5690    5.1440   -3.3550 ca        1 JAR     -0.116500
     20 C21         7.7760    6.5220   -3.4210 ca        1 JAR     -0.133000
     21 C22         7.7450    7.1770   -4.6520 ca        1 JAR     -0.127000
     22 C23         7.5050    6.4530   -5.8190 ca        1 JAR     -0.133000
     23 C24         7.2930    5.0760   -5.7570 ca        1 JAR     -0.116500
     24 C25         4.7310    2.9760   -4.0640 c3        1 JAR      0.151800
     25 C26         3.8950    1.7890   -4.6040 c3        1 JAR     -0.081700
     26 C28         3.6110    1.9360   -6.0790 c3        1 JAR     -0.095100
     27 H1          0.3630    1.1220    1.1800 hc        1 JAR      0.051033
     28 H1A        -0.0810    0.4460   -0.4440 hc        1 JAR      0.051033
     29 H1B        -0.1740   -0.6060    1.0320 hc        1 JAR      0.051033
     30 H2          2.4130    0.6810   -0.1350 h1        1 JAR      0.084700
     31 H3          2.4110    0.4650    2.3300 hc        1 JAR      0.051033
     32 H3A         3.5740   -0.7270    1.6090 hc        1 JAR      0.051033
     33 H3B         1.9680   -1.2940    2.2340 hc        1 JAR      0.051033
     34 H6          1.5230   -4.3950   -1.4400 h4        1 JAR      0.058100
     35 HN10        4.3700   -1.9320   -5.0570 hn        1 JAR      0.334500
     36 H14         5.1290    0.1240   -5.2800 hc        1 JAR      0.062700
     37 H16         6.8900    0.5310   -3.8200 h1        1 JAR      0.064700
     38 H16A        5.8090    0.8360   -2.3880 h1        1 JAR      0.064700
     39 H18         8.0910    2.4840   -4.0220 h1        1 JAR      0.038700
     40 H18A        7.0500    2.5250   -5.5160 h1        1 JAR      0.038700
     41 H20         7.5880    4.6260   -2.3850 ha        1 JAR      0.136500
     42 H21         7.9630    7.0910   -2.4990 ha        1 JAR      0.131500
     43 H22         7.9110    8.2630   -4.7020 ha        1 JAR      0.131000
     44 H23         7.4800    6.9670   -6.7900 ha        1 JAR      0.131500
     45 H24         7.1020    4.5100   -6.6810 ha        1 JAR      0.136500
     46 H25         4.8250    3.7840   -4.8380 h1        1 JAR      0.061700
     47 H25A        4.2170    3.4110   -3.1630 h1        1 JAR      0.061700
     48 H26         2.9200    1.7540   -4.0520 hc        1 JAR      0.079700
     49 H28         4.5600    2.0180   -6.6640 hc        1 JAR      0.039700
     50 H28A        3.0370    1.0560   -6.4570 hc        1 JAR      0.039700
     51 H28B        3.0050    2.8570   -6.2620 hc        1 JAR      0.039700
@<TRIPOS>BOND
     1    1    2 1   
     2    1   27 1   
     3    1   28 1   
     4    1   29 1   
     5    2    3 1   
     6    2    4 1   
     7    2   30 1   
     8    3   31 1   
     9    3   32 1   
    10    3   33 1   
    11    4    5 1   
    12    4   13 1   
    13    5    6 2   
    14    6    7 1   
    15    6   34 1   
    16    7    8 1   
    17    7   13 2   
    18    8    9 2   
    19    8   10 1   
    20   10   11 1   
    21   10   35 1   
    22   11   12 2   
    23   11   14 1   
    24   12   13 1   
    25   14   15 1   
    26   14   25 1   
    27   14   36 1   
    28   15   16 1   
    29   15   37 1   
    30   15   38 1   
    31   16   17 1   
    32   16   24 1   
    33   17   18 1   
    34   17   39 1   
    35   17   40 1   
    36   18   19 ar  
    37   18   23 ar  
    38   19   20 ar  
    39   19   41 1   
    40   20   21 ar  
    41   20   42 1   
    42   21   22 ar  
    43   21   43 1   
    44   22   23 ar  
    45   22   44 1   
    46   23   45 1   
    47   24   25 1   
    48   24   46 1   
    49   24   47 1   
    50   25   26 1   
    51   25   48 1   
    52   26   49 1   
    53   26   50 1   
    54   26   51 1   
@<TRIPOS>SUBSTRUCTURE
     1 JAR         1 TEMP              0 ****  ****    0 ROOT
