@<TRIPOS>MOLECULE
JB1
   77    79     1     0     0
SMALL
bcc


@<TRIPOS>ATOM
      1 C31         8.1970   -0.9060    2.7470 c3        1 JB1     -0.093100
      2 C30         7.3450   -1.2160    1.5430 c3        1 JB1     -0.080400
      3 C29         6.3740   -0.0930    1.2460 c3        1 JB1     -0.081400
      4 C28         5.5170   -0.4170    0.0390 c3        1 JB1     -0.075400
      5 C22         4.5440    0.7070   -0.2940 c3        1 JB1     -0.062700
      6 C23         5.2570    1.8310   -1.0370 c3        1 JB1     -0.084400
      7 C24         4.5700    3.1670   -0.8060 c3        1 JB1      0.131400
      8 O03         5.2350    4.1200   -1.6220 oh        1 JB1     -0.601800
      9 C20         3.3420    0.2000   -1.1100 c3        1 JB1     -0.052700
     10 C21         3.7990   -0.7450   -2.2040 c3        1 JB1     -0.091100
     11 C17         2.2980   -0.4430   -0.2020 c3        1 JB1     -0.054700
     12 C16         1.7880    0.5360    0.8770 c3        1 JB1     -0.078400
     13 C15         0.2990    0.2600    1.0940 c3        1 JB1     -0.073400
     14 C14         0.0370   -1.0310    0.3330 c3        1 JB1     -0.038500
     15 C13         1.0050   -0.9510   -0.8820 c3        1 JB1     -0.039000
     16 C18         0.5050    0.0480   -1.9120 c3        1 JB1     -0.083100
     17 C12         1.0800   -2.3480   -1.4790 c3        1 JB1     -0.067400
     18 C11        -0.2980   -2.8290   -1.8990 c3        1 JB1     -0.073400
     19 C09        -1.3570   -2.7100   -0.8170 c3        1 JB1     -0.044200
     20 C08        -1.3370   -1.4000   -0.0980 c2        1 JB1     -0.076400
     21 C07        -2.4250   -0.6700    0.2030 ce        1 JB1     -0.152000
     22 C06        -3.7810   -0.9730   -0.1900 ce        1 JB1     -0.117000
     23 C05        -4.8880   -0.4940    0.4150 cf        1 JB1     -0.068200
     24 C04        -6.2430   -0.8500   -0.0980 c3        1 JB1     -0.075200
     25 C03        -7.1370    0.3840   -0.2190 c3        1 JB1      0.145100
     26 O02        -8.4660    0.0010   -0.5510 oh        1 JB1     -0.599800
     27 C02        -7.2190    1.1330    1.1040 c3        1 JB1     -0.069400
     28 C01        -5.8290    1.5380    1.5820 c3        1 JB1      0.183300
     29 O01        -5.3830    2.5820    0.7200 oh        1 JB1     -0.596800
     30 C10        -4.8760    0.3690    1.5950 cf        1 JB1     -0.121200
     31 C19        -4.0930    0.1400    2.6560 c2        1 JB1     -0.194000
     32 H31         8.7910    0.0250    2.5800 hc        1 JB1      0.032700
     33 H31A        7.5600   -0.7580    3.6520 hc        1 JB1      0.032700
     34 H31B        8.9050   -1.7460    2.9480 hc        1 JB1      0.032700
     35 H30         8.0030   -1.3870    0.6500 hc        1 JB1      0.038700
     36 H30A        6.7750   -2.1670    1.7190 hc        1 JB1      0.038700
     37 H29         5.7170    0.0790    2.1390 hc        1 JB1      0.040200
     38 H29A        6.9440    0.8560    1.0680 hc        1 JB1      0.040200
     39 H28         6.1750   -0.6210   -0.8460 hc        1 JB1      0.042700
     40 H28A        4.9410   -1.3570    0.2480 hc        1 JB1      0.042700
     41 H22         4.1600    1.1270    0.6790 hc        1 JB1      0.048700
     42 H23         6.3200    1.9110   -0.6880 hc        1 JB1      0.057700
     43 H23A        5.2890    1.6190   -2.1370 hc        1 JB1      0.057700
     44 H24         3.4840    3.1150   -1.0880 h1        1 JB1      0.019200
     45 H24A        4.6460    3.4700    0.2730 h1        1 JB1      0.019200
     46 HO03        4.7970    4.9650   -1.4700 ho        1 JB1      0.398000
     47 H20         2.8670    1.0980   -1.6010 hc        1 JB1      0.050700
     48 H21         3.9870   -1.7680   -1.7970 hc        1 JB1      0.035700
     49 H21A        3.0250   -0.8200   -3.0060 hc        1 JB1      0.035700
     50 H21B        4.7430   -0.3740   -2.6740 hc        1 JB1      0.035700
     51 H17         2.7780   -1.3230    0.3100 hc        1 JB1      0.048700
     52 H16         2.3570    0.3880    1.8280 hc        1 JB1      0.041700
     53 H16A        1.9380    1.5950    0.5480 hc        1 JB1      0.041700
     54 H15         0.0560    0.1500    2.1780 hc        1 JB1      0.043700
     55 H15A       -0.3160    1.1000    0.6860 hc        1 JB1      0.043700
     56 H14         0.3960   -1.8800    0.9920 hc        1 JB1      0.055700
     57 H18         1.1100   -0.0180   -2.8480 hc        1 JB1      0.038033
     58 H18A       -0.5640   -0.1530   -2.1660 hc        1 JB1      0.038033
     59 H18B        0.5780    1.0880   -1.5110 hc        1 JB1      0.038033
     60 H12         1.7570   -2.3560   -2.3710 hc        1 JB1      0.043200
     61 H12A        1.5130   -3.0540   -0.7220 hc        1 JB1      0.043200
     62 H11        -0.6280   -2.2450   -2.8000 hc        1 JB1      0.041700
     63 H11A       -0.2270   -3.9050   -2.2120 hc        1 JB1      0.041700
     64 H09        -2.3610   -2.9010   -1.2790 hc        1 JB1      0.048200
     65 H09A       -1.1900   -3.5180   -0.0510 hc        1 JB1      0.048200
     66 H07        -2.3050    0.2550    0.7980 ha        1 JB1      0.127000
     67 H06        -3.9000   -1.6240   -1.0750 ha        1 JB1      0.125000
     68 H04        -6.1720   -1.3530   -1.0990 hc        1 JB1      0.054200
     69 H04A       -6.7240   -1.5800    0.6090 hc        1 JB1      0.054200
     70 H03        -6.7300    1.0720   -1.0140 h1        1 JB1      0.053700
     71 HO02       -8.4220   -0.4320   -1.4110 ho        1 JB1      0.399000
     72 H02        -7.8490    2.0500    0.9680 hc        1 JB1      0.067200
     73 H02A       -7.7020    0.4850    1.8780 hc        1 JB1      0.067200
     74 H01        -5.9120    1.9660    2.6250 h1        1 JB1      0.038700
     75 HO01       -4.4310    2.6690    0.8490 ho        1 JB1      0.403000
     76 H19        -3.4050   -0.7150    2.7030 ha        1 JB1      0.121000
     77 H19A       -4.1020    0.7870    3.5440 ha        1 JB1      0.121000
@<TRIPOS>BOND
     1    1    2 1   
     2    1   32 1   
     3    1   33 1   
     4    1   34 1   
     5    2    3 1   
     6    2   35 1   
     7    2   36 1   
     8    3    4 1   
     9    3   37 1   
    10    3   38 1   
    11    4    5 1   
    12    4   39 1   
    13    4   40 1   
    14    5    6 1   
    15    5    9 1   
    16    5   41 1   
    17    6    7 1   
    18    6   42 1   
    19    6   43 1   
    20    7    8 1   
    21    7   44 1   
    22    7   45 1   
    23    8   46 1   
    24    9   10 1   
    25    9   11 1   
    26    9   47 1   
    27   10   48 1   
    28   10   49 1   
    29   10   50 1   
    30   11   12 1   
    31   11   15 1   
    32   11   51 1   
    33   12   13 1   
    34   12   52 1   
    35   12   53 1   
    36   13   14 1   
    37   13   54 1   
    38   13   55 1   
    39   14   15 1   
    40   14   20 1   
    41   14   56 1   
    42   15   16 1   
    43   15   17 1   
    44   16   57 1   
    45   16   58 1   
    46   16   59 1   
    47   17   18 1   
    48   17   60 1   
    49   17   61 1   
    50   18   19 1   
    51   18   62 1   
    52   18   63 1   
    53   19   20 1   
    54   19   64 1   
    55   19   65 1   
    56   20   21 2   
    57   21   22 1   
    58   21   66 1   
    59   22   23 2   
    60   22   67 1   
    61   23   24 1   
    62   23   30 1   
    63   24   25 1   
    64   24   68 1   
    65   24   69 1   
    66   25   26 1   
    67   25   27 1   
    68   25   70 1   
    69   26   71 1   
    70   27   28 1   
    71   27   72 1   
    72   27   73 1   
    73   28   29 1   
    74   28   30 1   
    75   28   74 1   
    76   29   75 1   
    77   30   31 2   
    78   31   76 1   
    79   31   77 1   
@<TRIPOS>SUBSTRUCTURE
     1 JB1         1 TEMP              0 ****  ****    0 ROOT
