@<TRIPOS>MOLECULE
JB1
   77    79     1     0     0
SMALL
bcc


@<TRIPOS>ATOM
      1 C31         0.0840    0.7330   -0.3130 c3        1 JB1     -0.093100
      2 C30         1.5090    0.2470   -0.2540 c3        1 JB1     -0.080400
      3 C29         2.0150    0.1800    1.1720 c3        1 JB1     -0.081400
      4 C28         3.4500   -0.3020    1.2200 c3        1 JB1     -0.075400
      5 C22         3.9770   -0.3990    2.6460 c3        1 JB1     -0.062700
      6 C23         3.4730   -1.6700    3.3190 c3        1 JB1     -0.083400
      7 C24         3.3970   -1.5020    4.8280 c3        1 JB1      0.130400
      8 O03         3.0210   -2.7610    5.3660 oh        1 JB1     -0.602800
      9 C20         5.5140   -0.3370    2.6920 c3        1 JB1     -0.052700
     10 C21         6.1170   -1.2090    1.6090 c3        1 JB1     -0.090100
     11 C17         6.0060    1.1040    2.6040 c3        1 JB1     -0.054700
     12 C16         5.4390    1.9800    3.7410 c3        1 JB1     -0.078400
     13 C15         6.5270    2.9720    4.1550 c3        1 JB1     -0.074400
     14 C14         7.6010    2.8260    3.0880 c3        1 JB1     -0.035500
     15 C13         7.5350    1.3230    2.6960 c3        1 JB1     -0.040000
     16 C18         8.1430    0.4490    3.7790 c3        1 JB1     -0.083100
     17 C12         8.3010    1.1740    1.3900 c3        1 JB1     -0.067400
     18 C11         9.7370    1.6400    1.5520 c3        1 JB1     -0.073400
     19 C09         9.8780    3.0260    2.1600 c3        1 JB1     -0.044200
     20 C08         9.0020    3.2510    3.3490 c2        1 JB1     -0.082400
     21 C07         9.3930    3.8370    4.4940 ce        1 JB1     -0.149000
     22 C06        10.7380    4.2590    4.8070 ce        1 JB1     -0.109000
     23 C05        11.0610    5.2050    5.7150 cf        1 JB1     -0.073200
     24 C04        12.4930    5.5300    5.9810 c3        1 JB1     -0.036200
     25 C03        12.7680    5.5820    7.4820 c3        1 JB1      0.146100
     26 O02        14.1270    5.9790    7.6270 oh        1 JB1     -0.599800
     27 C02        11.8360    6.5750    8.1670 c3        1 JB1     -0.146400
     28 C01        10.3760    6.1990    7.9370 c3        1 JB1      0.186300
     29 O01        10.0300    4.9980    8.6230 oh        1 JB1     -0.589800
     30 C10        10.0810    5.9800    6.4740 cf        1 JB1     -0.069200
     31 C19         8.9790    6.5040    5.9240 c2        1 JB1     -0.193000
     32 H31        -0.2690    0.7750   -1.3710 hc        1 JB1      0.032700
     33 H31A       -0.5900    0.0490    0.2570 hc        1 JB1      0.032700
     34 H31B       -0.0030    1.7560    0.1280 hc        1 JB1      0.032700
     35 H30         1.5790   -0.7700   -0.7240 hc        1 JB1      0.038700
     36 H30A        2.1660    0.9330   -0.8520 hc        1 JB1      0.038700
     37 H29         1.9420    1.1960    1.6420 hc        1 JB1      0.039700
     38 H29A        1.3590   -0.5070    1.7680 hc        1 JB1      0.039700
     39 H28         4.0900    0.4110    0.6350 hc        1 JB1      0.043200
     40 H28A        3.5280   -1.3030    0.7200 hc        1 JB1      0.043200
     41 H22         3.5690    0.4800    3.2210 hc        1 JB1      0.049700
     42 H23         4.1420   -2.5360    3.0790 hc        1 JB1      0.057200
     43 H23A        2.4510   -1.9300    2.9370 hc        1 JB1      0.057200
     44 H24         2.6310   -0.7270    5.1020 h1        1 JB1      0.019700
     45 H24A        4.3910   -1.1880    5.2470 h1        1 JB1      0.019700
     46 HO03        2.9810   -2.6490    6.3220 ho        1 JB1      0.398000
     47 H20         5.8360   -0.7520    3.6920 hc        1 JB1      0.050700
     48 H21         7.1760   -1.4650    1.8560 hc        1 JB1      0.035367
     49 H21A        6.1000   -0.6890    0.6210 hc        1 JB1      0.035367
     50 H21B        5.5470   -2.1660    1.5130 hc        1 JB1      0.035367
     51 H17         5.6630    1.5270    1.6190 hc        1 JB1      0.047700
     52 H16         5.1450    1.3460    4.6150 hc        1 JB1      0.040200
     53 H16A        4.5270    2.5220    3.3890 hc        1 JB1      0.040200
     54 H15         6.9270    2.7130    5.1670 hc        1 JB1      0.046200
     55 H15A        6.1350    4.0170    4.1980 hc        1 JB1      0.046200
     56 H14         7.2550    3.4230    2.1900 hc        1 JB1      0.053700
     57 H18         9.1570    0.8250    4.0620 hc        1 JB1      0.038033
     58 H18A        8.2420   -0.6050    3.4240 hc        1 JB1      0.038033
     59 H18B        7.5010    0.4600    4.6940 hc        1 JB1      0.038033
     60 H12         8.3010    0.1040    1.0560 hc        1 JB1      0.042200
     61 H12A        7.7950    1.7750    0.5900 hc        1 JB1      0.042200
     62 H11        10.2340    1.6410    0.5450 hc        1 JB1      0.040700
     63 H11A       10.2900    0.9020    2.1920 hc        1 JB1      0.040700
     64 H09         9.6020    3.7950    1.3860 hc        1 JB1      0.047200
     65 H09A       10.9560    3.1930    2.4180 hc        1 JB1      0.047200
     66 H07         8.6490    4.0170    5.2940 ha        1 JB1      0.137000
     67 H06        11.5530    3.7320    4.2780 ha        1 JB1      0.124000
     68 H04        13.1750    4.7720    5.5150 hc        1 JB1      0.062200
     69 H04A       12.7410    6.5270    5.5280 hc        1 JB1      0.062200
     70 H03        12.6220    4.5610    7.9340 h1        1 JB1      0.048700
     71 HO02       14.3100    5.9970    8.5730 ho        1 JB1      0.398000
     72 H02        12.0510    6.5980    9.2660 hc        1 JB1      0.052700
     73 H02A       12.0220    7.6020    7.7600 hc        1 JB1      0.052700
     74 H01         9.7240    7.0330    8.3350 h1        1 JB1      0.034700
     75 HO01       10.2890    5.1240    9.5440 ho        1 JB1      0.396000
     76 H19         8.7470    6.3880    4.8570 ha        1 JB1      0.120000
     77 H19A        8.2490    7.0820    6.5060 ha        1 JB1      0.120000
@<TRIPOS>BOND
     1    1    2 1   
     2    1   32 1   
     3    1   33 1   
     4    1   34 1   
     5    2    3 1   
     6    2   35 1   
     7    2   36 1   
     8    3    4 1   
     9    3   37 1   
    10    3   38 1   
    11    4    5 1   
    12    4   39 1   
    13    4   40 1   
    14    5    6 1   
    15    5    9 1   
    16    5   41 1   
    17    6    7 1   
    18    6   42 1   
    19    6   43 1   
    20    7    8 1   
    21    7   44 1   
    22    7   45 1   
    23    8   46 1   
    24    9   10 1   
    25    9   11 1   
    26    9   47 1   
    27   10   48 1   
    28   10   49 1   
    29   10   50 1   
    30   11   12 1   
    31   11   15 1   
    32   11   51 1   
    33   12   13 1   
    34   12   52 1   
    35   12   53 1   
    36   13   14 1   
    37   13   54 1   
    38   13   55 1   
    39   14   15 1   
    40   14   20 1   
    41   14   56 1   
    42   15   16 1   
    43   15   17 1   
    44   16   57 1   
    45   16   58 1   
    46   16   59 1   
    47   17   18 1   
    48   17   60 1   
    49   17   61 1   
    50   18   19 1   
    51   18   62 1   
    52   18   63 1   
    53   19   20 1   
    54   19   64 1   
    55   19   65 1   
    56   20   21 2   
    57   21   22 1   
    58   21   66 1   
    59   22   23 2   
    60   22   67 1   
    61   23   24 1   
    62   23   30 1   
    63   24   25 1   
    64   24   68 1   
    65   24   69 1   
    66   25   26 1   
    67   25   27 1   
    68   25   70 1   
    69   26   71 1   
    70   27   28 1   
    71   27   72 1   
    72   27   73 1   
    73   28   29 1   
    74   28   30 1   
    75   28   74 1   
    76   29   75 1   
    77   30   31 2   
    78   31   76 1   
    79   31   77 1   
@<TRIPOS>SUBSTRUCTURE
     1 JB1         1 TEMP              0 ****  ****    0 ROOT
