@<TRIPOS>MOLECULE
JB1
   77    79     1     0     0
SMALL
bcc


@<TRIPOS>ATOM
      1 C31         0.0790    0.7360   -0.3010 c3        1 JB1     -0.093100
      2 C30         1.5040    0.2500   -0.2450 c3        1 JB1     -0.080400
      3 C29         2.0120    0.1810    1.1790 c3        1 JB1     -0.081400
      4 C28         3.4480   -0.3010    1.2240 c3        1 JB1     -0.075400
      5 C22         3.9780   -0.3990    2.6490 c3        1 JB1     -0.062700
      6 C23         3.4750   -1.6700    3.3220 c3        1 JB1     -0.083400
      7 C24         3.4020   -1.5030    4.8320 c3        1 JB1      0.130400
      8 O03         3.0260   -2.7620    5.3700 oh        1 JB1     -0.602800
      9 C20         5.5150   -0.3370    2.6930 c3        1 JB1     -0.052700
     10 C21         6.1160   -1.2080    1.6080 c3        1 JB1     -0.090100
     11 C17         6.0060    1.1050    2.6050 c3        1 JB1     -0.054700
     12 C16         5.4410    1.9800    3.7440 c3        1 JB1     -0.078400
     13 C15         6.5300    2.9720    4.1560 c3        1 JB1     -0.074400
     14 C14         7.6030    2.8260    3.0870 c3        1 JB1     -0.035500
     15 C13         7.5350    1.3230    2.6930 c3        1 JB1     -0.040000
     16 C18         8.1460    0.4490    3.7750 c3        1 JB1     -0.083100
     17 C12         8.2990    1.1750    1.3860 c3        1 JB1     -0.067400
     18 C11         9.7360    1.6410    1.5460 c3        1 JB1     -0.073400
     19 C09         9.8770    3.0260    2.1550 c3        1 JB1     -0.044200
     20 C08         9.0030    3.2510    3.3460 c2        1 JB1     -0.082400
     21 C07         9.3970    3.8360    4.4890 ce        1 JB1     -0.149000
     22 C06        10.7430    4.2580    4.8010 ce        1 JB1     -0.109000
     23 C05        11.0670    5.2030    5.7080 cf        1 JB1     -0.073200
     24 C04        12.5000    5.5280    5.9730 c3        1 JB1     -0.036200
     25 C03        12.7780    5.5790    7.4730 c3        1 JB1      0.146100
     26 O02        14.1370    5.9750    7.6150 oh        1 JB1     -0.599800
     27 C02        11.8470    6.5710    8.1600 c3        1 JB1     -0.146400
     28 C01        10.3860    6.1960    7.9330 c3        1 JB1      0.186300
     29 O01        10.0410    4.9940    8.6190 oh        1 JB1     -0.589800
     30 C10        10.0890    5.9780    6.4710 cf        1 JB1     -0.069200
     31 C19         8.9860    6.5020    5.9230 c2        1 JB1     -0.193000
     32 H31        -0.0070    1.7580    0.1420 hc        1 JB1      0.032700
     33 H31A       -0.5940    0.0510    0.2700 hc        1 JB1      0.032700
     34 H31B       -0.2770    0.7780   -1.3590 hc        1 JB1      0.032700
     35 H30         2.1590    0.9360   -0.8440 hc        1 JB1      0.038700
     36 H30A        1.5740   -0.7660   -0.7160 hc        1 JB1      0.038700
     37 H29         1.3570   -0.5070    1.7760 hc        1 JB1      0.039700
     38 H29A        1.9400    1.1970    1.6510 hc        1 JB1      0.039700
     39 H28         4.0860    0.4130    0.6390 hc        1 JB1      0.043200
     40 H28A        3.5250   -1.3020    0.7240 hc        1 JB1      0.043200
     41 H22         3.5710    0.4800    3.2260 hc        1 JB1      0.049700
     42 H23         2.4520   -1.9300    2.9430 hc        1 JB1      0.057200
     43 H23A        4.1440   -2.5360    3.0800 hc        1 JB1      0.057200
     44 H24         4.3970   -1.1900    5.2500 h1        1 JB1      0.019700
     45 H24A        2.6370   -0.7280    5.1070 h1        1 JB1      0.019700
     46 HO03        2.9890   -2.6520    6.3260 ho        1 JB1      0.398000
     47 H20         5.8380   -0.7520    3.6910 hc        1 JB1      0.050700
     48 H21         5.5460   -2.1640    1.5120 hc        1 JB1      0.035367
     49 H21A        7.1750   -1.4650    1.8530 hc        1 JB1      0.035367
     50 H21B        6.0970   -0.6870    0.6200 hc        1 JB1      0.035367
     51 H17         5.6610    1.5280    1.6210 hc        1 JB1      0.047700
     52 H16         5.1500    1.3450    4.6180 hc        1 JB1      0.040200
     53 H16A        4.5290    2.5220    3.3930 hc        1 JB1      0.040200
     54 H15         6.1380    4.0160    4.2000 hc        1 JB1      0.046200
     55 H15A        6.9320    2.7120    5.1670 hc        1 JB1      0.046200
     56 H14         7.2550    3.4240    2.1890 hc        1 JB1      0.053700
     57 H18         9.1600    0.8250    4.0560 hc        1 JB1      0.038033
     58 H18A        7.5060    0.4590    4.6910 hc        1 JB1      0.038033
     59 H18B        8.2450   -0.6050    3.4200 hc        1 JB1      0.038033
     60 H12         8.2980    0.1060    1.0510 hc        1 JB1      0.042200
     61 H12A        7.7910    1.7770    0.5880 hc        1 JB1      0.042200
     62 H11        10.2890    0.9030    2.1850 hc        1 JB1      0.040700
     63 H11A       10.2300    1.6430    0.5380 hc        1 JB1      0.040700
     64 H09        10.9570    3.1940    2.4110 hc        1 JB1      0.047200
     65 H09A        9.6010    3.7960    1.3820 hc        1 JB1      0.047200
     66 H07         8.6550    4.0160    5.2910 ha        1 JB1      0.137000
     67 H06        11.5560    3.7310    4.2700 ha        1 JB1      0.124000
     68 H04        12.7470    6.5260    5.5200 hc        1 JB1      0.062200
     69 H04A       13.1810    4.7700    5.5050 hc        1 JB1      0.062200
     70 H03        12.6320    4.5570    7.9250 h1        1 JB1      0.048700
     71 HO02       14.3220    5.9930    8.5610 ho        1 JB1      0.398000
     72 H02        12.0330    7.5980    7.7530 hc        1 JB1      0.052700
     73 H02A       12.0640    6.5930    9.2590 hc        1 JB1      0.052700
     74 H01         9.7350    7.0290    8.3330 h1        1 JB1      0.034700
     75 HO01       10.3020    5.1190    9.5390 ho        1 JB1      0.396000
     76 H19         8.2570    7.0800    6.5070 ha        1 JB1      0.120000
     77 H19A        8.7520    6.3870    4.8560 ha        1 JB1      0.120000
@<TRIPOS>BOND
     1    1    2 1   
     2    1   32 1   
     3    1   33 1   
     4    1   34 1   
     5    2    3 1   
     6    2   35 1   
     7    2   36 1   
     8    3    4 1   
     9    3   37 1   
    10    3   38 1   
    11    4    5 1   
    12    4   39 1   
    13    4   40 1   
    14    5    6 1   
    15    5    9 1   
    16    5   41 1   
    17    6    7 1   
    18    6   42 1   
    19    6   43 1   
    20    7    8 1   
    21    7   44 1   
    22    7   45 1   
    23    8   46 1   
    24    9   10 1   
    25    9   11 1   
    26    9   47 1   
    27   10   48 1   
    28   10   49 1   
    29   10   50 1   
    30   11   12 1   
    31   11   15 1   
    32   11   51 1   
    33   12   13 1   
    34   12   52 1   
    35   12   53 1   
    36   13   14 1   
    37   13   54 1   
    38   13   55 1   
    39   14   15 1   
    40   14   20 1   
    41   14   56 1   
    42   15   16 1   
    43   15   17 1   
    44   16   57 1   
    45   16   58 1   
    46   16   59 1   
    47   17   18 1   
    48   17   60 1   
    49   17   61 1   
    50   18   19 1   
    51   18   62 1   
    52   18   63 1   
    53   19   20 1   
    54   19   64 1   
    55   19   65 1   
    56   20   21 2   
    57   21   22 1   
    58   21   66 1   
    59   22   23 2   
    60   22   67 1   
    61   23   24 1   
    62   23   30 1   
    63   24   25 1   
    64   24   68 1   
    65   24   69 1   
    66   25   26 1   
    67   25   27 1   
    68   25   70 1   
    69   26   71 1   
    70   27   28 1   
    71   27   72 1   
    72   27   73 1   
    73   28   29 1   
    74   28   30 1   
    75   28   74 1   
    76   29   75 1   
    77   30   31 2   
    78   31   76 1   
    79   31   77 1   
@<TRIPOS>SUBSTRUCTURE
     1 JB1         1 TEMP              0 ****  ****    0 ROOT
