@<TRIPOS>MOLECULE
JB7
   61    61     1     0     0
SMALL
bcc


@<TRIPOS>ATOM
      1 C1          0.6020   -0.7110    4.2430 c         1 JB7      0.890600
      2 C2          1.0440   -0.3700    2.7940 c3        1 JB7     -0.029300
      3 C3          0.9210   -1.6410    1.9470 c3        1 JB7     -0.073400
      4 C4          1.3120   -1.4340    0.4990 c3        1 JB7     -0.178400
      5 C5          2.8000   -1.3830    0.3210 c         1 JB7      0.637100
      6 C15        -1.5040   -2.1960    9.3080 ca        1 JB7     -0.101500
      7 C17        -3.4740   -3.3670    8.5380 ca        1 JB7     -0.003900
      8 C18        -3.3040   -2.8200    7.2640 ca        1 JB7     -0.112500
      9 N3         -0.3670    0.6990    7.9640 n4        1 JB7     -0.575200
     10 C13        -0.1640   -0.7780    7.7180 c3        1 JB7      0.134100
     11 C14        -1.3440   -1.6290    8.0370 ca        1 JB7     -0.153300
     12 C19        -2.2370   -1.9570    7.0100 ca        1 JB7     -0.101500
     13 C16        -2.5670   -3.0590    9.5590 ca        1 JB7     -0.112500
     14 C12         0.1780    1.5230    6.8320 c3        1 JB7      0.098800
     15 C11         1.6970    1.4910    6.7480 c3        1 JB7     -0.112400
     16 C9          3.6090    2.0820    5.2690 c3        1 JB7     -0.090400
     17 C7          4.0910    2.8280    4.0370 c3        1 JB7     -0.068500
     18 C8          5.6470    3.2030    4.2640 c         1 JB7      0.937600
     19 O7          6.4560    2.5970    3.5230 o         1 JB7     -0.762300
     20 O6          5.8350    4.0460    5.1580 o         1 JB7     -0.762300
     21 N2          3.9750    2.0710    2.7490 n4        1 JB7     -0.622800
     22 O5          1.8020    2.2550    1.9410 o         1 JB7     -0.555100
     23 N1          2.4050    0.1580    2.7800 n         1 JB7     -0.490900
     24 O2          1.4720   -1.0930    5.0810 o         1 JB7     -0.838300
     25 O1         -0.6120   -0.5500    4.5590 o         1 JB7     -0.838300
     26 O3          3.4840   -0.4040    0.0170 o         1 JB7     -0.512000
     27 O4          3.5350   -2.5210    0.5020 oh        1 JB7     -0.581100
     28 H1          0.3390    0.4120    2.3830 h1        1 JB7      0.099700
     29 H2         -0.1570   -1.9530    2.0000 hc        1 JB7      0.068700
     30 H3          1.5360   -2.4620    2.4030 hc        1 JB7      0.068700
     31 H4          0.9060   -2.2740   -0.1260 hc        1 JB7      0.081200
     32 H5          0.8730   -0.4740    0.1150 hc        1 JB7      0.081200
     33 H6         -0.7780   -1.9820   10.1070 ha        1 JB7      0.169000
     34 H7         -4.0010   -3.0690    6.4470 ha        1 JB7      0.158500
     35 H8         -3.3020    1.3930    9.7120 hc        1 JB7      0.098367
     36 H9         -1.6140    1.8430   10.2260 hc        1 JB7      0.098367
     37 H10        -2.1020    0.0840   10.1180 hc        1 JB7      0.098367
     38 H11         0.7260   -1.0890    8.3360 hx        1 JB7      0.150200
     39 H12         0.1090   -0.9280    6.6110 hx        1 JB7      0.150200
     40 H13        -2.0770   -1.5410    5.9920 ha        1 JB7      0.169000
     41 H14        -2.6810   -3.5050   10.5600 ha        1 JB7      0.158500
     42 H15        -0.2720    1.1130    5.8700 hx        1 JB7      0.121200
     43 H16        -0.1810    2.5790    6.9840 hx        1 JB7      0.121200
     44 H17         2.0440    0.4280    6.5960 hc        1 JB7      0.076700
     45 H18         2.1600    1.8870    7.6890 hc        1 JB7      0.076700
     46 H19         1.9810    3.4180    5.7840 hc        1 JB7      0.051200
     47 H20         1.5200    2.0710    4.6680 hc        1 JB7      0.051200
     48 H21         4.2250    2.4640    6.1330 hc        1 JB7      0.080700
     49 H22         3.8070    0.9810    5.1880 hc        1 JB7      0.080700
     50 H23         3.5200    3.7890    3.9140 hx        1 JB7      0.094700
     51 H25         4.7310    1.3650    2.7460 hn        1 JB7      0.472800
     52 H26         3.0200   -0.3040    3.4260 hn        1 JB7      0.342500
     53 C6          2.6110    1.4860    2.4900 c         1 JB7      0.632100
     54 C20        -1.8110    1.0650    8.2180 c         1 JB7      0.548100
     55 H31         0.1580    0.9440    8.8100 hn        1 JB7      0.422800
     56 H221        4.1810    2.7340    1.9910 hn        1 JB7      0.472800
     57 H121        2.9550   -3.2480    0.7660 ho        1 JB7      0.426000
     58 C10         2.1440    2.3300    5.5660 c3        1 JB7     -0.079400
     59 BR         -4.9060   -4.5210    8.8830 br        1 JB7     -0.065100
     60 O8         -2.5210    1.3460    7.2630 o         1 JB7     -0.407100
     61 C21        -2.2230    1.0970    9.6560 c3        1 JB7     -0.191100
@<TRIPOS>BOND
     1    1    2 1   
     2    1   24 1   
     3    1   25 1   
     4    2    3 1   
     5    2   23 1   
     6    2   28 1   
     7    3    4 1   
     8    3   29 1   
     9    3   30 1   
    10    4    5 1   
    11    4   31 1   
    12    4   32 1   
    13    5   26 2   
    14    5   27 1   
    15    6   11 ar  
    16    6   13 ar  
    17    6   33 1   
    18    7    8 ar  
    19    7   13 ar  
    20    7   59 1   
    21    8   12 ar  
    22    8   34 1   
    23    9   10 1   
    24    9   14 1   
    25    9   54 1   
    26    9   55 1   
    27   10   11 1   
    28   10   38 1   
    29   10   39 1   
    30   11   12 ar  
    31   12   40 1   
    32   13   41 1   
    33   14   15 1   
    34   14   42 1   
    35   14   43 1   
    36   15   44 1   
    37   15   45 1   
    38   15   58 1   
    39   16   17 1   
    40   16   48 1   
    41   16   49 1   
    42   16   58 1   
    43   17   18 1   
    44   17   21 1   
    45   17   50 1   
    46   18   19 1   
    47   18   20 1   
    48   21   51 1   
    49   21   53 1   
    50   21   56 1   
    51   22   53 2   
    52   23   52 1   
    53   23   53 1   
    54   27   57 1   
    55   35   61 1   
    56   36   61 1   
    57   37   61 1   
    58   46   58 1   
    59   47   58 1   
    60   54   60 2   
    61   54   61 1   
@<TRIPOS>SUBSTRUCTURE
     1 JB7         1 TEMP              0 ****  ****    0 ROOT
