@<TRIPOS>MOLECULE
JBI
   54    58     1     0     0
SMALL
bcc


@<TRIPOS>ATOM
      1 C1          0.1640    0.5480    0.0390 ca        1 JBI      0.464800
      2 F1          0.7160   -1.7250   -5.2650 f         1 JBI     -0.150900
      3 N1          1.5720    0.9010    2.3840 nb        1 JBI     -0.732000
      4 O1          1.7090   -0.1190    8.5580 os        1 JBI     -0.325900
      5 C2          1.6140    0.7280   -0.0070 ca        1 JBI     -0.176200
      6 N2         -0.5670    0.5350    1.1830 nb        1 JBI     -0.750000
      7 C3          2.2530    0.8950    1.2370 ca        1 JBI      0.508200
      8 N3         -0.2470    0.3800   -1.2930 na        1 JBI     -0.282000
      9 C4          0.1850    0.7380    2.3290 ca        1 JBI      0.862900
     10 N4          2.0730    0.6890   -1.3290 nc        1 JBI     -0.567100
     11 C5          0.9560    0.4930   -2.0860 cd        1 JBI      0.597700
     12 N5         -0.5570    0.8570    3.5330 nh        1 JBI     -0.689300
     13 C6         -1.6010    0.2200   -1.7580 c3        1 JBI      0.054000
     14 N6          0.8970    0.4810   -3.5000 nh        1 JBI     -0.638600
     15 C7          0.0480    0.5520    4.7790 ca        1 JBI      0.083600
     16 C8          2.0280    0.0090   -4.2160 ca        1 JBI      0.083600
     17 C9         -2.0910    1.3490   -2.6950 c3        1 JBI     -0.101900
     18 C10        -2.5150    0.7220   -4.0110 c3        1 JBI     -0.088900
     19 C11        -2.3770   -0.7880   -3.8920 c3        1 JBI     -0.088900
     20 C12        -1.8510   -1.1120   -2.5050 c3        1 JBI     -0.101900
     21 C13         1.9030   -1.0770   -5.1330 ca        1 JBI      0.079900
     22 C14         2.9940   -1.4800   -5.9180 ca        1 JBI     -0.148000
     23 C15         4.2150   -0.8260   -5.7930 ca        1 JBI     -0.115000
     24 C16         4.3510    0.2340   -4.8990 ca        1 JBI     -0.131000
     25 C17         3.2760    0.6550   -4.1220 ca        1 JBI     -0.083000
     26 C18         1.0730    1.3700    5.3040 ca        1 JBI     -0.097000
     27 C19         1.6040    1.1140    6.5590 ca        1 JBI     -0.172000
     28 C20         1.1140    0.0380    7.3210 ca        1 JBI      0.118100
     29 C21         0.0950   -0.7780    6.8200 ca        1 JBI     -0.172000
     30 C22        -0.4270   -0.5250    5.5550 ca        1 JBI     -0.097000
     31 C23         1.2550   -1.2200    9.3360 c3        1 JBI      0.113700
     32 H3          3.3490    1.0260    1.3130 h4        1 JBI      0.041100
     33 HN5        -1.4960    0.5110    3.4580 hn        1 JBI      0.425800
     34 H6         -2.2520    0.2280   -0.8320 h1        1 JBI      0.094700
     35 HN6         0.0330    0.1010   -3.8500 hn        1 JBI      0.427800
     36 H9         -2.9590    1.8610   -2.2080 hc        1 JBI      0.060950
     37 H9A        -1.3060    2.1280   -2.8640 hc        1 JBI      0.060950
     38 H10        -3.5720    1.0000   -4.2510 hc        1 JBI      0.050200
     39 H10A       -1.8790    1.1070   -4.8490 hc        1 JBI      0.050200
     40 H11        -3.3650   -1.2860   -4.0580 hc        1 JBI      0.050200
     41 H11A       -1.6780   -1.1820   -4.6750 hc        1 JBI      0.050200
     42 H12        -0.9260   -1.7400   -2.5720 hc        1 JBI      0.060950
     43 H12A       -2.6040   -1.7060   -1.9280 hc        1 JBI      0.060950
     44 H14         2.8690   -2.3170   -6.6210 ha        1 JBI      0.150000
     45 H15         5.0720   -1.1490   -6.4040 ha        1 JBI      0.140000
     46 H16         5.3180    0.7500   -4.8030 ha        1 JBI      0.142000
     47 H17         3.4080    1.5000   -3.4270 ha        1 JBI      0.168000
     48 H18         1.4610    2.2190    4.7180 ha        1 JBI      0.144500
     49 H19         2.4050    1.7460    6.9700 ha        1 JBI      0.145000
     50 H21        -0.2970   -1.6210    7.4060 ha        1 JBI      0.145000
     51 H22        -1.2260   -1.1790    5.1720 ha        1 JBI      0.144500
     52 H23         0.1710   -1.1090    9.5810 h1        1 JBI      0.044033
     53 H23A        1.8770   -1.1560   10.2650 h1        1 JBI      0.044033
     54 H23B        1.4390   -2.1840    8.8040 h1        1 JBI      0.044033
@<TRIPOS>BOND
     1    1    5 ar  
     2    1    6 ar  
     3    1    8 1   
     4    2   21 1   
     5    3    7 ar  
     6    3    9 ar  
     7    4   28 1   
     8    4   31 1   
     9    5    7 ar  
    10    5   10 1   
    11    6    9 ar  
    12    7   32 1   
    13    8   11 1   
    14    8   13 1   
    15    9   12 1   
    16   10   11 2   
    17   11   14 1   
    18   12   15 1   
    19   12   33 1   
    20   13   17 1   
    21   13   20 1   
    22   13   34 1   
    23   14   16 1   
    24   14   35 1   
    25   15   26 ar  
    26   15   30 ar  
    27   16   21 ar  
    28   16   25 ar  
    29   17   18 1   
    30   17   36 1   
    31   17   37 1   
    32   18   19 1   
    33   18   38 1   
    34   18   39 1   
    35   19   20 1   
    36   19   40 1   
    37   19   41 1   
    38   20   42 1   
    39   20   43 1   
    40   21   22 ar  
    41   22   23 ar  
    42   22   44 1   
    43   23   24 ar  
    44   23   45 1   
    45   24   25 ar  
    46   24   46 1   
    47   25   47 1   
    48   26   27 ar  
    49   26   48 1   
    50   27   28 ar  
    51   27   49 1   
    52   28   29 ar  
    53   29   30 ar  
    54   29   50 1   
    55   30   51 1   
    56   31   52 1   
    57   31   53 1   
    58   31   54 1   
@<TRIPOS>SUBSTRUCTURE
     1 JBI         1 TEMP              0 ****  ****    0 ROOT
