@<TRIPOS>MOLECULE
JBI
   54    58     1     0     0
SMALL
bcc


@<TRIPOS>ATOM
      1 C1          0.1600    0.5460    0.0400 ca        1 JBI      0.464800
      2 F1          0.7250   -1.7160   -5.2670 f         1 JBI     -0.150900
      3 N1          1.5680    0.9080    2.3830 nb        1 JBI     -0.732000
      4 O1          1.7210   -0.1220    8.5560 os        1 JBI     -0.325900
      5 C2          1.6080    0.7390   -0.0080 ca        1 JBI     -0.176200
      6 N2         -0.5690    0.5250    1.1850 nb        1 JBI     -0.751000
      7 C3          2.2480    0.9090    1.2360 ca        1 JBI      0.508200
      8 N3         -0.2510    0.3760   -1.2920 na        1 JBI     -0.282000
      9 C4          0.1830    0.7330    2.3300 ca        1 JBI      0.862900
     10 N4          2.0660    0.7050   -1.3300 nc        1 JBI     -0.567100
     11 C5          0.9490    0.5000   -2.0860 cd        1 JBI      0.597700
     12 N5         -0.5590    0.8440    3.5350 nu        1 JBI     -0.689300
     13 C6         -1.6050    0.2040   -1.7550 c3        1 JBI      0.054000
     14 N6          0.8890    0.4890   -3.5000 nu        1 JBI     -0.638600
     15 C7          0.0500    0.5410    4.7800 ca        1 JBI      0.083600
     16 C8          2.0220    0.0290   -4.2180 ca        1 JBI      0.083600
     17 C9         -2.1060    1.3290   -2.6900 c3        1 JBI     -0.101900
     18 C10        -2.5260    0.7000   -4.0060 c3        1 JBI     -0.088900
     19 C11        -2.3750   -0.8080   -3.8890 c3        1 JBI     -0.088900
     20 C12        -1.8430   -1.1290   -2.5030 c3        1 JBI     -0.101900
     21 C13         1.9060   -1.0580   -5.1360 ca        1 JBI      0.079900
     22 C14         2.9990   -1.4500   -5.9230 ca        1 JBI     -0.148000
     23 C15         4.2140   -0.7850   -5.8000 ca        1 JBI     -0.115000
     24 C16         4.3420    0.2760   -4.9050 ca        1 JBI     -0.131000
     25 C17         3.2640    0.6860   -4.1250 ca        1 JBI     -0.083000
     26 C18         1.0690    1.3670    5.3050 ca        1 JBI     -0.097000
     27 C19         1.6040    1.1130    6.5590 ca        1 JBI     -0.172000
     28 C20         1.1230    0.0320    7.3200 ca        1 JBI      0.118100
     29 C21         0.1100   -0.7910    6.8190 ca        1 JBI     -0.172000
     30 C22        -0.4160   -0.5400    5.5550 ca        1 JBI     -0.097000
     31 C23         1.2740   -1.2250    9.3350 c3        1 JBI      0.113700
     32 H3          3.3420    1.0490    1.3110 h4        1 JBI      0.041100
     33 HN5        -1.4950    0.4900    3.4610 hn        1 JBI      0.425800
     34 H6         -2.2540    0.2050   -0.8280 h1        1 JBI      0.094700
     35 HN6         0.0270    0.1020   -3.8490 hn        1 JBI      0.427800
     36 H9         -1.3280    2.1170   -2.8590 hc        1 JBI      0.060950
     37 H9A        -2.9780    1.8340   -2.2010 hc        1 JBI      0.060950
     38 H10        -3.5860    0.9700   -4.2450 hc        1 JBI      0.050200
     39 H10A       -1.8950    1.0920   -4.8450 hc        1 JBI      0.050200
     40 H11        -1.6730   -1.1950   -4.6730 hc        1 JBI      0.050200
     41 H11A       -3.3590   -1.3140   -4.0540 hc        1 JBI      0.050200
     42 H12        -2.5910   -1.7300   -1.9250 hc        1 JBI      0.060950
     43 H12A       -0.9140   -1.7490   -2.5720 hc        1 JBI      0.060950
     44 H14         2.8810   -2.2880   -6.6270 ha        1 JBI      0.150000
     45 H15         5.0730   -1.1000   -6.4110 ha        1 JBI      0.140000
     46 H16         5.3050    0.8010   -4.8100 ha        1 JBI      0.142000
     47 H17         3.3900    1.5320   -3.4300 ha        1 JBI      0.168000
     48 H18         1.4510    2.2190    4.7200 ha        1 JBI      0.144500
     49 H19         2.4010    1.7500    6.9700 ha        1 JBI      0.145000
     50 H21        -0.2760   -1.6370    7.4050 ha        1 JBI      0.145000
     51 H22        -1.2110   -1.2000    5.1720 ha        1 JBI      0.144500
     52 H23         0.1890   -1.1210    9.5810 h1        1 JBI      0.044033
     53 H23A        1.4640   -2.1890    8.8020 h1        1 JBI      0.044033
     54 H23B        1.8970   -1.1580   10.2630 h1        1 JBI      0.044033
@<TRIPOS>BOND
     1    1    5 ar  
     2    1    6 ar  
     3    1    8 1   
     4    2   21 1   
     5    3    7 ar  
     6    3    9 ar  
     7    4   28 1   
     8    4   31 1   
     9    5    7 ar  
    10    5   10 1   
    11    6    9 ar  
    12    7   32 1   
    13    8   11 1   
    14    8   13 1   
    15    9   12 1   
    16   10   11 2   
    17   11   14 1   
    18   12   15 1   
    19   12   33 1   
    20   13   17 1   
    21   13   20 1   
    22   13   34 1   
    23   14   16 1   
    24   14   35 1   
    25   15   26 ar  
    26   15   30 ar  
    27   16   21 ar  
    28   16   25 ar  
    29   17   18 1   
    30   17   36 1   
    31   17   37 1   
    32   18   19 1   
    33   18   38 1   
    34   18   39 1   
    35   19   20 1   
    36   19   40 1   
    37   19   41 1   
    38   20   42 1   
    39   20   43 1   
    40   21   22 ar  
    41   22   23 ar  
    42   22   44 1   
    43   23   24 ar  
    44   23   45 1   
    45   24   25 ar  
    46   24   46 1   
    47   25   47 1   
    48   26   27 ar  
    49   26   48 1   
    50   27   28 ar  
    51   27   49 1   
    52   28   29 ar  
    53   29   30 ar  
    54   29   50 1   
    55   30   51 1   
    56   31   52 1   
    57   31   53 1   
    58   31   54 1   
@<TRIPOS>SUBSTRUCTURE
     1 JBI         1 TEMP              0 ****  ****    0 ROOT
