@<TRIPOS>MOLECULE
JBI
   56    60     1     0     0
SMALL
bcc


@<TRIPOS>ATOM
      1 C1          0.3850   -0.6190    0.1630 ca        1 JBI      0.455800
      2 F1          0.1610   -1.1040   -5.0510 f         1 JBI     -0.123900
      3 N1          1.7700   -1.8560    2.2170 nb        1 JBI     -0.677000
      4 O1          0.1760    1.7330    7.6420 os        1 JBI     -0.289900
      5 C2          1.8280   -0.8610    0.0400 ca        1 JBI     -0.138200
      6 N2         -0.3450   -0.9710    1.2670 nb        1 JBI     -0.649000
      7 C3          2.4650   -1.5030    1.1370 ca        1 JBI      0.563200
      8 N3         -0.0160    0.0020   -1.0260 na        1 JBI     -0.204000
      9 C4          0.4070   -1.5740    2.2280 ca        1 JBI      0.757900
     10 N4          2.2900   -0.4000   -1.1880 nc        1 JBI     -0.441100
     11 C5          1.1790    0.1050   -1.7990 cd        1 JBI      0.444700
     12 N5         -0.3170   -1.9830    3.4780 n4        1 JBI     -0.591100
     13 C6         -1.3480    0.4730   -1.3720 c3        1 JBI      0.021000
     14 N6          1.1940    0.7150   -3.1390 n4        1 JBI     -0.543400
     15 C7         -0.1380   -1.0010    4.5490 ca        1 JBI     -0.142400
     16 C8          2.0630    0.0040   -4.0850 ca        1 JBI     -0.111400
     17 C9         -1.4100    1.9880   -1.6690 c3        1 JBI     -0.114900
     18 C10        -1.8290    2.1640   -3.1180 c3        1 JBI     -0.104900
     19 C11        -2.2600    0.8080   -3.6530 c3        1 JBI     -0.104900
     20 C12        -1.9630   -0.2430   -2.5960 c3        1 JBI     -0.114900
     21 C13         1.4960   -0.8880   -5.0370 ca        1 JBI      0.161900
     22 C14         2.3310   -1.5250   -5.9690 ca        1 JBI     -0.131000
     23 C15         3.7040   -1.2890   -5.9440 ca        1 JBI     -0.032000
     24 C16         4.2600   -0.4230   -4.9980 ca        1 JBI     -0.113000
     25 C17         3.4530    0.2210   -4.0660 ca        1 JBI     -0.055000
     26 C18        -1.1140    0.0020    4.7410 ca        1 JBI     -0.046500
     27 C19        -0.9760    0.8950    5.7850 ca        1 JBI     -0.175000
     28 C20         0.1440    0.8040    6.6490 ca        1 JBI      0.214100
     29 C21         1.1200   -0.1880    6.4440 ca        1 JBI     -0.175000
     30 C22         0.9840   -1.0860    5.3950 ca        1 JBI     -0.046500
     31 C23         1.2590    1.6630    8.5780 c3        1 JBI      0.100700
     32 H3          3.5530   -1.7350    1.1370 h4        1 JBI      0.095100
     33 HN5        -1.3220   -2.0830    3.2750 hn        1 JBI      0.483300
     34 H6         -1.9890    0.2550   -0.4640 h1        1 JBI      0.118700
     35 HN6         0.2260    0.7330   -3.5170 hn        1 JBI      0.489300
     36 H9         -0.4460    2.5140   -1.4560 hc        1 JBI      0.079200
     37 H9A        -2.1780    2.4430   -0.9880 hc        1 JBI      0.079200
     38 H10        -2.6720    2.9000   -3.1910 hc        1 JBI      0.072200
     39 H10A       -0.9910    2.5900   -3.7280 hc        1 JBI      0.072200
     40 H11        -1.7340    0.5640   -4.6130 hc        1 JBI      0.072200
     41 H11A       -3.3570    0.8150   -3.8900 hc        1 JBI      0.072200
     42 H12        -2.9110   -0.7460   -2.2700 hc        1 JBI      0.079200
     43 H12A       -1.3010   -1.0480   -3.0080 hc        1 JBI      0.079200
     44 H14         1.8830   -2.2070   -6.7130 ha        1 JBI      0.196000
     45 H15         4.3560   -1.7940   -6.6810 ha        1 JBI      0.188000
     46 H16         5.3490   -0.2440   -4.9880 ha        1 JBI      0.185000
     47 H17         3.9120    0.8910   -3.3180 ha        1 JBI      0.170000
     48 H18        -1.9930    0.0780    4.0790 ha        1 JBI      0.160500
     49 H19        -1.7300    1.6800    5.9660 ha        1 JBI      0.184000
     50 H21         1.9930   -0.2650    7.1120 ha        1 JBI      0.184000
     51 H22         1.7590   -1.8570    5.2410 ha        1 JBI      0.160500
     52 H23         2.2310    1.8330    8.0580 h1        1 JBI      0.071367
     53 H23A        1.0280    2.5050    9.2830 h1        1 JBI      0.071367
     54 H23B        1.2490    0.6830    9.1120 h1        1 JBI      0.071367
     55 H52         0.0620   -2.8930    3.7880 hn        1 JBI      0.483300
     56 H62         1.5380    1.6840   -3.0350 hn        1 JBI      0.489300
@<TRIPOS>BOND
     1    1    5 ar  
     2    1    6 ar  
     3    1    8 1   
     4    2   21 1   
     5    3    7 ar  
     6    3    9 ar  
     7    4   28 1   
     8    4   31 1   
     9    5    7 ar  
    10    5   10 1   
    11    6    9 ar  
    12    7   32 1   
    13    8   11 1   
    14    8   13 1   
    15    9   12 1   
    16   10   11 2   
    17   11   14 1   
    18   12   15 1   
    19   12   33 1   
    20   12   55 1   
    21   13   17 1   
    22   13   20 1   
    23   13   34 1   
    24   14   16 1   
    25   14   35 1   
    26   14   56 1   
    27   15   26 ar  
    28   15   30 ar  
    29   16   21 ar  
    30   16   25 ar  
    31   17   18 1   
    32   17   36 1   
    33   17   37 1   
    34   18   19 1   
    35   18   38 1   
    36   18   39 1   
    37   19   20 1   
    38   19   40 1   
    39   19   41 1   
    40   20   42 1   
    41   20   43 1   
    42   21   22 ar  
    43   22   23 ar  
    44   22   44 1   
    45   23   24 ar  
    46   23   45 1   
    47   24   25 ar  
    48   24   46 1   
    49   25   47 1   
    50   26   27 ar  
    51   26   48 1   
    52   27   28 ar  
    53   27   49 1   
    54   28   29 ar  
    55   29   30 ar  
    56   29   50 1   
    57   30   51 1   
    58   31   52 1   
    59   31   53 1   
    60   31   54 1   
@<TRIPOS>SUBSTRUCTURE
     1 JBI         1 TEMP              0 ****  ****    0 ROOT
