@<TRIPOS>MOLECULE
JBI
   54    58     1     0     0
SMALL
bcc


@<TRIPOS>ATOM
      1 C1         -0.0870   -0.5410    0.5360 ca        1 JBI      0.464800
      2 F1         -5.4510   -0.1650   -1.6290 f         1 JBI     -0.150900
      3 N1          2.2440    0.9130    0.7690 nb        1 JBI     -0.732000
      4 O1          8.3900    1.0860   -0.4060 os        1 JBI     -0.325900
      5 C2         -0.1510    0.9150    0.6530 ca        1 JBI     -0.176200
      6 N2          1.0660   -1.2560    0.5280 nb        1 JBI     -0.751000
      7 C3          1.0880    1.5780    0.7600 ca        1 JBI      0.508200
      8 N3         -1.4170   -0.9770    0.4200 na        1 JBI     -0.282000
      9 C4          2.2050   -0.4800    0.6690 ca        1 JBI      0.862900
     10 N4         -1.4800    1.3540    0.6250 nc        1 JBI     -0.567100
     11 C5         -2.2250    0.2180    0.4980 cd        1 JBI      0.597700
     12 N5          3.4220   -1.2000    0.7920 nh        1 JBI     -0.689300
     13 C6         -1.8660   -2.3440    0.3330 c3        1 JBI      0.054000
     14 N6         -3.6380    0.1410    0.5230 nh        1 JBI     -0.638600
     15 C7          4.6530   -0.5930    0.4290 ca        1 JBI      0.083600
     16 C8         -4.3810    1.2380    0.0180 ca        1 JBI      0.083600
     17 C9         -2.7680   -2.7940    1.5050 c3        1 JBI     -0.101900
     18 C10        -4.0930   -3.2640    0.9300 c3        1 JBI     -0.088900
     19 C11        -4.0120   -3.1930   -0.5860 c3        1 JBI     -0.088900
     20 C12        -2.6410   -2.6630   -0.9680 c3        1 JBI     -0.101900
     21 C13        -5.3210    1.0520   -1.0390 ca        1 JBI      0.079900
     22 C14        -6.1320    2.1130   -1.4720 ca        1 JBI     -0.148000
     23 C15        -6.0090    3.3640   -0.8770 ca        1 JBI     -0.115000
     24 C16        -5.0930    3.5600    0.1540 ca        1 JBI     -0.131000
     25 C17        -4.2900    2.5160    0.6040 ca        1 JBI     -0.083000
     26 C18         5.1810    0.4750    1.1880 ca        1 JBI     -0.097000
     27 C19         6.4230    1.0110    0.8780 ca        1 JBI     -0.172000
     28 C20         7.1660    0.4820   -0.1920 ca        1 JBI      0.118100
     29 C21         6.6610   -0.5800   -0.9490 ca        1 JBI     -0.172000
     30 C22         5.4100   -1.1070   -0.6420 ca        1 JBI     -0.097000
     31 C23         9.1510    0.5900   -1.5010 c3        1 JBI      0.113700
     32 H3          1.1510    2.6790    0.8390 h4        1 JBI      0.041100
     33 HN5         3.3530   -2.1540    0.4900 hn        1 JBI      0.425800
     34 H6         -0.9300   -2.9800    0.3470 h1        1 JBI      0.094700
     35 HN6        -3.9840   -0.7450    0.1920 hn        1 JBI      0.427800
     36 H9         -2.2560   -3.6310    2.0440 hc        1 JBI      0.060950
     37 H9A        -2.9300   -1.9770    2.2530 hc        1 JBI      0.060950
     38 H10        -4.3110   -4.3110    1.2620 hc        1 JBI      0.050200
     39 H10A       -4.9310   -2.6220    1.3070 hc        1 JBI      0.050200
     40 H11        -4.1750   -4.2060   -1.0350 hc        1 JBI      0.050200
     41 H11A       -4.8150   -2.5240   -0.9920 hc        1 JBI      0.050200
     42 H12        -2.7370   -1.7690   -1.6350 hc        1 JBI      0.060950
     43 H12A       -2.0670   -3.4340   -1.5420 hc        1 JBI      0.060950
     44 H14        -6.8520    1.9400   -2.2850 ha        1 JBI      0.150000
     45 H15        -6.6390    4.1960   -1.2240 ha        1 JBI      0.140000
     46 H16        -4.9990    4.5510    0.6240 ha        1 JBI      0.142000
     47 H17        -3.5780    2.6960    1.4260 ha        1 JBI      0.168000
     48 H18         4.6100    0.8950    2.0310 ha        1 JBI      0.144500
     49 H19         6.8370    1.8450    1.4620 ha        1 JBI      0.145000
     50 H21         7.2330   -1.0020   -1.7870 ha        1 JBI      0.145000
     51 H22         5.0230   -1.9400   -1.2500 ha        1 JBI      0.144500
     52 H23        10.0720    1.2270   -1.4870 h1        1 JBI      0.044033
     53 H23A        9.4130   -0.4840   -1.3450 h1        1 JBI      0.044033
     54 H23B        8.5950    0.7220   -2.4610 h1        1 JBI      0.044033
@<TRIPOS>BOND
     1    1    5 ar  
     2    1    6 ar  
     3    1    8 1   
     4    2   21 1   
     5    3    7 ar  
     6    3    9 ar  
     7    4   28 1   
     8    4   31 1   
     9    5    7 ar  
    10    5   10 1   
    11    6    9 ar  
    12    7   32 1   
    13    8   11 1   
    14    8   13 1   
    15    9   12 1   
    16   10   11 2   
    17   11   14 1   
    18   12   15 1   
    19   12   33 1   
    20   13   17 1   
    21   13   20 1   
    22   13   34 1   
    23   14   16 1   
    24   14   35 1   
    25   15   26 ar  
    26   15   30 ar  
    27   16   21 ar  
    28   16   25 ar  
    29   17   18 1   
    30   17   36 1   
    31   17   37 1   
    32   18   19 1   
    33   18   38 1   
    34   18   39 1   
    35   19   20 1   
    36   19   40 1   
    37   19   41 1   
    38   20   42 1   
    39   20   43 1   
    40   21   22 ar  
    41   22   23 ar  
    42   22   44 1   
    43   23   24 ar  
    44   23   45 1   
    45   24   25 ar  
    46   24   46 1   
    47   25   47 1   
    48   26   27 ar  
    49   26   48 1   
    50   27   28 ar  
    51   27   49 1   
    52   28   29 ar  
    53   29   30 ar  
    54   29   50 1   
    55   30   51 1   
    56   31   52 1   
    57   31   53 1   
    58   31   54 1   
@<TRIPOS>SUBSTRUCTURE
     1 JBI         1 TEMP              0 ****  ****    0 ROOT
