@<TRIPOS>MOLECULE
JBI
   54    47     1     0     0
SMALL
bcc


@<TRIPOS>ATOM
      1 C1         -0.5820   -0.5880   -0.4150 c1        1 JBI      0.073000
      2 F1          2.6050   -2.1450   -4.4680 f         1 JBI     -0.116000
      3 N1          0.7840   -0.6950    1.9590 n1        1 JBI     -0.207000
      4 O1          1.7320    1.3270    7.6890 os        1 JBI     -0.210000
      5 C2          0.7660   -0.6850   -0.4130 c1        1 JBI     -0.185000
      6 N2         -1.2640   -0.5430    0.7680 n1        1 JBI     -0.224000
      7 C3          1.4580   -0.7390    0.7970 c1        1 JBI      0.042000
      8 N3         -1.0020   -0.5530   -1.7260 n1        1 JBI     -0.169500
      9 C4         -0.5830   -0.5970    1.9560 c1        1 JBI      0.144000
     10 N4          1.1920   -0.7110   -1.7210 n1        1 JBI     -0.169500
     11 C5          0.0970   -0.6300   -2.5220 c1        1 JBI      0.119000
     12 N5         -1.1810   -0.6130    3.2570 n3        1 JBI     -0.210000
     13 C6         -2.3400   -0.5950   -1.8700 c2        1 JBI      0.034000
     14 N6          0.5430   -0.6240   -3.8840 n2        1 JBI     -0.200000
     15 C7         -0.4360   -0.1670    4.3920 c2        1 JBI     -0.001000
     16 C8          1.7830    0.0580   -4.2440 c2        1 JBI      0.002000
     17 C9         -2.8640    0.7460   -2.4760 c3        1 JBI     -0.180500
     18 C10        -3.2160    0.4440   -3.7560 c3        1 JBI     -0.167500
     19 C11        -3.6040   -1.1360   -3.7590 c3        1 JBI     -0.167500
     20 C12        -2.7520   -1.7320   -2.9150 c3        1 JBI     -0.180500
     21 C13         2.7450   -0.8390   -4.7030 c2        1 JBI      0.045000
     22 C14         3.8990   -0.3620   -5.3360 c1        1 JBI     -0.148000
     23 C15         4.0840    1.0060   -5.5080 c1        1 JBI     -0.123000
     24 C16         3.1210    1.9040   -5.0480 c1        1 JBI     -0.123000
     25 C17         1.9700    1.4310   -4.4160 c1        1 JBI     -0.084000
     26 C18        -0.4410    1.1950    4.6680 c2        1 JBI     -0.131000
     27 C19         0.2360    1.6820    5.7760 c1        1 JBI     -0.146000
     28 C20         0.9220    0.8080    6.6120 c1        1 JBI      0.073000
     29 C21         0.9270   -0.5510    6.3380 c1        1 JBI     -0.197000
     30 C22         0.2460   -1.0390    5.2230 c1        1 JBI     -0.063000
     31 C23         1.0780    1.3070    8.9740 c3        1 JBI     -0.076000
     32 H3          2.4450   -0.8110    0.8000 ha        1 JBI      0.177000
     33 HN5        -2.0110   -0.9510    3.3680 hn        1 JBI      0.222000
     34 H6         -2.7640   -0.7620   -1.0090 ha        1 JBI      0.134000
     35 HN6         0.0760   -1.0860   -4.5190 hn        1 JBI      0.223000
     36 H9         -2.1540    1.4230   -2.4690 hc        1 JBI      0.100750
     37 H9A        -3.6460    1.0650   -1.9730 hc        1 JBI      0.100750
     38 H10        -3.9970    0.9870   -4.0320 hc        1 JBI      0.089750
     39 H10A       -2.4560    0.6080   -4.3650 hc        1 JBI      0.089750
     40 H11        -3.4990   -1.5080   -4.6640 hc        1 JBI      0.089750
     41 H11A       -4.5290   -1.2570   -3.4490 hc        1 JBI      0.089750
     42 H12        -3.1990   -2.4830   -2.4480 hc        1 JBI      0.100750
     43 H12A       -1.9640   -2.0510   -3.3960 hc        1 JBI      0.100750
     44 H14         4.5820   -0.9990   -5.6620 ha        1 JBI      0.150000
     45 H15         4.8970    1.3400   -5.9540 ha        1 JBI      0.141000
     46 H16         3.2520    2.8620   -5.1690 ha        1 JBI      0.141000
     47 H17         1.2930    2.0640   -4.0940 ha        1 JBI      0.168000
     48 H18        -0.9240    1.8120    4.0790 ha        1 JBI      0.133000
     49 H19         0.2320    2.6380    5.9680 ha        1 JBI      0.150000
     50 H21         1.4070   -1.1640    6.9230 ha        1 JBI      0.140000
     51 H22         0.2500   -1.9970    5.0290 ha        1 JBI      0.156000
     52 H23         1.6640    1.7350    9.6490 h1        1 JBI      0.083667
     53 H23A        0.8990    0.3720    9.2400 h1        1 JBI      0.083667
     54 H23B        0.2270    1.8010    8.9180 h1        1 JBI      0.083667
@<TRIPOS>BOND
     1    1    6 1   
     2    2   21 1   
     3    3    9 1   
     4    4   28 1   
     5    4   31 1   
     6    5    7 1   
     7    7   32 1   
     8    8   11 1   
     9    9   12 1   
    10   10   11 1   
    11   12   15 1   
    12   12   33 1   
    13   13   17 1   
    14   13   20 1   
    15   13   34 1   
    16   14   16 1   
    17   14   35 1   
    18   15   26 1   
    19   15   30 1   
    20   16   21 1   
    21   16   25 1   
    22   17   18 1   
    23   17   36 1   
    24   17   37 1   
    25   18   19 1   
    26   18   38 1   
    27   18   39 1   
    28   19   20 1   
    29   19   40 1   
    30   19   41 1   
    31   20   42 1   
    32   20   43 1   
    33   21   22 1   
    34   22   44 1   
    35   23   24 1   
    36   23   45 1   
    37   24   46 1   
    38   25   47 1   
    39   26   27 1   
    40   26   48 1   
    41   27   49 1   
    42   28   29 1   
    43   29   50 1   
    44   30   51 1   
    45   31   52 1   
    46   31   53 1   
    47   31   54 1   
@<TRIPOS>SUBSTRUCTURE
     1 JBI         1 TEMP              0 ****  ****    0 ROOT
