@<TRIPOS>MOLECULE
JBW
   38    41     1     0     0
SMALL
bcc


@<TRIPOS>ATOM
      1 O          -0.3820    0.2020    0.0240 o         1 JBW     -0.446100
      2 C13         0.7700   -0.1620   -0.1830 c         1 JBW      0.624700
      3 N3          1.3680   -1.0000    0.9540 n4        1 JBW     -0.644800
      4 C14         1.7110   -0.1570    2.1100 cx        1 JBW      0.001500
      5 C16         2.5200   -0.7170    3.2630 cx        1 JBW     -0.102900
      6 C15         3.1300    0.3080    2.3580 cx        1 JBW     -0.102900
      7 C12         1.6080    0.0610   -1.3130 cc        1 JBW     -0.316700
      8 C11         1.1280    0.7630   -2.4320 cd        1 JBW      0.034000
      9 C10         2.0780    0.8600   -3.4590 cd        1 JBW     -0.245000
     10 S           3.2010   -0.4340   -1.5520 ss        1 JBW     -0.001800
     11 C9          3.3010    0.2420   -3.1250 cc        1 JBW      0.168700
     12 N2          4.4330    0.1740   -3.8810 na        1 JBW     -0.096400
     13 C1          4.8210    0.9910   -5.0240 cc        1 JBW      0.474800
     14 C           3.9690    2.0850   -5.5580 c3        1 JBW     -0.134400
     15 C3          5.5130   -0.7270   -3.6730 ca        1 JBW     -0.093200
     16 C4          5.7320   -1.7420   -2.7450 ca        1 JBW     -0.119000
     17 C5          6.9270   -2.4560   -2.8390 ca        1 JBW     -0.103000
     18 C6          7.8820   -2.1730   -3.8200 ca        1 JBW     -0.090000
     19 C7          7.6800   -1.1570   -4.7630 ca        1 JBW      0.074000
     20 C2          6.4880   -0.4220   -4.6980 ca        1 JBW      0.121400
     21 N           6.0180    0.6440   -5.5010 nd        1 JBW     -0.508100
     22 C8          8.6530   -0.8800   -5.7580 cg        1 JBW      0.216800
     23 N1          9.4490   -0.6510   -6.5740 n1        1 JBW     -0.299800
     24 H3          0.6570   -1.6780    1.2600 hn        1 JBW      0.451800
     25 H14         0.8640    0.5380    2.3290 hx        1 JBW      0.157700
     26 H161        2.2080   -0.4330    4.2880 hc        1 JBW      0.109450
     27 H162        2.8940   -1.7580    3.2260 hc        1 JBW      0.109450
     28 H151        3.2690    1.3480    2.7160 hc        1 JBW      0.109450
     29 H152        3.9430    0.0040    1.6720 hc        1 JBW      0.109450
     30 H11         0.1130    1.1790   -2.4980 ha        1 JBW      0.194000
     31 H10         1.8650    1.3420   -4.4190 ha        1 JBW      0.196000
     32 HC1         4.5730    2.7330   -6.2470 hc        1 JBW      0.082700
     33 HC2         3.5740    2.7210   -4.7280 hc        1 JBW      0.082700
     34 HC3         3.1190    1.6510   -6.1430 hc        1 JBW      0.082700
     35 H4          4.9940   -1.9960   -1.9700 ha        1 JBW      0.130000
     36 H5          7.1240   -3.2670   -2.1200 ha        1 JBW      0.154000
     37 H6          8.8130   -2.7630   -3.8560 ha        1 JBW      0.168000
     38 H32         2.1920   -1.5100    0.6270 hn        1 JBW      0.451800
@<TRIPOS>BOND
     1    1    2 2   
     2    2    3 1   
     3    2    7 1   
     4    3    4 1   
     5    3   24 1   
     6    3   38 1   
     7    4    5 1   
     8    4    6 1   
     9    4   25 1   
    10    5    6 1   
    11    5   26 1   
    12    5   27 1   
    13    6   28 1   
    14    6   29 1   
    15    7    8 2   
    16    7   10 1   
    17    8    9 1   
    18    8   30 1   
    19    9   11 2   
    20    9   31 1   
    21   10   11 1   
    22   11   12 1   
    23   12   13 1   
    24   12   15 1   
    25   13   14 1   
    26   13   21 2   
    27   14   32 1   
    28   14   33 1   
    29   14   34 1   
    30   15   16 ar  
    31   15   20 ar  
    32   16   17 ar  
    33   16   35 1   
    34   17   18 ar  
    35   17   36 1   
    36   18   19 ar  
    37   18   37 1   
    38   19   20 ar  
    39   19   22 1   
    40   20   21 1   
    41   22   23 3   
@<TRIPOS>SUBSTRUCTURE
     1 JBW         1 TEMP              0 ****  ****    0 ROOT
