@<TRIPOS>MOLECULE
JBW
   38    41     1     0     0
SMALL
bcc


@<TRIPOS>ATOM
      1 O          -0.4130    0.1750    0.0180 o         1 JBW     -0.446100
      2 C13         0.7440   -0.1770   -0.1810 c         1 JBW      0.624700
      3 N3          1.3530   -0.9820    0.9740 n4        1 JBW     -0.644800
      4 C14         1.6810   -0.1110    2.1130 cx        1 JBW      0.001500
      5 C16         2.4980   -0.6340    3.2780 cx        1 JBW     -0.102900
      6 C15         3.0930    0.3820    2.3530 cx        1 JBW     -0.102900
      7 C12         1.5800    0.0340   -1.3150 cc        1 JBW     -0.317700
      8 C11         1.0910    0.7040   -2.4490 cd        1 JBW      0.034000
      9 C10         2.0400    0.7930   -3.4770 cd        1 JBW     -0.245000
     10 S           3.1810   -0.4420   -1.5420 ss        1 JBW     -0.001800
     11 C9          3.2720    0.2010   -3.1290 cc        1 JBW      0.169700
     12 N2          4.4060    0.1340   -3.8830 na        1 JBW     -0.096400
     13 C1          4.7820    0.9300   -5.0430 cc        1 JBW      0.474800
     14 C           3.9140    1.9980   -5.6030 c3        1 JBW     -0.134400
     15 C3          5.5000   -0.7460   -3.6530 ca        1 JBW     -0.093200
     16 C4          5.7330   -1.7360   -2.7020 ca        1 JBW     -0.119000
     17 C5          6.9390   -2.4320   -2.7790 ca        1 JBW     -0.103000
     18 C6          7.8910   -2.1580   -3.7660 ca        1 JBW     -0.090000
     19 C7          7.6740   -1.1670   -4.7320 ca        1 JBW      0.074000
     20 C2          6.4710   -0.4490   -4.6840 ca        1 JBW      0.121400
     21 N           5.9840    0.5910   -5.5110 nd        1 JBW     -0.508100
     22 C8          8.6440   -0.8970   -5.7320 cg        1 JBW      0.216800
     23 N1          9.4370   -0.6740   -6.5530 n1        1 JBW     -0.299800
     24 H3          2.1860   -1.4870    0.6590 hn        1 JBW      0.451800
     25 H14         0.8240    0.5760    2.3170 hx        1 JBW      0.157700
     26 H161        2.1800   -0.3340    4.2960 hc        1 JBW      0.109450
     27 H162        2.8880   -1.6690    3.2630 hc        1 JBW      0.109450
     28 H151        3.2150    1.4300    2.6900 hc        1 JBW      0.109450
     29 H152        3.9110    0.0760    1.6740 hc        1 JBW      0.109450
     30 H11         0.0700    1.1030   -2.5240 ha        1 JBW      0.194000
     31 H10         1.8210    1.2500   -4.4480 ha        1 JBW      0.196000
     32 HC1         4.5080    2.6390   -6.3060 hc        1 JBW      0.082700
     33 HC2         3.0700    1.5380   -6.1780 hc        1 JBW      0.082700
     34 HC3         3.5090    2.6470   -4.7880 hc        1 JBW      0.082700
     35 H4          4.9980   -1.9830   -1.9220 ha        1 JBW      0.130000
     36 H5          7.1490   -3.2240   -2.0410 ha        1 JBW      0.154000
     37 H6          8.8310   -2.7340   -3.7870 ha        1 JBW      0.168000
     38 H32         0.6520   -1.6640    1.2930 hn        1 JBW      0.451800
@<TRIPOS>BOND
     1    1    2 2   
     2    2    3 1   
     3    2    7 1   
     4    3    4 1   
     5    3   24 1   
     6    3   38 1   
     7    4    5 1   
     8    4    6 1   
     9    4   25 1   
    10    5    6 1   
    11    5   26 1   
    12    5   27 1   
    13    6   28 1   
    14    6   29 1   
    15    7    8 2   
    16    7   10 1   
    17    8    9 1   
    18    8   30 1   
    19    9   11 2   
    20    9   31 1   
    21   10   11 1   
    22   11   12 1   
    23   12   13 1   
    24   12   15 1   
    25   13   14 1   
    26   13   21 2   
    27   14   32 1   
    28   14   33 1   
    29   14   34 1   
    30   15   16 ar  
    31   15   20 ar  
    32   16   17 ar  
    33   16   35 1   
    34   17   18 ar  
    35   17   36 1   
    36   18   19 ar  
    37   18   37 1   
    38   19   20 ar  
    39   19   22 1   
    40   20   21 1   
    41   22   23 3   
@<TRIPOS>SUBSTRUCTURE
     1 JBW         1 TEMP              0 ****  ****    0 ROOT
