@<TRIPOS>MOLECULE
JBW
   38    43     1     0     0
SMALL
bcc


@<TRIPOS>ATOM
      1 O           0.0000    0.0000    0.0000 o         1 JBW     -0.193000
      2 C13         1.2180    0.0000    0.0000 c2        1 JBW      0.188000
      3 N3          1.8920    0.0000    1.1670 ny        1 JBW      0.733000
      4 C14         1.1590   -0.0010    2.4360 cx        1 JBW     -0.377000
      5 C16         1.8720   -0.5750    3.6620 cx        1 JBW     -0.309000
      6 C15         1.6570    0.9350    3.5390 DU        1 JBW     -0.263000
      7 C12         1.9480   -0.0040   -1.2660 c2        1 JBW     -0.454000
      8 C11         1.3790   -0.0110   -2.5110 c2        1 JBW      0.084000
      9 C10         2.2960   -0.0130   -3.5300 c2        1 JBW     -0.154000
     10 S           3.6990    0.0040   -1.4330 ss        1 JBW      0.342000
     11 C9          3.5860   -0.0110   -3.1350 c2        1 JBW     -0.198000
     12 N2          4.6760   -0.0130   -3.9990 na        1 JBW      0.371000
     13 C1          5.0210    0.9780   -4.8690 c2        1 JBW     -0.172000
     14 C           4.2690    2.2710   -5.0480 c3        1 JBW     -0.045000
     15 C3          5.6170   -1.0200   -4.1330 ca        1 JBW     -0.221000
     16 C4          5.7990   -2.2540   -3.5260 ca        1 JBW     -0.090000
     17 C5          6.8670   -3.0530   -3.8870 ca        1 JBW     -0.070000
     18 C6          7.7640   -2.6370   -4.8520 ca        1 JBW     -0.088000
     19 C7          7.6030   -1.4020   -5.4770 ca        1 JBW      0.123000
     20 C2          6.5170   -0.5780   -5.1160 ca        1 JBW     -0.055000
     21 N           6.0980    0.6430   -5.5220 n2        1 JBW     -0.025000
     22 C8          8.5340   -0.9720   -6.4770 c1        1 JBW     -0.122000
     23 N1          9.2580   -0.6210   -7.2780 n1        1 JBW     -0.002000
     24 H3          2.3290    0.8930    1.2830 hn        1 JBW      0.088500
     25 H14         0.0940   -0.1770    2.5150 hx        1 JBW      0.193000
     26 H161        1.5860    0.1080    4.4530 DU        1 JBW      0.304000
     27 H162        2.8230   -0.9870    3.3470 hc        1 JBW      0.097000
     28 H151        2.4390    1.5710    3.1420 ha        1 JBW      0.125000
     29 H152        1.1950    0.4910    4.4120 DU        1 JBW      0.243000
     30 H11         0.3540   -0.2620   -2.7540 ha        1 JBW      0.153000
     31 H10         2.1590    0.2380   -4.5740 ha        1 JBW      0.165000
     32 HC1         4.4860    3.0260   -4.3020 hc        1 JBW      0.062000
     33 HC2         4.5560    2.9110   -5.8740 hc        1 JBW      0.062000
     34 HC3         3.2110    2.0480   -4.9850 hc        1 JBW      0.062000
     35 H4          5.2010   -2.5950   -2.6900 ha        1 JBW      0.103000
     36 H5          7.1550   -3.9000   -3.2760 ha        1 JBW      0.120000
     37 H6          8.0270   -3.4000   -5.5750 ha        1 JBW      0.134000
     38 H32         2.3570   -0.7630    1.6170 hn        1 JBW      0.088500
@<TRIPOS>BOND
     1    1    2 1   
     2    2    3 1   
     3    2    7 1   
     4    3    4 1   
     5    3   24 1   
     6    3   38 1   
     7    4    5 1   
     8    4    6 1   
     9    4   25 1   
    10    5    6 1   
    11    5   26 1   
    12    5   27 1   
    13    6   26 1   
    14    6   28 1   
    15    6   29 1   
    16    7    8 1   
    17    7   10 1   
    18    8    9 1   
    19    8   30 1   
    20    9   11 1   
    21    9   31 1   
    22   10   11 1   
    23   11   12 1   
    24   12   13 1   
    25   12   15 1   
    26   13   14 1   
    27   13   21 1   
    28   14   32 1   
    29   14   33 1   
    30   14   34 1   
    31   15   16 1   
    32   15   20 1   
    33   16   17 1   
    34   16   35 1   
    35   17   18 1   
    36   17   36 1   
    37   18   19 1   
    38   18   37 1   
    39   19   20 1   
    40   19   22 1   
    41   20   21 1   
    42   22   23 1   
    43   26   29 1   
@<TRIPOS>SUBSTRUCTURE
     1 JBW         1 TEMP              0 ****  ****    0 ROOT
