@<TRIPOS>MOLECULE
JC1
   77    79     1     0     0
SMALL
bcc


@<TRIPOS>ATOM
      1 C31         0.1240    0.8490   -0.7010 c3        1 JC1     -0.093100
      2 C30         1.5380    0.4000   -0.4350 c3        1 JC1     -0.080400
      3 C29         1.8770    0.4760    1.0390 c3        1 JC1     -0.081400
      4 C28         3.3030    0.0300    1.2930 c3        1 JC1     -0.077400
      5 C22         3.6750    0.0950    2.7660 c3        1 JC1     -0.055700
      6 C23         3.0060   -1.0110    3.5710 c3        1 JC1     -0.089400
      7 C24         2.5720   -0.5050    4.9390 c3        1 JC1      0.130400
      8 O03         2.0420   -1.6180    5.6430 oh        1 JC1     -0.602800
      9 C20         5.1950    0.1490    3.0120 c3        1 JC1     -0.049700
     10 C21         5.6060    1.6180    3.0100 c3        1 JC1     -0.094100
     11 C17         6.0760   -0.6290    2.0350 c3        1 JC1     -0.051700
     12 C16         7.5520   -0.1790    2.1300 c3        1 JC1     -0.079400
     13 C15         8.4310   -1.3690    1.7440 c3        1 JC1     -0.076400
     14 C14         7.4540   -2.4520    1.3160 c3        1 JC1     -0.036500
     15 C13         6.1770   -2.1700    2.1650 c3        1 JC1     -0.037000
     16 C18         6.3910   -2.5860    3.6100 c3        1 JC1     -0.086100
     17 C12         5.0570   -2.9750    1.5230 c3        1 JC1     -0.070400
     18 C11         5.3900   -4.4560    1.5270 c3        1 JC1     -0.074400
     19 C09         6.7410   -4.7830    0.9130 c3        1 JC1     -0.044200
     20 C08         7.8420   -3.8870    1.3790 c2        1 JC1     -0.082400
     21 C07         9.0690   -4.3040    1.7340 ce        1 JC1     -0.150000
     22 C06         9.4980   -5.6810    1.8220 ce        1 JC1     -0.108000
     23 C05        10.7770   -6.1000    1.7330 cf        1 JC1     -0.074200
     24 C04        11.1030   -7.5490    1.8770 c3        1 JC1     -0.035200
     25 C03        12.2780   -7.7510    2.8320 c3        1 JC1      0.146100
     26 O02        12.5580   -9.1450    2.8330 oh        1 JC1     -0.599800
     27 C02        13.4900   -6.9520    2.3690 c3        1 JC1     -0.146400
     28 C01        13.1640   -5.4650    2.2830 c3        1 JC1      0.186300
     29 O01        12.9540   -4.8990    3.5740 oh        1 JC1     -0.588800
     30 C10        11.9130   -5.2160    1.4760 cf        1 JC1     -0.069200
     31 C19        11.8860   -4.2380    0.5620 c2        1 JC1     -0.193000
     32 H31        -0.1060    0.7840   -1.7920 hc        1 JC1      0.032700
     33 H31A       -0.6040    0.2060   -0.1480 hc        1 JC1      0.032700
     34 H31B       -0.0220    1.9060   -0.3720 hc        1 JC1      0.032700
     35 H30         1.6720   -0.6550   -0.7950 hc        1 JC1      0.038200
     36 H30A        2.2520    1.0400   -1.0180 hc        1 JC1      0.038200
     37 H29         1.7420    1.5310    1.3980 hc        1 JC1      0.040200
     38 H29A        1.1620   -0.1640    1.6190 hc        1 JC1      0.040200
     39 H28         3.4440   -1.0130    0.9080 hc        1 JC1      0.044700
     40 H28A        3.9910    0.7040    0.7140 hc        1 JC1      0.044700
     41 H22         3.2500    1.0730    3.1510 hc        1 JC1      0.042700
     42 H23         3.7000   -1.8770    3.7230 hc        1 JC1      0.060200
     43 H23A        2.1070   -1.4040    3.0300 hc        1 JC1      0.060200
     44 H24         1.7850    0.2910    4.8380 h1        1 JC1      0.019700
     45 H24A        3.4480   -0.0790    5.4980 h1        1 JC1      0.019700
     46 HO03        1.7770   -1.2930    6.5100 ho        1 JC1      0.398000
     47 H20         5.3830   -0.2580    4.0470 hc        1 JC1      0.052700
     48 H21         5.5810    2.0250    1.9710 hc        1 JC1      0.033367
     49 H21A        4.9110    2.2210    3.6440 hc        1 JC1      0.033367
     50 H21B        6.6330    1.7580    3.4230 hc        1 JC1      0.033367
     51 H17         5.7220   -0.4110    0.9900 hc        1 JC1      0.048700
     52 H16         7.8020    0.1350    3.1750 hc        1 JC1      0.041700
     53 H16A        7.7300    0.6930    1.4550 hc        1 JC1      0.041700
     54 H15         9.0410   -1.6990    2.6230 hc        1 JC1      0.045700
     55 H15A        9.1360   -1.1080    0.9170 hc        1 JC1      0.045700
     56 H14         7.1880   -2.2490    0.2340 hc        1 JC1      0.052700
     57 H18         6.8530   -3.6030    3.6580 hc        1 JC1      0.039033
     58 H18A        7.0790   -1.8710    4.1240 hc        1 JC1      0.039033
     59 H18B        5.4260   -2.6160    4.1690 hc        1 JC1      0.039033
     60 H12         4.0900   -2.8180    2.0650 hc        1 JC1      0.044200
     61 H12A        4.9100   -2.6270    0.4660 hc        1 JC1      0.044200
     62 H11         5.3650   -4.8340    2.5830 hc        1 JC1      0.042200
     63 H11A        4.5960   -5.0090    0.9590 hc        1 JC1      0.042200
     64 H09         6.6700   -4.6790   -0.2050 hc        1 JC1      0.046700
     65 H09A        6.9790   -5.8580    1.1270 hc        1 JC1      0.046700
     66 H07         9.8430   -3.5590    2.0020 ha        1 JC1      0.137000
     67 H06         8.7060   -6.4290    2.0120 ha        1 JC1      0.125000
     68 H04        11.3700   -7.9750    0.8730 hc        1 JC1      0.062200
     69 H04A       10.2220   -8.1270    2.2620 hc        1 JC1      0.062200
     70 H03        11.9890   -7.4210    3.8700 h1        1 JC1      0.048700
     71 HO02       13.2880   -9.2800    3.4490 ho        1 JC1      0.398000
     72 H02        13.8150   -7.3190    1.3610 hc        1 JC1      0.052700
     73 H02A       14.3410   -7.1110    3.0810 hc        1 JC1      0.052700
     74 H01        14.0370   -4.9320    1.8020 h1        1 JC1      0.034700
     75 HO01       13.7290   -5.1250    4.1020 ho        1 JC1      0.396000
     76 H19        12.7450   -3.5780    0.3820 ha        1 JC1      0.120000
     77 H19A       11.0020   -4.0450   -0.0610 ha        1 JC1      0.120000
@<TRIPOS>BOND
     1    1    2 1   
     2    1   32 1   
     3    1   33 1   
     4    1   34 1   
     5    2    3 1   
     6    2   35 1   
     7    2   36 1   
     8    3    4 1   
     9    3   37 1   
    10    3   38 1   
    11    4    5 1   
    12    4   39 1   
    13    4   40 1   
    14    5    6 1   
    15    5    9 1   
    16    5   41 1   
    17    6    7 1   
    18    6   42 1   
    19    6   43 1   
    20    7    8 1   
    21    7   44 1   
    22    7   45 1   
    23    8   46 1   
    24    9   10 1   
    25    9   11 1   
    26    9   47 1   
    27   10   48 1   
    28   10   49 1   
    29   10   50 1   
    30   11   12 1   
    31   11   15 1   
    32   11   51 1   
    33   12   13 1   
    34   12   52 1   
    35   12   53 1   
    36   13   14 1   
    37   13   54 1   
    38   13   55 1   
    39   14   15 1   
    40   14   20 1   
    41   14   56 1   
    42   15   16 1   
    43   15   17 1   
    44   16   57 1   
    45   16   58 1   
    46   16   59 1   
    47   17   18 1   
    48   17   60 1   
    49   17   61 1   
    50   18   19 1   
    51   18   62 1   
    52   18   63 1   
    53   19   20 1   
    54   19   64 1   
    55   19   65 1   
    56   20   21 2   
    57   21   22 1   
    58   21   66 1   
    59   22   23 2   
    60   22   67 1   
    61   23   24 1   
    62   23   30 1   
    63   24   25 1   
    64   24   68 1   
    65   24   69 1   
    66   25   26 1   
    67   25   27 1   
    68   25   70 1   
    69   26   71 1   
    70   27   28 1   
    71   27   72 1   
    72   27   73 1   
    73   28   29 1   
    74   28   30 1   
    75   28   74 1   
    76   29   75 1   
    77   30   31 2   
    78   31   76 1   
    79   31   77 1   
@<TRIPOS>SUBSTRUCTURE
     1 JC1         1 TEMP              0 ****  ****    0 ROOT
