@<TRIPOS>MOLECULE
JC1
   77    79     1     0     0
SMALL
bcc


@<TRIPOS>ATOM
      1 C31         8.1230   -2.3800   -0.7600 c3        1 JC1     -0.093100
      2 C30         6.7010   -2.1600   -0.3140 c3        1 JC1     -0.080400
      3 C29         6.3530   -0.6870   -0.2710 c3        1 JC1     -0.081400
      4 C28         4.9240   -0.4770    0.1870 c3        1 JC1     -0.077400
      5 C22         4.5430    0.9940    0.2390 c3        1 JC1     -0.055700
      6 C23         4.3630    1.5850   -1.1530 c3        1 JC1     -0.089400
      7 C24         4.9030    3.0060   -1.2170 c3        1 JC1      0.130400
      8 O03         4.6040    3.5040   -2.5120 oh        1 JC1     -0.602800
      9 C20         3.3330    1.2820    1.1490 c3        1 JC1     -0.049700
     10 C21         3.8700    1.5360    2.5540 c3        1 JC1     -0.095100
     11 C17         2.2460    0.2100    1.2040 c3        1 JC1     -0.051700
     12 C16         1.3180    0.4130    2.4230 c3        1 JC1     -0.079400
     13 C15        -0.0590   -0.1450    2.0630 c3        1 JC1     -0.075400
     14 C14         0.1210   -0.7710    0.6890 c3        1 JC1     -0.038500
     15 C13         1.2460    0.0820    0.0270 c3        1 JC1     -0.037000
     16 C18         0.7120    1.4420   -0.3900 c3        1 JC1     -0.086100
     17 C12         1.7230   -0.7120   -1.1790 c3        1 JC1     -0.070400
     18 C11         0.5820   -0.9490   -2.1520 c3        1 JC1     -0.074400
     19 C09        -0.6460   -1.5770   -1.5160 c3        1 JC1     -0.045200
     20 C08        -1.0410   -0.9410   -0.2230 c2        1 JC1     -0.075400
     21 C07        -2.3020   -0.6330    0.1240 ce        1 JC1     -0.154000
     22 C06        -3.4680   -0.7720   -0.7170 ce        1 JC1     -0.116000
     23 C05        -4.7390   -0.8560   -0.2710 cf        1 JC1     -0.069200
     24 C04        -5.8720   -0.9660   -1.2360 c3        1 JC1     -0.075200
     25 C03        -7.0000    0.0040   -0.8870 c3        1 JC1      0.145100
     26 O02        -8.1310   -0.2330   -1.7170 oh        1 JC1     -0.600800
     27 C02        -7.4680   -0.1930    0.5490 c3        1 JC1     -0.069400
     28 C01        -6.3080   -0.0190    1.5230 c3        1 JC1      0.183300
     29 O01        -5.9890    1.3700    1.5420 oh        1 JC1     -0.596800
     30 C10        -5.1190   -0.8660    1.1410 cf        1 JC1     -0.120200
     31 C19        -4.4830   -1.6020    2.0610 c2        1 JC1     -0.194000
     32 H31         8.2850   -1.9600   -1.7820 hc        1 JC1      0.033033
     33 H31A        8.8370   -1.8810   -0.0610 hc        1 JC1      0.033033
     34 H31B        8.3580   -3.4710   -0.7850 hc        1 JC1      0.033033
     35 H30         6.0000   -2.6890   -1.0140 hc        1 JC1      0.038200
     36 H30A        6.5510   -2.6100    0.7030 hc        1 JC1      0.038200
     37 H29         7.0550   -0.1590    0.4280 hc        1 JC1      0.040200
     38 H29A        6.5040   -0.2390   -1.2880 hc        1 JC1      0.040200
     39 H28         4.2270   -1.0300   -0.4960 hc        1 JC1      0.044200
     40 H28A        4.8140   -0.9180    1.2150 hc        1 JC1      0.044200
     41 H22         5.4300    1.5280    0.7010 hc        1 JC1      0.042700
     42 H23         4.8950    0.9630   -1.9180 hc        1 JC1      0.059700
     43 H23A        3.2820    1.6090   -1.4450 hc        1 JC1      0.059700
     44 H24         4.4130    3.6500   -0.4370 h1        1 JC1      0.020200
     45 H24A        6.0140    3.0190   -1.0510 h1        1 JC1      0.020200
     46 HO03        4.9490    4.4030   -2.5470 ho        1 JC1      0.399000
     47 H20         2.8590    2.2390    0.7850 hc        1 JC1      0.052700
     48 H21         4.2140    0.5790    3.0160 hc        1 JC1      0.033367
     49 H21A        4.7330    2.2450    2.5230 hc        1 JC1      0.033367
     50 H21B        3.0950    1.9910    3.2150 hc        1 JC1      0.033367
     51 H17         2.7440   -0.7920    1.3200 hc        1 JC1      0.049700
     52 H16         1.7430   -0.1030    3.3180 hc        1 JC1      0.042700
     53 H16A        1.2180    1.5010    2.6650 hc        1 JC1      0.042700
     54 H15        -0.4060   -0.8990    2.8100 hc        1 JC1      0.043700
     55 H15A       -0.8130    0.6810    2.0340 hc        1 JC1      0.043700
     56 H14         0.5420   -1.8100    0.8530 hc        1 JC1      0.054700
     57 H18         1.4250    1.9640   -1.0700 hc        1 JC1      0.039367
     58 H18A       -0.2620    1.3300   -0.9270 hc        1 JC1      0.039367
     59 H18B        0.5390    2.0840    0.5080 hc        1 JC1      0.039367
     60 H12         2.5490   -0.1750   -1.7110 hc        1 JC1      0.045200
     61 H12A        2.1330   -1.6990   -0.8350 hc        1 JC1      0.045200
     62 H11         0.2940    0.0280   -2.6230 hc        1 JC1      0.042700
     63 H11A        0.9410   -1.6210   -2.9770 hc        1 JC1      0.042700
     64 H09        -1.4880   -1.5420   -2.2570 hc        1 JC1      0.047700
     65 H09A       -0.4370   -2.6640   -1.3080 hc        1 JC1      0.047700
     66 H07        -2.5020   -0.2280    1.1350 ha        1 JC1      0.127000
     67 H06        -3.2880   -0.7770   -1.8070 ha        1 JC1      0.125000
     68 H04        -5.5250   -0.7650   -2.2830 hc        1 JC1      0.054200
     69 H04A       -6.2740   -2.0160   -1.2120 hc        1 JC1      0.054200
     70 H03        -6.6450    1.0650   -1.0220 h1        1 JC1      0.053700
     71 HO02       -7.8480   -0.0640   -2.6230 ho        1 JC1      0.399000
     72 H02        -8.2660    0.5570    0.7820 hc        1 JC1      0.067200
     73 H02A       -7.9000   -1.2190    0.6710 hc        1 JC1      0.067200
     74 H01        -6.6550   -0.3060    2.5600 h1        1 JC1      0.038700
     75 HO01       -5.1150    1.4560    1.9410 ho        1 JC1      0.404000
     76 H19        -3.6290   -2.2440    1.8080 ha        1 JC1      0.121000
     77 H19A       -4.7860   -1.6130    3.1160 ha        1 JC1      0.121000
@<TRIPOS>BOND
     1    1    2 1   
     2    1   32 1   
     3    1   33 1   
     4    1   34 1   
     5    2    3 1   
     6    2   35 1   
     7    2   36 1   
     8    3    4 1   
     9    3   37 1   
    10    3   38 1   
    11    4    5 1   
    12    4   39 1   
    13    4   40 1   
    14    5    6 1   
    15    5    9 1   
    16    5   41 1   
    17    6    7 1   
    18    6   42 1   
    19    6   43 1   
    20    7    8 1   
    21    7   44 1   
    22    7   45 1   
    23    8   46 1   
    24    9   10 1   
    25    9   11 1   
    26    9   47 1   
    27   10   48 1   
    28   10   49 1   
    29   10   50 1   
    30   11   12 1   
    31   11   15 1   
    32   11   51 1   
    33   12   13 1   
    34   12   52 1   
    35   12   53 1   
    36   13   14 1   
    37   13   54 1   
    38   13   55 1   
    39   14   15 1   
    40   14   20 1   
    41   14   56 1   
    42   15   16 1   
    43   15   17 1   
    44   16   57 1   
    45   16   58 1   
    46   16   59 1   
    47   17   18 1   
    48   17   60 1   
    49   17   61 1   
    50   18   19 1   
    51   18   62 1   
    52   18   63 1   
    53   19   20 1   
    54   19   64 1   
    55   19   65 1   
    56   20   21 2   
    57   21   22 1   
    58   21   66 1   
    59   22   23 2   
    60   22   67 1   
    61   23   24 1   
    62   23   30 1   
    63   24   25 1   
    64   24   68 1   
    65   24   69 1   
    66   25   26 1   
    67   25   27 1   
    68   25   70 1   
    69   26   71 1   
    70   27   28 1   
    71   27   72 1   
    72   27   73 1   
    73   28   29 1   
    74   28   30 1   
    75   28   74 1   
    76   29   75 1   
    77   30   31 2   
    78   31   76 1   
    79   31   77 1   
@<TRIPOS>SUBSTRUCTURE
     1 JC1         1 TEMP              0 ****  ****    0 ROOT
