@<TRIPOS>MOLECULE
JC1
   77    79     1     0     0
SMALL
bcc


@<TRIPOS>ATOM
      1 C31         0.1330    0.8540   -0.7050 c3        1 JC1     -0.093100
      2 C30         1.5460    0.4060   -0.4360 c3        1 JC1     -0.080400
      3 C29         1.8780    0.4720    1.0410 c3        1 JC1     -0.081400
      4 C28         3.3040    0.0280    1.2990 c3        1 JC1     -0.077400
      5 C22         3.6680    0.0820    2.7750 c3        1 JC1     -0.055700
      6 C23         2.9980   -1.0320    3.5670 c3        1 JC1     -0.089400
      7 C24         2.5540   -0.5390    4.9360 c3        1 JC1      0.130400
      8 O03         2.0250   -1.6590    5.6290 oh        1 JC1     -0.602800
      9 C20         5.1870    0.1380    3.0290 c3        1 JC1     -0.049700
     10 C21         5.5930    1.6080    3.0410 c3        1 JC1     -0.094100
     11 C17         6.0750   -0.6300    2.0500 c3        1 JC1     -0.051700
     12 C16         7.5490   -0.1760    2.1560 c3        1 JC1     -0.079400
     13 C15         8.4330   -1.3600    1.7650 c3        1 JC1     -0.076400
     14 C14         7.4610   -2.4430    1.3230 c3        1 JC1     -0.036500
     15 C13         6.1790   -2.1710    2.1680 c3        1 JC1     -0.037000
     16 C18         6.3870   -2.5980    3.6110 c3        1 JC1     -0.086100
     17 C12         5.0650   -2.9740    1.5140 c3        1 JC1     -0.070400
     18 C11         5.4020   -4.4540    1.5070 c3        1 JC1     -0.074400
     19 C09         6.7570   -4.7720    0.8980 c3        1 JC1     -0.044200
     20 C08         7.8530   -3.8770    1.3770 c2        1 JC1     -0.082400
     21 C07         9.0790   -4.2940    1.7340 ce        1 JC1     -0.150000
     22 C06         9.5110   -5.6700    1.8130 ce        1 JC1     -0.108000
     23 C05        10.7930   -6.0850    1.7260 cf        1 JC1     -0.074200
     24 C04        11.1210   -7.5350    1.8610 c3        1 JC1     -0.035200
     25 C03        12.2920   -7.7400    2.8190 c3        1 JC1      0.146100
     26 O02        12.5770   -9.1340    2.8110 oh        1 JC1     -0.599800
     27 C02        13.5050   -6.9350    2.3690 c3        1 JC1     -0.146400
     28 C01        13.1750   -5.4480    2.2930 c3        1 JC1      0.186300
     29 O01        12.9570   -4.8920    3.5880 oh        1 JC1     -0.588800
     30 C10        11.9270   -5.1950    1.4830 cf        1 JC1     -0.069200
     31 C19        11.9020   -4.2100    0.5770 c2        1 JC1     -0.193000
     32 H31        -0.0180    1.9080   -0.3680 hc        1 JC1      0.032700
     33 H31A       -0.0910    0.7970   -1.7970 hc        1 JC1      0.032700
     34 H31B       -0.5970    0.2060   -0.1610 hc        1 JC1      0.032700
     35 H30         1.6840   -0.6450   -0.8030 hc        1 JC1      0.038200
     36 H30A        2.2620    1.0520   -1.0090 hc        1 JC1      0.038200
     37 H29         1.1610   -0.1740    1.6120 hc        1 JC1      0.040200
     38 H29A        1.7370    1.5230    1.4080 hc        1 JC1      0.040200
     39 H28         3.4490   -1.0120    0.9060 hc        1 JC1      0.044700
     40 H28A        3.9930    0.7080    0.7290 hc        1 JC1      0.044700
     41 H22         3.2380    1.0550    3.1650 hc        1 JC1      0.042700
     42 H23         3.6940   -1.8970    3.7160 hc        1 JC1      0.060200
     43 H23A        2.1030   -1.4240    3.0180 hc        1 JC1      0.060200
     44 H24         1.7660    0.2560    4.8380 h1        1 JC1      0.019700
     45 H24A        3.4260   -0.1150    5.5040 h1        1 JC1      0.019700
     46 HO03        1.7530   -1.3410    6.4970 ho        1 JC1      0.398000
     47 H20         5.3700   -0.2770    4.0610 hc        1 JC1      0.052700
     48 H21         4.8930    2.2040    3.6760 hc        1 JC1      0.033367
     49 H21A        5.5720    2.0240    2.0050 hc        1 JC1      0.033367
     50 H21B        6.6170    1.7480    3.4600 hc        1 JC1      0.033367
     51 H17         5.7250   -0.4040    1.0040 hc        1 JC1      0.048700
     52 H16         7.7280    0.7020    1.4890 hc        1 JC1      0.041700
     53 H16A        7.7920    0.1300    3.2040 hc        1 JC1      0.041700
     54 H15         9.1410   -1.0910    0.9440 hc        1 JC1      0.045700
     55 H15A        9.0390   -1.6960    2.6440 hc        1 JC1      0.045700
     56 H14         7.2000   -2.2310    0.2420 hc        1 JC1      0.052700
     57 H18         5.4200   -2.6350    4.1640 hc        1 JC1      0.039033
     58 H18A        6.8510   -3.6140    3.6530 hc        1 JC1      0.039033
     59 H18B        7.0700   -1.8850    4.1340 hc        1 JC1      0.039033
     60 H12         4.0940   -2.8240    2.0520 hc        1 JC1      0.044200
     61 H12A        4.9210   -2.6180    0.4590 hc        1 JC1      0.044200
     62 H11         4.6120   -5.0050    0.9310 hc        1 JC1      0.042200
     63 H11A        5.3730   -4.8410    2.5610 hc        1 JC1      0.042200
     64 H09         6.6910   -4.6600   -0.2200 hc        1 JC1      0.046700
     65 H09A        6.9970   -5.8480    1.1040 hc        1 JC1      0.046700
     66 H07         9.8500   -3.5490    2.0120 ha        1 JC1      0.137000
     67 H06         8.7210   -6.4220    1.9940 ha        1 JC1      0.125000
     68 H04        11.3950   -7.9510    0.8540 hc        1 JC1      0.062200
     69 H04A       10.2410   -8.1180    2.2370 hc        1 JC1      0.062200
     70 H03        11.9970   -7.4200    3.8590 h1        1 JC1      0.048700
     71 HO02       13.3030   -9.2710    3.4290 ho        1 JC1      0.398000
     72 H02        13.8350   -7.2920    1.3600 hc        1 JC1      0.052700
     73 H02A       14.3520   -7.0970    3.0840 hc        1 JC1      0.052700
     74 H01        14.0490   -4.9090    1.8210 h1        1 JC1      0.034700
     75 HO01       13.7310   -5.1210    4.1180 ho        1 JC1      0.396000
     76 H19        11.0210   -4.0150   -0.0500 ha        1 JC1      0.120000
     77 H19A       12.7590   -3.5470    0.4050 ha        1 JC1      0.120000
@<TRIPOS>BOND
     1    1    2 1   
     2    1   32 1   
     3    1   33 1   
     4    1   34 1   
     5    2    3 1   
     6    2   35 1   
     7    2   36 1   
     8    3    4 1   
     9    3   37 1   
    10    3   38 1   
    11    4    5 1   
    12    4   39 1   
    13    4   40 1   
    14    5    6 1   
    15    5    9 1   
    16    5   41 1   
    17    6    7 1   
    18    6   42 1   
    19    6   43 1   
    20    7    8 1   
    21    7   44 1   
    22    7   45 1   
    23    8   46 1   
    24    9   10 1   
    25    9   11 1   
    26    9   47 1   
    27   10   48 1   
    28   10   49 1   
    29   10   50 1   
    30   11   12 1   
    31   11   15 1   
    32   11   51 1   
    33   12   13 1   
    34   12   52 1   
    35   12   53 1   
    36   13   14 1   
    37   13   54 1   
    38   13   55 1   
    39   14   15 1   
    40   14   20 1   
    41   14   56 1   
    42   15   16 1   
    43   15   17 1   
    44   16   57 1   
    45   16   58 1   
    46   16   59 1   
    47   17   18 1   
    48   17   60 1   
    49   17   61 1   
    50   18   19 1   
    51   18   62 1   
    52   18   63 1   
    53   19   20 1   
    54   19   64 1   
    55   19   65 1   
    56   20   21 2   
    57   21   22 1   
    58   21   66 1   
    59   22   23 2   
    60   22   67 1   
    61   23   24 1   
    62   23   30 1   
    63   24   25 1   
    64   24   68 1   
    65   24   69 1   
    66   25   26 1   
    67   25   27 1   
    68   25   70 1   
    69   26   71 1   
    70   27   28 1   
    71   27   72 1   
    72   27   73 1   
    73   28   29 1   
    74   28   30 1   
    75   28   74 1   
    76   29   75 1   
    77   30   31 2   
    78   31   76 1   
    79   31   77 1   
@<TRIPOS>SUBSTRUCTURE
     1 JC1         1 TEMP              0 ****  ****    0 ROOT
