@<TRIPOS>MOLECULE
JCB
   32    32     1     0     0
SMALL
bcc


@<TRIPOS>ATOM
      1 C1          0.4020   -0.2110    0.0810 c3        1 JCB     -0.173000
      2 C3          1.8220   -0.3640    0.4810 c2        1 JCB     -0.118000
      3 C5          2.2500   -0.2610    1.7550 c2        1 JCB     -0.194000
      4 C7          1.3820    0.0070    2.8820 c1        1 JCB     -0.001000
      5 C9          0.0200    0.1640    2.5790 c2        1 JCB     -0.324000
      6 C10        -0.4840    0.0740    1.2350 c2        1 JCB      0.196000
      7 N11        -1.8440    0.2710    1.1780 n3        1 JCB     -0.744000
      8 C13        -2.2880    0.5000    2.5860 c3        1 JCB     -0.144000
      9 C15        -1.0680    0.4280    3.4740 c1        1 JCB      0.064000
     10 O21        -2.2960   -0.4480   -1.1800 o         1 JCB     -0.927500
     11 O24        -4.1410   -0.2310    0.3410 o         1 JCB     -0.927500
     12 C28        -4.1260    5.1930   -0.8880 c1        1 JCB     -0.046000
     13 S6         -2.9010    0.2550   -0.1090 s6        1 JCB      2.854000
     14 C29        -1.0560    0.0930   -3.7070 c2        1 JCB     -0.504000
     15 C31        -0.8710    0.8530   -2.6660 c1        1 JCB      0.102000
     16 C33        -3.0200    1.8500   -0.5020 c2        1 JCB     -0.983000
     17 C35        -3.9860    2.7100   -0.1340 c2        1 JCB      0.197000
     18 C37        -4.0560    4.0450   -0.5440 c1        1 JCB     -0.206000
     19 HB          0.3090    0.6150   -0.6920 hc        1 JCB      0.168500
     20 HC          0.0510   -1.1530   -0.4390 hc        1 JCB      0.168500
     21 H5          2.5080   -0.5710   -0.3560 ha        1 JCB      0.132000
     22 H4          3.3200   -0.3820    1.9980 ha        1 JCB      0.147000
     23 HA         -2.7620    1.5150    2.6750 h1        1 JCB      0.146500
     24 H1         -3.0320   -0.2910    2.8790 h1        1 JCB      0.146500
     25 H2         -3.3380    7.1360   -0.8940 hc        1 JCB      0.111333
     26 H10        -4.2110    6.6340   -2.4090 hc        1 JCB      0.111333
     27 H11        -5.1560    7.0250   -0.9020 hc        1 JCB      0.111333
     28 H29        -0.6600    0.2680   -4.7160 ha        1 JCB      0.197500
     29 H13        -1.6650   -0.8280   -3.6150 ha        1 JCB      0.197500
     30 H3         -2.2230    2.2230   -1.1860 h4        1 JCB      0.215000
     31 H37        -4.8110    2.3770    0.5350 ha        1 JCB      0.155000
     32 C25        -4.2130    6.5570   -1.2900 c3        1 JCB     -0.133000
@<TRIPOS>BOND
     1    1    2 1   
     2    1    6 1   
     3    1   19 1   
     4    1   20 1   
     5    2    3 1   
     6    2   21 1   
     7    3    4 1   
     8    3   22 1   
     9    4    5 1   
    10    5    6 1   
    11    5    9 1   
    12    6    7 1   
    13    7    8 1   
    14    7   13 1   
    15    8    9 1   
    16    8   23 1   
    17    8   24 1   
    18   10   13 1   
    19   11   13 1   
    20   12   18 1   
    21   12   32 1   
    22   13   16 1   
    23   14   15 1   
    24   14   28 1   
    25   14   29 1   
    26   16   17 1   
    27   16   30 1   
    28   17   18 1   
    29   17   31 1   
    30   25   32 1   
    31   26   32 1   
    32   27   32 1   
@<TRIPOS>SUBSTRUCTURE
     1 JCB         1 TEMP              0 ****  ****    0 ROOT
