@<TRIPOS>MOLECULE
JCB
   32    23     1     0     0
SMALL
bcc


@<TRIPOS>ATOM
      1 C1          0.6850   -3.3530    1.4280 c1        1 JCB     -0.077667
      2 C3          1.3400   -4.1960    2.3140 c1        1 JCB     -0.129500
      3 C5          2.3530   -3.7010    3.1250 c1        1 JCB     -0.129500
      4 C7          2.7090   -2.3620    3.0500 c1        1 JCB     -0.077667
      5 C9          2.0460   -1.5070    2.1530 c1        1 JCB     -0.298333
      6 C10         1.0460   -1.9970    1.3520 c1        1 JCB     -0.298333
      7 N11         0.5700   -0.9540    0.5770 n1        1 JCB     -0.673000
      8 C13         1.2750    0.1720    0.9020 c1        1 JCB     -0.060000
      9 C15         2.1910   -0.1650    1.8780 c1        1 JCB     -0.165000
     10 O21        -0.3340   -1.9670   -1.5760 o         1 JCB     -0.918500
     11 O24        -1.8170   -1.6620    0.0490 o         1 JCB     -0.918500
     12 C25        -2.1450    4.3810   -2.7520 c3        1 JCB     -0.196000
     13 C28        -1.7510    3.0330   -2.1910 c2        1 JCB      0.007000
     14 S6         -0.6500   -1.0460   -0.5200 ss        1 JCB      2.857000
     15 C29        -1.2540    2.0510   -3.0330 c2        1 JCB     -0.161000
     16 C31        -0.8890    0.8170   -2.5180 c1        1 JCB     -0.005000
     17 C33        -1.0210    0.5650   -1.1610 c1        1 JCB     -0.298333
     18 C35        -1.5180    1.5470   -0.3200 c1        1 JCB     -0.077667
     19 C37        -1.8830    2.7810   -0.8340 c1        1 JCB     -0.160000
     20 HB         -0.0260   -3.7010    0.8580 ha        1 JCB      0.148333
     21 HC          1.0890   -5.1380    2.3670 ha        1 JCB      0.133000
     22 H5          2.8130   -4.2940    3.7490 ha        1 JCB      0.133000
     23 H4          3.4210   -2.0140    3.6200 ha        1 JCB      0.148333
     24 HA          1.1560    1.0570    0.5070 DU        1 JCB      0.171500
     25 H1          2.8300    0.4420    2.2990 DU        1 JCB      0.171500
     26 H2         -3.1180    4.4150   -2.8650 hc        1 JCB      0.094333
     27 H10        -1.8630    5.0870   -2.1330 hc        1 JCB      0.094333
     28 H11        -1.7100    4.5130   -3.6200 hc        1 JCB      0.094333
     29 H29        -1.1610    2.2280   -3.9880 ha        1 JCB      0.143000
     30 H13        -0.5390    0.1250   -3.1110 ha        1 JCB      0.155000
     31 H3         -1.6120    1.3700    0.6360 ha        1 JCB      0.148333
     32 H37        -2.2330    3.4730   -0.2420 ha        1 JCB      0.144000
@<TRIPOS>BOND
     1    1    6 1   
     2    1   20 1   
     3    2    3 1   
     4    2   21 1   
     5    3   22 1   
     6    4    5 1   
     7    4   23 1   
     8    7    8 1   
     9    8    9 1   
    10   10   14 1   
    11   11   14 1   
    12   12   13 1   
    13   12   26 1   
    14   12   27 1   
    15   12   28 1   
    16   13   15 1   
    17   13   19 1   
    18   15   16 1   
    19   15   29 1   
    20   16   30 1   
    21   17   18 1   
    22   18   31 1   
    23   19   32 1   
@<TRIPOS>SUBSTRUCTURE
     1 JCB         1 TEMP              0 ****  ****    0 ROOT
